REMARK  Name = ZINC54094719
REMARK  8 active torsions:
REMARK  status: ('A' for Active; 'I' for Inactive)
REMARK    1  A    between atoms: C_1  and  C_2
REMARK    2  A    between atoms: C_4  and  C_26
REMARK    3  A    between atoms: C_5  and  N_9
REMARK    4  A    between atoms: C_6  and  C_8
REMARK    5  A    between atoms: C_10  and  C_12
REMARK    6  A    between atoms: C_12  and  N_13
REMARK    7  A    between atoms: N_16  and  C_17
REMARK    8  A    between atoms: C_23  and  C_25
REMARK                            x       y       z     vdW  Elec       q    Type
REMARK                         _______ _______ _______ _____ _____    ______ ____
ROOT
ATOM      1  C   UNL     1       0.399  -6.476   0.969  0.00  0.00    +0.202 C 
ENDROOT
BRANCH   1   2
ATOM      2  N   UNL     1       0.858  -6.983   2.265  0.00  0.00    -0.291 N 
ATOM      3  C   UNL     1       0.984  -8.311   2.462  0.00  0.00    +0.300 C 
ATOM      4  O   UNL     1       0.718  -9.087   1.565  0.00  0.00    -0.253 OA
ATOM      5  N   UNL     1       1.407  -8.778   3.654  0.00  0.00    -0.296 N 
ATOM      6  H   UNL     1       1.071  -6.364   2.981  0.00  0.00    +0.151 HD
ATOM      7  H   UNL     1       1.619  -8.159   4.369  0.00  0.00    +0.151 HD
BRANCH   5   8
ATOM      8  C   UNL     1       1.544 -10.221   3.868  0.00  0.00    +0.077 C 
ATOM      9  C   UNL     1       0.192 -10.806   4.283  0.00  0.00    +0.022 C 
ATOM     10  C   UNL     1      -0.276 -10.140   5.578  0.00  0.00    +0.002 C 
ATOM     11  C   UNL     1       0.751 -10.396   6.683  0.00  0.00    +0.000 C 
ATOM     12  C   UNL     1       2.103  -9.811   6.268  0.00  0.00    +0.005 C 
ATOM     13  C   UNL     1       2.571 -10.477   4.973  0.00  0.00    +0.006 C 
ATOM     14  C   UNL     1       3.922  -9.892   4.558  0.00  0.00    +0.009 C 
ENDBRANCH   5   8
ENDBRANCH   1   2
BRANCH   1  16
ATOM     15  N   UNL     1      -0.052  -4.280  -0.077  0.00  0.00    -0.284 N 
ATOM     16  C   UNL     1       0.345  -4.970   1.011  0.00  0.00    +0.234 C 
ATOM     17  O   UNL     1       0.659  -4.380   2.022  0.00  0.00    -0.274 OA
ATOM     18  H   UNL     1      -0.370  -4.753  -0.862  0.00  0.00    +0.155 HD
BRANCH  15  23
ATOM     19  C   UNL     1       0.136   1.390  -0.065  0.00  0.00    +0.044 C 
ATOM     20  C   UNL     1       0.086  -0.116  -0.068  0.00  0.00    -0.050 A 
ATOM     21  C   UNL     1       0.759  -0.827  -1.045  0.00  0.00    +0.008 A 
ATOM     22  C   UNL     1       0.715  -2.207  -1.051  0.00  0.00    -0.029 A 
ATOM     23  C   UNL     1      -0.005  -2.882  -0.074  0.00  0.00    +0.039 A 
ATOM     24  C   UNL     1      -0.679  -2.165   0.906  0.00  0.00    -0.029 A 
ATOM     25  C   UNL     1      -0.628  -0.785   0.909  0.00  0.00    +0.008 A 
ATOM     26  C   UNL     1      -1.463  -2.893   1.968  0.00  0.00    +0.045 C 
ATOM     27  C   UNL     1       1.448  -2.981  -2.117  0.00  0.00    +0.045 C 
ENDBRANCH  15  23
ENDBRANCH   1  16
TORSDOF 4
