REMARK  Name = ZINC02424366
REMARK  5 active torsions:
REMARK  status: ('A' for Active; 'I' for Inactive)
REMARK    1  A    between atoms: C_9  and  S_24
REMARK    2  A    between atoms: C_10  and  N_23
REMARK    3  A    between atoms: N_11  and  N_14
REMARK    4  A    between atoms: C_15  and  C_16
REMARK    5  A    between atoms: S_24  and  C_27
REMARK                            x       y       z     vdW  Elec       q    Type
REMARK                         _______ _______ _______ _____ _____    ______ ____
ROOT
ATOM      1  C   UNL     1      -5.358  -1.999   4.054  0.00  0.00    +0.002 A 
ATOM      2  C   UNL     1      -5.455  -1.399   5.309  0.00  0.00    +0.002 A 
ATOM      3  C   UNL     1      -4.862  -0.200   5.559  0.00  0.00    +0.030 A 
ATOM      4  C   UNL     1      -4.139   0.450   4.541  0.00  0.00    +0.092 A 
ATOM      5  C   UNL     1      -4.041  -0.161   3.265  0.00  0.00    +0.090 A 
ATOM      6  C   UNL     1      -4.668  -1.402   3.045  0.00  0.00    +0.030 A 
ATOM      7  N   UNL     1      -3.361   0.434   2.279  0.00  0.00    -0.240 NA
ATOM      8  C   UNL     1      -2.776   1.601   2.500  0.00  0.00    +0.137 A 
ATOM      9  C   UNL     1      -2.001   2.483   1.708  0.00  0.00    +0.162 A 
ATOM     10  C   UNL     1      -1.668   3.550   2.472  0.00  0.00    +0.148 A 
ATOM     11  N   UNL     1      -2.182   3.419   3.740  0.00  0.00    -0.197 N 
ATOM     12  C   UNL     1      -2.877   2.229   3.823  0.00  0.00    +0.184 A 
ATOM     13  N   UNL     1      -3.546   1.627   4.780  0.00  0.00    -0.224 NA
ENDROOT
BRANCH  10  14
ATOM     14  N   UNL     1      -0.915   4.626   2.035  0.00  0.00    -0.341 N 
ATOM     15  H   UNL     1      -0.586   4.649   1.123  0.00  0.00    +0.144 HD
ATOM     16  H   UNL     1      -0.716   5.357   2.641  0.00  0.00    +0.144 HD
ENDBRANCH  10  14
BRANCH   9  17
ATOM     17  S   UNL     1      -1.555   2.238   0.022  0.00  0.00    +0.030 S 
ATOM     18  O   UNL     1      -1.304   3.526  -0.523  0.00  0.00    -0.164 OA
ATOM     19  O   UNL     1      -2.519   1.352  -0.529  0.00  0.00    -0.164 OA
BRANCH  17  20
ATOM     20  C   UNL     1      -0.017   1.378   0.010  0.00  0.00    +0.094 A 
ATOM     21  C   UNL     1       1.171   2.086   0.002  0.00  0.00    +0.029 A 
ATOM     22  C   UNL     1       2.377   1.412  -0.013  0.00  0.00    +0.022 A 
ATOM     23  C   UNL     1       2.397   0.029  -0.021  0.00  0.00    +0.041 A 
ATOM     24  C   UNL     1       1.208  -0.679  -0.013  0.00  0.00    +0.022 A 
ATOM     25  C   UNL     1       0.002  -0.004   0.002  0.00  0.00    +0.029 A 
ATOM     26 CL   UNL     1       3.912  -0.818  -0.039  0.00  0.00    -0.084 Cl
ENDBRANCH  17  20
ENDBRANCH   9  17
BRANCH  11  27
ATOM     27  N   UNL     1      -2.026   4.344   4.781  0.00  0.00    -0.171 NA
ATOM     28  C   UNL     1      -2.892   5.297   4.937  0.00  0.00    +0.141 C 
BRANCH  28  29
ATOM     29  C   UNL     1      -2.727   6.271   6.032  0.00  0.00    -0.005 A 
ATOM     30  C   UNL     1      -1.643   6.166   6.907  0.00  0.00    +0.012 A 
ATOM     31  C   UNL     1      -1.491   7.082   7.926  0.00  0.00    +0.039 A 
ATOM     32  C   UNL     1      -2.418   8.099   8.090  0.00  0.00    +0.123 A 
ATOM     33  C   UNL     1      -3.499   8.206   7.229  0.00  0.00    +0.039 A 
ATOM     34  C   UNL     1      -3.658   7.298   6.203  0.00  0.00    +0.012 A 
ATOM     35  F   UNL     1      -2.267   8.991   9.094  0.00  0.00    -0.205 F 
ENDBRANCH  28  29
ENDBRANCH  11  27
TORSDOF 5
