REMARK  Name = ZINC20549339
REMARK  8 active torsions:
REMARK  status: ('A' for Active; 'I' for Inactive)
REMARK    1  A    between atoms: C_1  and  C_2
REMARK    2  A    between atoms: C_5  and  N_12
REMARK    3  A    between atoms: C_8  and  C_10
REMARK    4  A    between atoms: C_8  and  C_11
REMARK    5  A    between atoms: N_12  and  C_13
REMARK    6  A    between atoms: C_13  and  C_14
REMARK    7  A    between atoms: C_17  and  S_20
REMARK    8  A    between atoms: S_20  and  N_23
REMARK                            x       y       z     vdW  Elec       q    Type
REMARK                         _______ _______ _______ _____ _____    ______ ____
ROOT
ATOM      1  C   UNL     1      -2.647   5.600  -0.729  0.00  0.00    -0.046 C 
ENDROOT
BRANCH   1   2
ATOM      2  C   UNL     1      -2.635   7.107  -0.698  0.00  0.00    -0.064 A 
ATOM      3  C   UNL     1      -3.311   7.783   0.300  0.00  0.00    +0.003 A 
ATOM      4  C   UNL     1      -3.295   9.165   0.331  0.00  0.00    +0.029 A 
ATOM      5  C   UNL     1      -2.612   9.871  -0.641  0.00  0.00    +0.105 A 
ATOM      6  C   UNL     1      -1.940   9.194  -1.643  0.00  0.00    +0.029 A 
ATOM      7  C   UNL     1      -1.952   7.812  -1.671  0.00  0.00    +0.003 A 
BRANCH   5   8
ATOM      8  S   UNL     1      -2.596  11.632  -0.605  0.00  0.00    +0.056 S 
ATOM      9  O   UNL     1      -2.843  12.012   0.742  0.00  0.00    -0.153 OA
ATOM     10  O   UNL     1      -1.433  12.043  -1.310  0.00  0.00    -0.153 OA
BRANCH   8  11
ATOM     11  N   UNL     1      -3.895  12.152  -1.490  0.00  0.00    -0.204 NA
ATOM     12  H   UNL     1      -3.921  13.252  -1.491  0.00  0.00    +0.144 HD
ATOM     13  H   UNL     1      -4.822  11.764  -1.043  0.00  0.00    +0.144 HD
ENDBRANCH   8  11
ENDBRANCH   5   8
ENDBRANCH   1   2
BRANCH   1  14
ATOM     14  N   UNL     1      -1.510   5.085   0.044  0.00  0.00    +0.384 N 
ATOM     15  H   UNL     1      -1.595   5.444   1.080  0.00  0.00    -0.085 HD
ATOM     16  H   UNL     1      -0.579   5.466  -0.401  0.00  0.00    -0.085 HD
BRANCH  14  20
ATOM     17  C   UNL     1      -0.037   1.099  -2.490  0.00  0.00    +0.007 C 
ATOM     18  C   UNL     1      -0.753   1.593  -1.232  0.00  0.00    -0.015 C 
ATOM     19  C   UNL     1      -0.773   3.123  -1.223  0.00  0.00    -0.013 C 
ATOM     20  C   UNL     1      -1.490   3.616   0.036  0.00  0.00    -0.071 C 
ATOM     21  C   UNL     1      -0.750   3.109   1.275  0.00  0.00    -0.010 C 
ATOM     22  C   UNL     1      -0.729   1.579   1.267  0.00  0.00    -0.036 C 
ATOM     23  C   UNL     1      -0.013   1.086   0.008  0.00  0.00    +0.009 C 
ATOM     24  C   UNL     1      -2.164   1.050   1.278  0.00  0.00    +0.011 C 
ATOM     25  C   UNL     1       0.011   1.072   2.506  0.00  0.00    +0.011 C 
ENDBRANCH  14  20
ENDBRANCH   1  14
TORSDOF 5
