REMARK  Name = ZINC18199489
REMARK  2 active torsions:
REMARK  status: ('A' for Active; 'I' for Inactive)
REMARK    1  A    between atoms: C_3  and  O_28
REMARK    2  A    between atoms: C_4  and  C_8
REMARK                            x       y       z     vdW  Elec       q    Type
REMARK                         _______ _______ _______ _____ _____    ______ ____
ROOT
ATOM      1  C   UNL     1       3.711  -0.716  -0.037  0.00  0.00    +0.096 C 
ATOM      2  C   UNL     1       3.803  -1.581   1.186  0.00  0.00    +0.067 A 
ATOM      3  C   UNL     1       3.590  -2.924   1.110  0.00  0.00    +0.113 A 
ATOM      4  N   UNL     1       3.675  -3.690   2.248  0.00  0.00    -0.295 N 
ATOM      5  H   UNL     1       3.518  -4.676   2.197  0.00  0.00    +0.172 HD
ATOM      6  C   UNL     1       3.970  -3.119   3.431  0.00  0.00    +0.328 A 
ATOM      7  O   UNL     1       4.040  -3.810   4.429  0.00  0.00    -0.247 OA
ATOM      8  N   UNL     1       4.188  -1.795   3.525  0.00  0.00    -0.275 N 
ATOM      9  H   UNL     1       4.407  -1.391   4.412  0.00  0.00    +0.173 HD
ATOM     10  C   UNL     1       4.114  -1.009   2.433  0.00  0.00    +0.260 A 
ATOM     11  O   UNL     1       4.314   0.190   2.525  0.00  0.00    -0.267 OA
ATOM     12  N   UNL     1       3.296  -3.509  -0.096  0.00  0.00    -0.303 N 
ATOM     13  C   UNL     1       3.592  -2.871  -1.271  0.00  0.00    +0.017 C 
ATOM     14  C   UNL     1       3.799  -1.538  -1.297  0.00  0.00    +0.024 C 
ATOM     15  C   UNL     1       4.100  -0.875  -2.500  0.00  0.00    +0.162 C 
ATOM     16  O   UNL     1       4.295   0.325  -2.486  0.00  0.00    -0.292 OA
ATOM     17  C   UNL     1       4.185  -1.622  -3.803  0.00  0.00    +0.080 C 
ATOM     18  C   UNL     1       3.270  -2.849  -3.734  0.00  0.00    +0.014 C 
ATOM     19  C   UNL     1       3.686  -3.697  -2.531  0.00  0.00    +0.051 C 
ATOM     20  H   UNL     1       2.875  -4.382  -0.117  0.00  0.00    +0.153 HD
ENDROOT
BRANCH   1  24
ATOM     21  C   UNL     1      -0.017   1.379   0.010  0.00  0.00    +0.019 A 
ATOM     22  C   UNL     1       1.170   2.087   0.002  0.00  0.00    +0.047 A 
ATOM     23  C   UNL     1       2.380   1.410  -0.013  0.00  0.00    +0.121 A 
ATOM     24  C   UNL     1       2.397   0.022  -0.020  0.00  0.00    +0.007 A 
ATOM     25  C   UNL     1       1.208  -0.681  -0.013  0.00  0.00    +0.023 A 
ATOM     26  C   UNL     1       0.002  -0.004   0.002  0.00  0.00    +0.018 A 
ATOM     27 BR   UNL     1      -1.623  -0.971   0.012  0.00  0.00    -0.050 Br
BRANCH  23  28
ATOM     28  O   UNL     1       3.548   2.104  -0.020  0.00  0.00    -0.506 OA
ATOM     29  H   UNL     1       3.879   2.310  -0.905  0.00  0.00    +0.292 HD
ENDBRANCH  23  28
ENDBRANCH   1  24
TORSDOF 2
