REMARK  Name = ZINC39664771
REMARK  11 active torsions:
REMARK  status: ('A' for Active; 'I' for Inactive)
REMARK    1  A    between atoms: C_1  and  C_2
REMARK    2  A    between atoms: C_2  and  S_3
REMARK    3  A    between atoms: S_3  and  C_4
REMARK    4  A    between atoms: C_5  and  C_10
REMARK    5  A    between atoms: C_14  and  C_23
REMARK    6  A    between atoms: N_25  and  C_26
REMARK    7  A    between atoms: C_26  and  C_28
REMARK    8  A    between atoms: C_26  and  C_32
REMARK    9  A    between atoms: C_28  and  N_29
REMARK   10  A    between atoms: N_29  and  C_30
REMARK   11  A    between atoms: N_29  and  C_31
REMARK                            x       y       z     vdW  Elec       q    Type
REMARK                         _______ _______ _______ _____ _____    ______ ____
ROOT
ATOM      1  C   UNL     1      -3.969  -2.446   1.269  0.00  0.00    +0.249 C 
ATOM      2  O   UNL     1      -4.093  -1.326   1.725  0.00  0.00    -0.270 OA
ATOM      3  N   UNL     1      -5.055  -3.222   1.083  0.00  0.00    -0.296 N 
ATOM      4  C   UNL     1      -5.096  -4.636   0.640  0.00  0.00    +0.121 C 
ATOM      5  C   UNL     1      -6.213  -5.279   1.492  0.00  0.00    +0.100 C 
ATOM      6  C   UNL     1      -7.118  -4.105   1.904  0.00  0.00    -0.004 C 
ATOM      7  C   UNL     1      -6.478  -2.856   1.282  0.00  0.00    +0.115 C 
ATOM      8  C   UNL     1      -8.527  -4.307   1.357  0.00  0.00    -0.010 C 
ATOM      9  C   UNL     1      -9.422  -3.157   1.829  0.00  0.00    -0.082 C 
ATOM     10  N   UNL     1      -9.446  -3.123   3.296  0.00  0.00    +0.379 N 
ATOM     11  C   UNL     1      -8.102  -2.836   3.812  0.00  0.00    -0.082 C 
ATOM     12  C   UNL     1      -7.151  -3.973   3.424  0.00  0.00    -0.010 C 
ATOM     13  H   UNL     1     -10.083  -2.404   3.604  0.00  0.00    -0.086 HD
ATOM     14  H   UNL     1      -9.756  -4.017   3.647  0.00  0.00    -0.086 HD
ENDROOT
BRANCH   1  16
ATOM     15  C   UNL     1      -1.528  -2.704   1.755  0.00  0.00    +0.109 A 
ATOM     16  C   UNL     1      -2.631  -2.956   0.919  0.00  0.00    +0.069 A 
ATOM     17  C   UNL     1      -2.434  -3.699  -0.249  0.00  0.00    +0.017 A 
ATOM     18  C   UNL     1      -1.159  -4.156  -0.532  0.00  0.00    +0.020 A 
ATOM     19  C   UNL     1      -0.123  -3.868   0.339  0.00  0.00    +0.112 A 
ATOM     20  N   UNL     1      -0.327  -3.161   1.433  0.00  0.00    -0.248 NA
BRANCH  15  21
ATOM     21  S   UNL     1      -1.743  -1.770   3.234  0.00  0.00    -0.105 S 
BRANCH  21  23
ATOM     22  C   UNL     1      -0.125  -0.909   5.264  0.00  0.00    +0.015 C 
ATOM     23  C   UNL     1      -0.081  -1.702   3.956  0.00  0.00    +0.072 C 
ENDBRANCH  21  23
ENDBRANCH  15  21
ENDBRANCH   1  16
BRANCH   5  24
ATOM     24  C   UNL     1      -6.988  -6.279   0.673  0.00  0.00    +0.219 C 
ATOM     25  O   UNL     1      -7.058  -6.153  -0.531  0.00  0.00    -0.275 OA
ATOM     26  N   UNL     1      -7.604  -7.314   1.279  0.00  0.00    -0.310 N 
ATOM     27  H   UNL     1      -7.493  -7.453   2.232  0.00  0.00    +0.149 HD
BRANCH  26  28
ATOM     28  C   UNL     1      -8.440  -8.228   0.497  0.00  0.00    +0.087 C 
BRANCH  28  29
ATOM     29  C   UNL     1      -9.747  -8.450   1.214  0.00  0.00    -0.029 A 
ATOM     30  C   UNL     1      -9.766  -8.587   2.589  0.00  0.00    +0.005 A 
ATOM     31  C   UNL     1     -10.965  -8.791   3.246  0.00  0.00    +0.000 A 
ATOM     32  C   UNL     1     -12.145  -8.858   2.528  0.00  0.00    +0.000 A 
ATOM     33  C   UNL     1     -12.125  -8.721   1.153  0.00  0.00    +0.000 A 
ATOM     34  C   UNL     1     -10.927  -8.513   0.496  0.00  0.00    +0.005 A 
ENDBRANCH  28  29
BRANCH  28  35
ATOM     35  C   UNL     1      -7.715  -9.566   0.331  0.00  0.00    -0.052 C 
BRANCH  35  36
ATOM     36  N   UNL     1      -6.399  -9.337  -0.281  0.00  0.00    +0.377 N 
ATOM     37  C   UNL     1      -5.645 -10.597  -0.305  0.00  0.00    -0.097 C 
ATOM     38  C   UNL     1      -6.576  -8.845  -1.653  0.00  0.00    -0.097 C 
ATOM     39  H   UNL     1      -5.892  -8.652   0.259  0.00  0.00    -0.083 HD
ENDBRANCH  35  36
ENDBRANCH  28  35
ENDBRANCH  26  28
ENDBRANCH   5  24
TORSDOF 8
