REMARK  Name = ZINC10213366
REMARK  8 active torsions:
REMARK  status: ('A' for Active; 'I' for Inactive)
REMARK    1  A    between atoms: C_1  and  C_2
REMARK    2  A    between atoms: C_2  and  C_4
REMARK    3  A    between atoms: C_2  and  S_19
REMARK    4  A    between atoms: N_6  and  C_7
REMARK    5  A    between atoms: S_19  and  C_20
REMARK    6  A    between atoms: C_23  and  C_28
REMARK    7  A    between atoms: N_24  and  C_25
REMARK    8  A    between atoms: C_25  and  C_26
REMARK                            x       y       z     vdW  Elec       q    Type
REMARK                         _______ _______ _______ _____ _____    ______ ____
ROOT
ATOM      1  S   UNL     1       9.771  -1.904  -0.351  0.00  0.00    -0.074 S 
ENDROOT
BRANCH   1   2
ATOM      2  C   UNL     1       8.150  -1.361   0.077  0.00  0.00    +0.193 A 
ATOM      3  N   UNL     1       7.459  -1.724   1.134  0.00  0.00    -0.122 NA
ATOM      4  N   UNL     1       6.317  -1.135   1.131  0.00  0.00    -0.129 NA
ATOM      5  C   UNL     1       6.211  -0.368   0.083  0.00  0.00    +0.179 A 
ATOM      6  N   UNL     1       7.372  -0.489  -0.629  0.00  0.00    -0.299 N 
BRANCH   5   7
ATOM      7  C   UNL     1       5.026   0.488  -0.281  0.00  0.00    +0.278 C 
ATOM      8  C   UNL     1       4.986   1.728   0.622  0.00  0.00    +0.281 C 
ATOM      9  O   UNL     1       3.843   2.510   0.259  0.00  0.00    -0.484 OA
ATOM     10  C   UNL     1       2.670   1.840   0.097  0.00  0.00    +0.162 A 
ATOM     11  C   UNL     1       1.476   2.546   0.106  0.00  0.00    +0.049 A 
ATOM     12  C   UNL     1       0.276   1.880  -0.064  0.00  0.00    +0.004 A 
ATOM     13  C   UNL     1       0.264   0.509  -0.242  0.00  0.00    +0.004 A 
ATOM     14  C   UNL     1       1.450  -0.200  -0.250  0.00  0.00    +0.049 A 
ATOM     15  C   UNL     1       2.656   0.462  -0.079  0.00  0.00    +0.163 A 
ATOM     16  O   UNL     1       3.816  -0.251  -0.082  0.00  0.00    -0.474 OA
ENDBRANCH   5   7
BRANCH   6  17
ATOM     17  C   UNL     1       7.713   0.181  -1.886  0.00  0.00    +0.152 C 
BRANCH  17  18
ATOM     18  C   UNL     1       8.389   1.494  -1.589  0.00  0.00    -0.013 C 
ATOM     19  C   UNL     1       9.567   1.756  -2.100  0.00  0.00    +0.005 C 
ENDBRANCH  17  18
ENDBRANCH   6  17
ENDBRANCH   1   2
BRANCH   1  21
ATOM     20  C   UNL     1      10.163  -2.211   2.335  0.00  0.00    +0.029 C 
ATOM     21  C   UNL     1      10.106  -3.018   1.036  0.00  0.00    +0.137 C 
BRANCH  21  22
ATOM     22  C   UNL     1      11.427  -3.710   0.816  0.00  0.00    +0.230 C 
ATOM     23  O   UNL     1      12.274  -3.193   0.118  0.00  0.00    -0.274 OA
ATOM     24  N   UNL     1      11.666  -4.903   1.394  0.00  0.00    -0.285 N 
ATOM     25  H   UNL     1      11.021  -5.281   2.012  0.00  0.00    +0.155 HD
BRANCH  24  26
ATOM     26  C   UNL     1      12.847  -5.599   1.102  0.00  0.00    +0.035 A 
ATOM     27  C   UNL     1      13.456  -6.374   2.083  0.00  0.00    +0.025 A 
ATOM     28  C   UNL     1      14.616  -7.066   1.800  0.00  0.00    +0.029 A 
ATOM     29  C   UNL     1      15.184  -6.979   0.537  0.00  0.00    +0.067 A 
ATOM     30  C   UNL     1      14.577  -6.197  -0.448  0.00  0.00    +0.069 A 
ATOM     31  C   UNL     1      13.409  -5.508  -0.162  0.00  0.00    +0.051 A 
ATOM     32  N   UNL     1      15.366  -6.306  -1.591  0.00  0.00    -0.306 N 
ATOM     33  H   UNL     1      15.196  -5.872  -2.441  0.00  0.00    +0.170 HD
ATOM     34  C   UNL     1      16.404  -7.118  -1.315  0.00  0.00    +0.325 A 
ATOM     35  O   UNL     1      17.283  -7.423  -2.099  0.00  0.00    -0.247 OA
ATOM     36  N   UNL     1      16.323  -7.540  -0.039  0.00  0.00    -0.306 N 
ATOM     37  H   UNL     1      16.950  -8.133   0.404  0.00  0.00    +0.170 HD
ENDBRANCH  24  26
ENDBRANCH  21  22
ENDBRANCH   1  21
TORSDOF 7
