REMARK  Name = ZINC39676369
REMARK  5 active torsions:
REMARK  status: ('A' for Active; 'I' for Inactive)
REMARK    1  A    between atoms: C_5  and  C_7
REMARK    2  A    between atoms: C_11  and  C_20
REMARK    3  A    between atoms: N_22  and  C_23
REMARK    4  A    between atoms: C_23  and  C_24
REMARK    5  A    between atoms: C_24  and  C_25
REMARK                            x       y       z     vdW  Elec       q    Type
REMARK                         _______ _______ _______ _____ _____    ______ ____
ROOT
ATOM      1  C   UNL     1       1.353  -2.436  -0.123  0.00  0.00    +0.249 C 
ATOM      2  O   UNL     1       2.357  -3.110  -0.251  0.00  0.00    -0.270 OA
ATOM      3  N   UNL     1       0.154  -3.035   0.023  0.00  0.00    -0.296 N 
ATOM      4  C   UNL     1      -1.180  -2.392   0.085  0.00  0.00    +0.121 C 
ATOM      5  C   UNL     1      -2.104  -3.334  -0.719  0.00  0.00    +0.100 C 
ATOM      6  C   UNL     1      -1.409  -4.705  -0.665  0.00  0.00    -0.004 C 
ATOM      7  C   UNL     1      -0.128  -4.484   0.152  0.00  0.00    +0.115 C 
ATOM      8  C   UNL     1      -2.308  -5.727   0.025  0.00  0.00    -0.010 C 
ATOM      9  C   UNL     1      -1.620  -7.095   0.015  0.00  0.00    -0.082 C 
ATOM     10  N   UNL     1      -1.358  -7.502  -1.370  0.00  0.00    +0.379 N 
ATOM     11  C   UNL     1      -0.419  -6.565  -1.998  0.00  0.00    -0.082 C 
ATOM     12  C   UNL     1      -1.056  -5.174  -2.073  0.00  0.00    -0.010 C 
ATOM     13  H   UNL     1      -0.960  -8.430  -1.377  0.00  0.00    -0.086 HD
ATOM     14  H   UNL     1      -2.224  -7.506  -1.888  0.00  0.00    -0.086 HD
ENDROOT
BRANCH   1  19
ATOM     15  C   UNL     1       0.675   1.173   0.654  0.00  0.00    +0.001 A 
ATOM     16  C   UNL     1       1.623   1.803  -0.134  0.00  0.00    +0.003 A 
ATOM     17  C   UNL     1       2.484   1.059  -0.919  0.00  0.00    +0.039 A 
ATOM     18  C   UNL     1       2.403  -0.322  -0.921  0.00  0.00    +0.135 A 
ATOM     19  C   UNL     1       1.447  -0.963  -0.127  0.00  0.00    +0.072 A 
ATOM     20  C   UNL     1       0.582  -0.202   0.663  0.00  0.00    +0.016 A 
ATOM     21  F   UNL     1       3.244  -1.049  -1.688  0.00  0.00    -0.205 F 
ENDBRANCH   1  19
BRANCH   5  22
ATOM     22  C   UNL     1      -2.225  -2.861  -2.144  0.00  0.00    +0.218 C 
ATOM     23  O   UNL     1      -1.306  -2.266  -2.666  0.00  0.00    -0.275 OA
ATOM     24  N   UNL     1      -3.355  -3.098  -2.840  0.00  0.00    -0.315 N 
ATOM     25  H   UNL     1      -4.090  -3.574  -2.423  0.00  0.00    +0.149 HD
BRANCH  24  26
ATOM     26  C   UNL     1      -3.472  -2.637  -4.225  0.00  0.00    +0.109 C 
BRANCH  26  27
ATOM     27  C   UNL     1      -4.843  -3.032  -4.780  0.00  0.00    +0.056 C 
BRANCH  27  28
ATOM     28  C   UNL     1      -4.963  -2.558  -6.205  0.00  0.00    -0.021 A 
ATOM     29  C   UNL     1      -4.493  -3.262  -7.400  0.00  0.00    +0.004 A 
ATOM     30  C   UNL     1      -3.844  -4.479  -7.616  0.00  0.00    +0.030 A 
ATOM     31  C   UNL     1      -3.531  -4.866  -8.900  0.00  0.00    +0.042 A 
ATOM     32  C   UNL     1      -3.858  -4.053  -9.978  0.00  0.00    +0.022 A 
ATOM     33  C   UNL     1      -4.499  -2.849  -9.781  0.00  0.00    +0.027 A 
ATOM     34  C   UNL     1      -4.824  -2.440  -8.492  0.00  0.00    +0.047 A 
ATOM     35  N   UNL     1      -5.449  -1.322  -7.984  0.00  0.00    -0.360 N 
ATOM     36  C   UNL     1      -5.528  -1.413  -6.621  0.00  0.00    +0.087 A 
ATOM     37 CL   UNL     1      -2.723  -6.378  -9.174  0.00  0.00    -0.084 Cl
ATOM     38  H   UNL     1      -5.785  -0.582  -8.513  0.00  0.00    +0.165 HD
ENDBRANCH  27  28
ENDBRANCH  26  27
ENDBRANCH  24  26
ENDBRANCH   5  22
TORSDOF 5
