REMARK  Name = ZINC20617612
REMARK  6 active torsions:
REMARK  status: ('A' for Active; 'I' for Inactive)
REMARK    1  A    between atoms: C_1  and  C_2
REMARK    2  A    between atoms: C_6  and  C_17
REMARK    3  A    between atoms: N_8  and  C_9
REMARK    4  A    between atoms: N_19  and  C_20
REMARK    5  A    between atoms: C_31  and  C_34
REMARK    6  A    between atoms: C_34  and  O_35
REMARK                            x       y       z     vdW  Elec       q    Type
REMARK                         _______ _______ _______ _____ _____    ______ ____
ROOT
ATOM      1  C   UNL     1       0.024   0.211   0.510  0.00  0.00    +0.069 C 
ATOM      2  C   UNL     1       0.161  -1.208   0.022  0.00  0.00    +0.081 A 
ATOM      3  C   UNL     1       0.140  -1.476  -1.339  0.00  0.00    +0.159 A 
ATOM      4  C   UNL     1       0.272  -2.809  -1.770  0.00  0.00    +0.027 A 
ATOM      5  C   UNL     1       0.258  -3.112  -3.203  0.00  0.00    +0.030 A 
ATOM      6  C   UNL     1       0.382  -2.052  -4.074  0.00  0.00    +0.098 A 
ATOM      7  C   UNL     1       0.521  -0.705  -3.484  0.00  0.00    +0.212 A 
ATOM      8  N   UNL     1       1.138   0.257  -4.134  0.00  0.00    -0.325 N 
ATOM      9  O   UNL     1      -0.007  -0.486  -2.252  0.00  0.00    -0.437 OA
ATOM     10  C   UNL     1       0.417  -3.814  -0.806  0.00  0.00    +0.007 A 
ATOM     11  C   UNL     1       0.426  -3.451   0.525  0.00  0.00    +0.117 A 
ATOM     12  N   UNL     1       0.306  -2.188   0.891  0.00  0.00    -0.256 NA
ATOM     13  H   UNL     1       1.600   0.062  -4.965  0.00  0.00    +0.169 HD
ENDROOT
BRANCH   8  14
ATOM     14  C   UNL     1       1.128   1.532  -3.640  0.00  0.00    +0.042 A 
ATOM     15  C   UNL     1      -0.057   2.087  -3.152  0.00  0.00    +0.028 A 
ATOM     16  C   UNL     1      -0.060   3.373  -2.654  0.00  0.00    +0.040 A 
ATOM     17  C   UNL     1       1.109   4.116  -2.639  0.00  0.00    +0.124 A 
ATOM     18  C   UNL     1       2.289   3.571  -3.122  0.00  0.00    +0.040 A 
ATOM     19  C   UNL     1       2.306   2.284  -3.616  0.00  0.00    +0.028 A 
ATOM     20  F   UNL     1       1.100   5.375  -2.151  0.00  0.00    -0.205 F 
ENDBRANCH   8  14
BRANCH   6  21
ATOM     21  C   UNL     1       0.377  -2.253  -5.534  0.00  0.00    +0.253 C 
ATOM     22  O   UNL     1       0.376  -3.380  -5.992  0.00  0.00    -0.270 OA
ATOM     23  N   UNL     1       0.373  -1.189  -6.361  0.00  0.00    -0.282 N 
ATOM     24  H   UNL     1       0.452  -0.293  -5.999  0.00  0.00    +0.155 HD
BRANCH  23  25
ATOM     25  C   UNL     1       0.257  -1.377  -7.742  0.00  0.00    +0.032 C 
ATOM     26  C   UNL     1       0.391  -0.327  -8.584  0.00  0.00    +0.030 C 
ATOM     27  C   UNL     1       0.264  -0.645 -10.038  0.00  0.00    +0.178 C 
ATOM     28  C   UNL     1       1.085  -1.946 -10.276  0.00  0.00    +0.177 C 
ATOM     29  C   UNL     1       0.387  -3.037  -9.538  0.00  0.00    +0.009 C 
ATOM     30  C   UNL     1      -0.008  -2.727  -8.287  0.00  0.00    +0.021 C 
ATOM     31  O   UNL     1       1.132  -2.002 -11.692  0.00  0.00    -0.344 OA
ATOM     32  C   UNL     1       1.088  -0.624 -12.134  0.00  0.00    +0.324 C 
ATOM     33  O   UNL     1       0.884   0.236 -10.973  0.00  0.00    -0.344 OA
ENDBRANCH  23  25
ENDBRANCH   6  21
BRANCH  10  34
ATOM     34  C   UNL     1       0.559  -5.258  -1.213  0.00  0.00    +0.193 C 
BRANCH  34  35
ATOM     35  O   UNL     1       0.691  -6.071  -0.045  0.00  0.00    -0.390 OA
ATOM     36  H   UNL     1       0.787  -7.015  -0.232  0.00  0.00    +0.210 HD
ENDBRANCH  34  35
ENDBRANCH  10  34
TORSDOF 5
