REMARK  Name = ZINC00407760
REMARK  5 active torsions:
REMARK  status: ('A' for Active; 'I' for Inactive)
REMARK    1  A    between atoms: C_1  and  C_2
REMARK    2  A    between atoms: C_5  and  C_9
REMARK    3  A    between atoms: C_7  and  C_8
REMARK    4  A    between atoms: C_11  and  C_20
REMARK    5  A    between atoms: C_16  and  C_18
REMARK                            x       y       z     vdW  Elec       q    Type
REMARK                         _______ _______ _______ _____ _____    ______ ____
ROOT
ATOM      1  C   UNL     1       0.060  -4.245  -0.021  0.00  0.00    +0.055 C 
ATOM      2  C   UNL     1       0.068  -4.958  -1.344  0.00  0.00    +0.087 C 
ATOM      3  C   UNL     1       0.874  -6.260  -1.266  0.00  0.00    +0.147 C 
ATOM      4  N   UNL     1       0.544  -6.923  -0.005  0.00  0.00    -0.221 N 
ATOM      5  C   UNL     1       0.176  -6.233   1.117  0.00  0.00    +0.250 A 
ATOM      6  N   UNL     1      -0.034  -7.110   2.068  0.00  0.00    -0.195 NA
ATOM      7  C   UNL     1       0.177  -8.340   1.597  0.00  0.00    +0.150 A 
ATOM      8  N   UNL     1       0.529  -8.272   0.335  0.00  0.00    -0.153 NA
ATOM      9  C   UNL     1       0.035  -9.612   2.393  0.00  0.00    +0.090 C 
ATOM     10  N   UNL     1       0.074  -4.877   1.121  0.00  0.00    -0.215 NA
ENDROOT
BRANCH   1  15
ATOM     11  C   UNL     1      -0.018   1.503   0.010  0.00  0.00    +0.044 C 
ATOM     12  C   UNL     1       0.002  -0.004   0.002  0.00  0.00    -0.048 A 
ATOM     13  C   UNL     1       0.006  -0.686  -1.203  0.00  0.00    +0.004 A 
ATOM     14  C   UNL     1       0.024  -2.064  -1.219  0.00  0.00    +0.010 A 
ATOM     15  C   UNL     1       0.040  -2.774  -0.013  0.00  0.00    -0.003 A 
ATOM     16  C   UNL     1       0.037  -2.078   1.200  0.00  0.00    +0.013 A 
ATOM     17  C   UNL     1       0.023  -0.699   1.199  0.00  0.00    -0.047 A 
ATOM     18  C   UNL     1       0.025   0.054   2.504  0.00  0.00    +0.044 C 
ENDBRANCH   1  15
BRANCH   3  19
ATOM     19  C   UNL     1       0.509  -7.154  -2.423  0.00  0.00    -0.022 A 
ATOM     20  C   UNL     1      -0.797  -7.578  -2.584  0.00  0.00    +0.008 A 
ATOM     21  C   UNL     1      -1.133  -8.397  -3.645  0.00  0.00    +0.038 A 
ATOM     22  C   UNL     1      -0.161  -8.794  -4.547  0.00  0.00    +0.123 A 
ATOM     23  C   UNL     1       1.147  -8.369  -4.385  0.00  0.00    +0.038 A 
ATOM     24  C   UNL     1       1.480  -7.545  -3.327  0.00  0.00    +0.008 A 
ATOM     25  F   UNL     1      -0.488  -9.595  -5.584  0.00  0.00    -0.205 F 
ENDBRANCH   3  19
TORSDOF 2
