REMARK  Name = ZINC39586050
REMARK  7 active torsions:
REMARK  status: ('A' for Active; 'I' for Inactive)
REMARK    1  A    between atoms: C_1  and  C_2
REMARK    2  A    between atoms: C_2  and  N_3
REMARK    3  A    between atoms: C_14  and  N_16
REMARK    4  A    between atoms: N_16  and  S_17
REMARK    5  A    between atoms: S_17  and  C_20
REMARK    6  A    between atoms: C_21  and  C_27
REMARK    7  A    between atoms: C_24  and  C_26
REMARK                            x       y       z     vdW  Elec       q    Type
REMARK                         _______ _______ _______ _____ _____    ______ ____
ROOT
ATOM      1  N   UNL     1       0.711  -0.489   1.189  0.00  0.00    -0.340 N 
ATOM      2  C   UNL     1       2.071  -0.729   1.255  0.00  0.00    +0.050 A 
ATOM      3  C   UNL     1       3.092  -0.600   0.317  0.00  0.00    +0.026 A 
ATOM      4  C   UNL     1       4.388  -0.916   0.661  0.00  0.00    +0.002 A 
ATOM      5  C   UNL     1       4.691  -1.364   1.938  0.00  0.00    +0.001 A 
ATOM      6  C   UNL     1       3.694  -1.499   2.880  0.00  0.00    +0.010 A 
ATOM      7  C   UNL     1       2.379  -1.183   2.546  0.00  0.00    +0.008 A 
ATOM      8  C   UNL     1       1.108  -1.212   3.294  0.00  0.00    +0.009 A 
ATOM      9  C   UNL     1       0.115  -0.768   2.409  0.00  0.00    +0.050 A 
ATOM     10  C   UNL     1      -1.203  -0.685   2.847  0.00  0.00    +0.028 A 
ATOM     11  C   UNL     1      -1.525  -1.031   4.141  0.00  0.00    +0.026 A 
ATOM     12  C   UNL     1      -0.540  -1.467   5.022  0.00  0.00    +0.049 A 
ATOM     13  C   UNL     1       0.775  -1.566   4.599  0.00  0.00    +0.035 A 
ENDROOT
BRANCH   1  15
ATOM     14  C   UNL     1      -0.019   1.526   0.010  0.00  0.00    +0.027 C 
ATOM     15  C   UNL     1       0.002  -0.004   0.002  0.00  0.00    +0.119 C 
ENDBRANCH   1  15
BRANCH  12  16
ATOM     16  N   UNL     1      -0.880  -1.816   6.335  0.00  0.00    -0.216 N 
ATOM     17  H   UNL     1      -0.336  -1.506   7.075  0.00  0.00    +0.174 HD
BRANCH  16  18
ATOM     18  S   UNL     1      -2.211  -2.758   6.623  0.00  0.00    +0.072 S 
ATOM     19  O   UNL     1      -2.272  -2.956   8.028  0.00  0.00    -0.150 OA
ATOM     20  O   UNL     1      -3.282  -2.183   5.887  0.00  0.00    -0.150 OA
BRANCH  18  21
ATOM     21  C   UNL     1      -1.897  -4.337   5.905  0.00  0.00    +0.134 C 
ATOM     22  C   UNL     1      -2.402  -4.843   4.778  0.00  0.00    +0.085 C 
ATOM     23  N   UNL     1      -1.924  -6.087   4.554  0.00  0.00    -0.157 NA
ATOM     24  N   UNL     1      -1.138  -6.496   5.413  0.00  0.00    -0.178 NA
ATOM     25  C   UNL     1      -0.985  -5.434   6.422  0.00  0.00    +0.176 C 
ATOM     26  C   UNL     1      -1.452  -5.925   7.794  0.00  0.00    +0.041 C 
ATOM     27  C   UNL     1      -3.373  -4.124   3.877  0.00  0.00    +0.069 C 
ENDBRANCH  18  21
ENDBRANCH  16  18
ENDBRANCH  12  16
TORSDOF 4
