REMARK  Name = ZINC15911984
REMARK  8 active torsions:
REMARK  status: ('A' for Active; 'I' for Inactive)
REMARK    1  A    between atoms: C_1  and  C_2
REMARK    2  A    between atoms: C_7  and  O_9
REMARK    3  A    between atoms: O_9  and  C_10
REMARK    4  A    between atoms: C_10  and  C_12
REMARK    5  A    between atoms: N_19  and  C_20
REMARK    6  A    between atoms: C_20  and  N_22
REMARK    7  A    between atoms: C_23  and  C_25
REMARK    8  A    between atoms: C_31  and  C_33
REMARK                            x       y       z     vdW  Elec       q    Type
REMARK                         _______ _______ _______ _____ _____    ______ ____
ROOT
ATOM      1  C   UNL     1      -3.080   8.004   0.147  0.00  0.00    +0.065 C 
ATOM      2  C   UNL     1      -3.213   6.524  -0.105  0.00  0.00    +0.042 C 
ATOM      3  N   UNL     1      -4.400   6.041  -0.341  0.00  0.00    -0.245 NA
ATOM      4  C   UNL     1      -4.559   4.620  -0.651  0.00  0.00    +0.317 C 
ATOM      5  N   UNL     1      -3.459   3.905   0.030  0.00  0.00    -0.201 N 
ATOM      6  C   UNL     1      -2.163   4.367  -0.007  0.00  0.00    +0.204 C 
ATOM      7  C   UNL     1      -2.051   5.734  -0.074  0.00  0.00    +0.086 C 
ATOM      8  C   UNL     1      -4.049   2.849   0.710  0.00  0.00    +0.215 C 
ATOM      9  N   UNL     1      -5.344   2.929   0.680  0.00  0.00    -0.142 NA
ATOM     10  N   UNL     1      -5.770   4.050  -0.051  0.00  0.00    -0.159 N 
ATOM     11  N   UNL     1      -3.341   1.827   1.328  0.00  0.00    -0.250 N 
ATOM     12  C   UNL     1      -3.999   0.777   1.858  0.00  0.00    +0.286 C 
ATOM     13  O   UNL     1      -5.213   0.724   1.796  0.00  0.00    -0.266 OA
ATOM     14  H   UNL     1      -2.374   1.869   1.378  0.00  0.00    +0.158 HD
ENDROOT
BRANCH  12  15
ATOM     15  C   UNL     1      -3.251  -0.302   2.511  0.00  0.00    +0.189 A 
ATOM     16  C   UNL     1      -3.789  -1.417   3.087  0.00  0.00    +0.054 A 
ATOM     17  C   UNL     1      -2.716  -2.172   3.584  0.00  0.00    +0.042 A 
ATOM     18  C   UNL     1      -1.584  -1.493   3.295  0.00  0.00    +0.196 A 
ATOM     19  O   UNL     1      -1.910  -0.369   2.643  0.00  0.00    -0.458 OA
ENDBRANCH  12  15
BRANCH  10  20
ATOM     20  C   UNL     1      -7.032   4.507  -0.175  0.00  0.00    +0.163 C 
ATOM     21  S   UNL     1      -7.348   5.900  -1.118  0.00  0.00    -0.017 S 
BRANCH  20  22
ATOM     22  N   UNL     1      -8.044   3.867   0.443  0.00  0.00    -0.260 N 
ATOM     23  C   UNL     1      -9.306   4.324   0.318  0.00  0.00    +0.285 C 
ATOM     24  O   UNL     1      -9.531   5.315  -0.352  0.00  0.00    -0.266 OA
ATOM     25  H   UNL     1      -7.865   3.078   0.977  0.00  0.00    +0.157 HD
BRANCH  23  26
ATOM     26  C   UNL     1     -10.407   3.629   0.990  0.00  0.00    +0.189 A 
ATOM     27  C   UNL     1     -11.725   3.987   0.952  0.00  0.00    +0.054 A 
ATOM     28  C   UNL     1     -12.421   3.046   1.727  0.00  0.00    +0.042 A 
ATOM     29  C   UNL     1     -11.509   2.172   2.205  0.00  0.00    +0.196 A 
ATOM     30  O   UNL     1     -10.296   2.526   1.759  0.00  0.00    -0.458 OA
ENDBRANCH  23  26
ENDBRANCH  20  22
ENDBRANCH  10  20
BRANCH   6  31
ATOM     31  O   UNL     1      -1.091   3.544   0.015  0.00  0.00    -0.405 OA
BRANCH  31  32
ATOM     32  C   UNL     1      -0.850   2.787  -1.076  0.00  0.00    +0.381 C 
ATOM     33  O   UNL     1      -1.638   2.788  -2.003  0.00  0.00    -0.241 OA
BRANCH  32  34
ATOM     34  C   UNL     1       0.358   1.963  -1.144  0.00  0.00    +0.212 A 
ATOM     35  C   UNL     1       0.722   1.154  -2.184  0.00  0.00    +0.056 A 
ATOM     36  C   UNL     1       1.944   0.564  -1.828  0.00  0.00    +0.042 A 
ATOM     37  C   UNL     1       2.269   1.032  -0.602  0.00  0.00    +0.196 A 
ATOM     38  O   UNL     1       1.312   1.874  -0.193  0.00  0.00    -0.456 OA
ENDBRANCH  32  34
ENDBRANCH  31  32
ENDBRANCH   6  31
TORSDOF 7
