REMARK  Name = ZINC35106851
REMARK  11 active torsions:
REMARK  status: ('A' for Active; 'I' for Inactive)
REMARK    1  A    between atoms: C_1  and  C_2
REMARK    2  A    between atoms: C_2  and  C_3
REMARK    3  A    between atoms: C_3  and  N_4
REMARK    4  A    between atoms: N_4  and  C_5
REMARK    5  A    between atoms: C_5  and  C_6
REMARK    6  A    between atoms: C_6  and  C_8
REMARK    7  A    between atoms: C_9  and  C_21
REMARK    8  A    between atoms: N_11  and  C_14
REMARK    9  A    between atoms: C_12  and  O_13
REMARK   10  A    between atoms: C_27  and  C_29
REMARK   11  A    between atoms: C_32  and  N_35
REMARK                            x       y       z     vdW  Elec       q    Type
REMARK                         _______ _______ _______ _____ _____    ______ ____
ROOT
ATOM      1  C   UNL     1      -1.817  -3.908   3.100  0.00  0.00    +0.108 A 
ATOM      2  C   UNL     1      -2.904  -4.297   4.010  0.00  0.00    +0.107 A 
ATOM      3  N   UNL     1      -2.361  -4.986   4.987  0.00  0.00    -0.162 NA
ATOM      4  N   UNL     1      -0.982  -5.078   4.781  0.00  0.00    -0.199 N 
ATOM      5  C   UNL     1      -0.647  -4.436   3.644  0.00  0.00    +0.227 A 
ENDROOT
BRANCH   4   6
ATOM      6  C   UNL     1      -0.084  -5.742   5.627  0.00  0.00    +0.070 A 
ATOM      7  C   UNL     1       1.017  -6.399   5.093  0.00  0.00    +0.028 A 
ATOM      8  C   UNL     1       1.901  -7.053   5.929  0.00  0.00    +0.003 A 
ATOM      9  C   UNL     1       1.692  -7.054   7.296  0.00  0.00    +0.020 A 
ATOM     10  C   UNL     1       0.596  -6.400   7.831  0.00  0.00    +0.043 A 
ATOM     11  C   UNL     1      -0.290  -5.740   7.000  0.00  0.00    +0.048 A 
ATOM     12 CL   UNL     1       0.336  -6.404   9.547  0.00  0.00    -0.083 Cl
ENDBRANCH   4   6
BRANCH   2  13
ATOM     13  C   UNL     1      -4.341  -3.973   3.854  0.00  0.00    +0.003 A 
ATOM     14  C   UNL     1      -4.966  -4.139   2.619  0.00  0.00    +0.010 A 
ATOM     15  C   UNL     1      -6.305  -3.835   2.481  0.00  0.00    +0.001 A 
ATOM     16  C   UNL     1      -7.027  -3.365   3.564  0.00  0.00    +0.000 A 
ATOM     17  C   UNL     1      -6.412  -3.198   4.791  0.00  0.00    +0.001 A 
ATOM     18  C   UNL     1      -5.075  -3.505   4.944  0.00  0.00    +0.010 A 
ENDBRANCH   2  13
BRANCH   1  19
ATOM     19  C   UNL     1      -1.935  -3.155   1.907  0.00  0.00    +0.188 C 
ATOM     20  O   UNL     1      -3.003  -2.665   1.602  0.00  0.00    -0.290 OA
BRANCH  19  21
ATOM     21  C   UNL     1      -0.735  -2.959   1.018  0.00  0.00    +0.187 C 
BRANCH  21  22
ATOM     22  N   UNL     1      -1.114  -2.150  -0.143  0.00  0.00    -0.290 N 
ATOM     23  C   UNL     1      -1.441  -2.750  -1.305  0.00  0.00    +0.247 C 
ATOM     24  O   UNL     1      -1.661  -2.079  -2.295  0.00  0.00    -0.270 OA
BRANCH  23  25
ATOM     25  C   UNL     1      -1.532  -4.224  -1.376  0.00  0.00    +0.037 A 
ATOM     26  C   UNL     1      -2.219  -4.932  -0.389  0.00  0.00    +0.015 A 
ATOM     27  C   UNL     1      -2.300  -6.307  -0.461  0.00  0.00    +0.033 A 
ATOM     28  C   UNL     1      -1.703  -6.985  -1.509  0.00  0.00    +0.126 A 
ATOM     29  C   UNL     1      -1.020  -6.289  -2.491  0.00  0.00    +0.033 A 
ATOM     30  C   UNL     1      -0.936  -4.913  -2.434  0.00  0.00    +0.015 A 
BRANCH  28  31
ATOM     31  N   UNL     1      -1.794  -8.460  -1.580  0.00  0.00    +0.056 N 
ATOM     32  O   UNL     1      -2.389  -9.071  -0.723  0.00  0.00    -0.126 OA
ATOM     33  O   UNL     1      -1.273  -9.055  -2.495  0.00  0.00    -0.126 OA
ENDBRANCH  28  31
ENDBRANCH  23  25
BRANCH  22  34
ATOM     34  C   UNL     1      -1.138  -0.689  -0.041  0.00  0.00    +0.108 C 
BRANCH  34  36
ATOM     35  C   UNL     1       0.234   1.392  -0.226  0.00  0.00    +0.005 C 
ATOM     36  C   UNL     1       0.258  -0.134  -0.332  0.00  0.00    +0.016 C 
ENDBRANCH  34  36
ENDBRANCH  22  34
ENDBRANCH  21  22
ENDBRANCH  19  21
ENDBRANCH   1  19
BRANCH   5  37
ATOM     37  O   UNL     1       0.597  -4.323   3.127  0.00  0.00    -0.492 OA
ATOM     38  H   UNL     1       1.082  -3.545   3.436  0.00  0.00    +0.294 HD
ENDBRANCH   5  37
TORSDOF 10
