REMARK  Name = ZINC20975688
REMARK  9 active torsions:
REMARK  status: ('A' for Active; 'I' for Inactive)
REMARK    1  A    between atoms: C_1  and  C_2
REMARK    2  A    between atoms: C_2  and  C_4
REMARK    3  A    between atoms: C_2  and  O_17
REMARK    4  A    between atoms: N_6  and  C_7
REMARK    5  A    between atoms: C_10  and  N_14
REMARK    6  A    between atoms: O_17  and  C_18
REMARK    7  A    between atoms: C_18  and  C_20
REMARK    8  A    between atoms: C_29  and  N_32
REMARK    9  A    between atoms: C_33  and  C_35
REMARK                            x       y       z     vdW  Elec       q    Type
REMARK                         _______ _______ _______ _____ _____    ______ ____
ROOT
ATOM      1  O   UNL     1       0.683  -0.446  -1.173  0.00  0.00    -0.452 OA
ENDROOT
BRANCH   1   3
ATOM      2  C   UNL     1      -0.003   1.541   0.020  0.00  0.00    +0.062 C 
ATOM      3  C   UNL     1       0.012   0.011   0.003  0.00  0.00    +0.259 C 
BRANCH   3   4
ATOM      4  C   UNL     1       0.735  -0.498   1.224  0.00  0.00    +0.258 C 
ATOM      5  O   UNL     1       1.776  -1.107   1.101  0.00  0.00    -0.271 OA
ATOM      6  N   UNL     1       0.223  -0.277   2.451  0.00  0.00    -0.281 N 
ATOM      7  H   UNL     1      -0.575   0.266   2.553  0.00  0.00    +0.155 HD
BRANCH   6   8
ATOM      8  C   UNL     1       0.843  -0.829   3.577  0.00  0.00    +0.052 A 
ATOM      9  C   UNL     1       2.225  -0.957   3.619  0.00  0.00    +0.027 A 
ATOM     10  C   UNL     1       2.834  -1.502   4.732  0.00  0.00    +0.034 A 
ATOM     11  C   UNL     1       2.069  -1.920   5.806  0.00  0.00    +0.128 A 
ATOM     12  C   UNL     1       0.693  -1.795   5.769  0.00  0.00    +0.054 A 
ATOM     13  C   UNL     1       0.077  -1.245   4.660  0.00  0.00    +0.064 A 
ATOM     14 CL   UNL     1      -1.650  -1.081   4.616  0.00  0.00    -0.082 Cl
BRANCH  11  15
ATOM     15  N   UNL     1       2.726  -2.504   6.997  0.00  0.00    +0.056 N 
ATOM     16  O   UNL     1       3.929  -2.615   7.031  0.00  0.00    -0.126 OA
ATOM     17  O   UNL     1       2.058  -2.871   7.936  0.00  0.00    -0.126 OA
ENDBRANCH  11  15
ENDBRANCH   6   8
ENDBRANCH   3   4
ENDBRANCH   1   3
BRANCH   1  18
ATOM     18  C   UNL     1      -0.069  -0.643  -2.267  0.00  0.00    +0.314 C 
ATOM     19  O   UNL     1      -1.259  -0.436  -2.227  0.00  0.00    -0.250 OA
BRANCH  18  20
ATOM     20  C   UNL     1       0.569  -1.125  -3.544  0.00  0.00    +0.070 C 
ATOM     21  C   UNL     1       1.623  -0.114  -3.999  0.00  0.00    +0.021 C 
ATOM     22  C   UNL     1       2.272  -0.602  -5.296  0.00  0.00    -0.008 C 
ATOM     23  C   UNL     1       2.937  -1.959  -5.055  0.00  0.00    +0.007 C 
ATOM     24  C   UNL     1       1.882  -2.970  -4.599  0.00  0.00    -0.008 C 
ATOM     25  C   UNL     1       1.234  -2.481  -3.302  0.00  0.00    +0.021 C 
ATOM     26  C   UNL     1       0.811  -3.112  -5.683  0.00  0.00    +0.029 C 
ATOM     27  C   UNL     1       0.146  -1.756  -5.924  0.00  0.00    +0.036 C 
ATOM     28  C   UNL     1       1.201  -0.745  -6.380  0.00  0.00    +0.029 C 
ATOM     29  C   UNL     1      -0.502  -1.267  -4.627  0.00  0.00    +0.043 C 
BRANCH  27  30
ATOM     30  N   UNL     1      -0.879  -1.892  -6.961  0.00  0.00    -0.310 N 
ATOM     31  C   UNL     1      -0.537  -2.312  -8.196  0.00  0.00    +0.210 C 
ATOM     32  O   UNL     1       0.619  -2.576  -8.448  0.00  0.00    -0.276 OA
ATOM     33  C   UNL     1      -1.592  -2.453  -9.263  0.00  0.00    +0.109 C 
ATOM     34  H   UNL     1      -1.804  -1.681  -6.760  0.00  0.00    +0.149 HD
ENDBRANCH  27  30
ENDBRANCH  18  20
ENDBRANCH   1  18
TORSDOF 7
