REMARK  Name = ZINC12558820
REMARK  7 active torsions:
REMARK  status: ('A' for Active; 'I' for Inactive)
REMARK    1  A    between atoms: C_1  and  N_2
REMARK    2  A    between atoms: N_11  and  C_25
REMARK    3  A    between atoms: N_14  and  N_15
REMARK    4  A    between atoms: C_16  and  C_17
REMARK    5  A    between atoms: C_20  and  O_23
REMARK    6  A    between atoms: O_23  and  C_24
REMARK    7  A    between atoms: C_25  and  C_26
REMARK                            x       y       z     vdW  Elec       q    Type
REMARK                         _______ _______ _______ _____ _____    ______ ____
ROOT
ATOM      1  C   UNL     1      -7.409   5.708   0.069  0.00  0.00    +0.155 C 
ATOM      2  N   UNL     1      -8.151   4.445   0.065  0.00  0.00    -0.280 N 
ATOM      3  C   UNL     1      -7.466   3.240   0.055  0.00  0.00    +0.170 A 
ATOM      4  C   UNL     1      -8.195   2.055   0.052  0.00  0.00    +0.153 A 
ATOM      5  C   UNL     1      -9.600   2.114   0.059  0.00  0.00    +0.280 A 
ATOM      6  O   UNL     1     -10.259   1.088   0.056  0.00  0.00    -0.265 OA
ATOM      7  N   UNL     1     -10.211   3.316   0.068  0.00  0.00    -0.273 N 
ATOM      8  H   UNL     1     -11.210   3.361   0.072  0.00  0.00    +0.173 HD
ATOM      9  C   UNL     1      -9.497   4.455   0.071  0.00  0.00    +0.331 A 
ATOM     10  O   UNL     1     -10.082   5.522   0.080  0.00  0.00    -0.246 OA
ATOM     11  N   UNL     1      -7.266   1.024   0.042  0.00  0.00    -0.301 N 
ATOM     12  C   UNL     1      -6.036   1.606   0.039  0.00  0.00    +0.218 A 
ATOM     13  N   UNL     1      -6.172   2.917   0.053  0.00  0.00    -0.195 NA
ATOM     14  N   UNL     1      -4.837   0.931   0.030  0.00  0.00    -0.206 N 
ATOM     15  H   UNL     1      -4.826  -0.039   0.025  0.00  0.00    +0.177 HD
ENDROOT
BRANCH  14  16
ATOM     16  N   UNL     1      -3.631   1.645   0.028  0.00  0.00    -0.188 NA
ATOM     17  C   UNL     1      -2.500   1.008   0.019  0.00  0.00    +0.138 C 
BRANCH  17  18
ATOM     18  C   UNL     1      -1.232   1.759   0.017  0.00  0.00    -0.005 A 
ATOM     19  C   UNL     1      -0.013   1.076   0.008  0.00  0.00    +0.013 A 
ATOM     20  C   UNL     1       1.171   1.782   0.001  0.00  0.00    +0.046 A 
ATOM     21  C   UNL     1       1.153   3.171   0.008  0.00  0.00    +0.120 A 
ATOM     22  C   UNL     1      -0.056   3.854   0.023  0.00  0.00    +0.046 A 
ATOM     23  C   UNL     1      -1.244   3.156   0.031  0.00  0.00    +0.013 A 
BRANCH  21  24
ATOM     24  O   UNL     1       2.322   3.863   0.000  0.00  0.00    -0.495 OA
ATOM     25  C   UNL     1       2.232   5.289   0.009  0.00  0.00    +0.277 C 
ENDBRANCH  21  24
ENDBRANCH  17  18
ENDBRANCH  14  16
BRANCH  11  26
ATOM     26  C   UNL     1      -7.553  -0.412   0.035  0.00  0.00    +0.160 C 
BRANCH  26  27
ATOM     27  C   UNL     1      -7.645  -0.912   1.454  0.00  0.00    -0.028 A 
ATOM     28  C   UNL     1      -6.514  -1.382   2.095  0.00  0.00    +0.006 A 
ATOM     29  C   UNL     1      -6.596  -1.837   3.398  0.00  0.00    +0.015 A 
ATOM     30  C   UNL     1      -7.813  -1.831   4.056  0.00  0.00    +0.018 A 
ATOM     31  C   UNL     1      -8.945  -1.366   3.413  0.00  0.00    +0.015 A 
ATOM     32  C   UNL     1      -8.861  -0.907   2.112  0.00  0.00    +0.006 A 
ATOM     33 BR   UNL     1      -7.927  -2.459   5.836  0.00  0.00    -0.050 Br
ENDBRANCH  26  27
ENDBRANCH  11  26
TORSDOF 5
