REMARK  Name = ZINC04729649
REMARK  6 active torsions:
REMARK  status: ('A' for Active; 'I' for Inactive)
REMARK    1  A    between atoms: C_1  and  O_2
REMARK    2  A    between atoms: O_2  and  C_3
REMARK    3  A    between atoms: C_7  and  C_9
REMARK    4  A    between atoms: C_11  and  C_23
REMARK    5  A    between atoms: C_13  and  C_16
REMARK    6  A    between atoms: C_21  and  O_22
REMARK                            x       y       z     vdW  Elec       q    Type
REMARK                         _______ _______ _______ _____ _____    ______ ____
ROOT
ATOM      1  C   UNL     1       4.128  -0.124   1.430  0.00  0.00    +0.040 C 
ATOM      2  N   UNL     1       4.372  -0.916   0.455  0.00  0.00    -0.299 NA
ATOM      3  C   UNL     1       3.604  -0.950  -0.783  0.00  0.00    +0.081 C 
ATOM      4  C   UNL     1       2.490   1.047  -0.015  0.00  0.00    -0.028 C 
ATOM      5  C   UNL     1       3.000   0.870   1.418  0.00  0.00    +0.044 C 
ATOM      6  N   UNL     1       2.300  -0.292  -0.607  0.00  0.00    +0.401 N 
ATOM      7  H   UNL     1       1.714  -0.860   0.016  0.00  0.00    -0.081 HD
ATOM      8  H   UNL     1       1.840  -0.199  -1.520  0.00  0.00    -0.081 HD
ENDROOT
BRANCH   3   9
ATOM      9  C   UNL     1       4.376  -0.242  -1.866  0.00  0.00    -0.040 A 
ATOM     10  C   UNL     1       3.703   0.377  -2.903  0.00  0.00    +0.006 A 
ATOM     11  C   UNL     1       4.410   1.032  -3.894  0.00  0.00    +0.038 A 
ATOM     12  C   UNL     1       5.794   1.056  -3.854  0.00  0.00    +0.123 A 
ATOM     13  C   UNL     1       6.468   0.431  -2.819  0.00  0.00    +0.038 A 
ATOM     14  C   UNL     1       5.758  -0.217  -1.826  0.00  0.00    +0.006 A 
ATOM     15  F   UNL     1       6.487   1.690  -4.826  0.00  0.00    -0.205 F 
ENDBRANCH   3   9
BRANCH   1  20
ATOM     16  C   UNL     1       6.860  -1.157   3.794  0.00  0.00    +0.121 A 
ATOM     17  C   UNL     1       6.619  -0.310   4.868  0.00  0.00    +0.045 A 
ATOM     18  C   UNL     1       5.573   0.593   4.821  0.00  0.00    +0.004 A 
ATOM     19  C   UNL     1       4.760   0.658   3.708  0.00  0.00    +0.010 A 
ATOM     20  C   UNL     1       4.995  -0.190   2.623  0.00  0.00    -0.001 A 
ATOM     21  C   UNL     1       6.049  -1.104   2.674  0.00  0.00    +0.055 A 
BRANCH  16  23
ATOM     22  C   UNL     1       8.684  -2.046   5.034  0.00  0.00    +0.277 C 
ATOM     23  O   UNL     1       7.890  -2.042   3.846  0.00  0.00    -0.495 OA
ENDBRANCH  16  23
ENDBRANCH   1  20
BRANCH   4  24
ATOM     24  C   UNL     1       1.175   1.782   0.000  0.00  0.00    -0.019 A 
ATOM     25  C   UNL     1      -0.013   1.076   0.008  0.00  0.00    +0.005 A 
ATOM     26  C   UNL     1      -1.219   1.750   0.017  0.00  0.00    +0.000 A 
ATOM     27  C   UNL     1      -1.242   3.133   0.030  0.00  0.00    +0.004 A 
ATOM     28  C   UNL     1      -0.057   3.844   0.022  0.00  0.00    +0.045 A 
ATOM     29  C   UNL     1       1.155   3.169   0.008  0.00  0.00    +0.118 A 
BRANCH  29  30
ATOM     30  O   UNL     1       2.322   3.866  -0.000  0.00  0.00    -0.507 OA
ATOM     31  H   UNL     1       2.651   4.073  -0.886  0.00  0.00    +0.292 HD
ENDBRANCH  29  30
ENDBRANCH   4  24
TORSDOF 5
