REMARK  Name = ZINC39637741
REMARK  5 active torsions:
REMARK  status: ('A' for Active; 'I' for Inactive)
REMARK    1  A    between atoms: C_9  and  C_12
REMARK    2  A    between atoms: C_16  and  C_25
REMARK    3  A    between atoms: N_27  and  C_28
REMARK    4  A    between atoms: C_28  and  C_29
REMARK    5  A    between atoms: C_29  and  C_30
REMARK                            x       y       z     vdW  Elec       q    Type
REMARK                         _______ _______ _______ _____ _____    ______ ____
ROOT
ATOM      1  C   UNL     1       4.584  -2.671  -0.073  0.00  0.00    +0.260 C 
ATOM      2  O   UNL     1       5.349  -1.972   0.558  0.00  0.00    -0.271 OA
ATOM      3  N   UNL     1       4.937  -3.929  -0.401  0.00  0.00    -0.297 N 
ATOM      4  C   UNL     1       4.148  -4.923  -1.166  0.00  0.00    +0.121 C 
ATOM      5  C   UNL     1       5.183  -5.634  -2.066  0.00  0.00    +0.100 C 
ATOM      6  C   UNL     1       6.528  -5.441  -1.346  0.00  0.00    -0.004 C 
ATOM      7  C   UNL     1       6.204  -4.630  -0.082  0.00  0.00    +0.115 C 
ATOM      8  C   UNL     1       7.124  -6.794  -0.968  0.00  0.00    -0.010 C 
ATOM      9  C   UNL     1       8.487  -6.579  -0.306  0.00  0.00    -0.082 C 
ATOM     10  N   UNL     1       9.378  -5.871  -1.233  0.00  0.00    +0.379 N 
ATOM     11  C   UNL     1       8.844  -4.534  -1.518  0.00  0.00    -0.082 C 
ATOM     12  C   UNL     1       7.495  -4.662  -2.232  0.00  0.00    -0.010 C 
ATOM     13  H   UNL     1      10.294  -5.784  -0.818  0.00  0.00    -0.086 HD
ATOM     14  H   UNL     1       9.450  -6.393  -2.093  0.00  0.00    -0.086 HD
ENDROOT
BRANCH   1  23
ATOM     15  C   UNL     1      -0.634   0.941  -0.212  0.00  0.00    +0.004 A 
ATOM     16  C   UNL     1       0.491   1.744  -0.178  0.00  0.00    +0.004 A 
ATOM     17  C   UNL     1       1.749   1.172  -0.144  0.00  0.00    +0.049 A 
ATOM     18  C   UNL     1       1.886  -0.208  -0.145  0.00  0.00    +0.163 A 
ATOM     19  C   UNL     1       0.755  -1.014  -0.182  0.00  0.00    +0.162 A 
ATOM     20  C   UNL     1      -0.505  -0.435  -0.214  0.00  0.00    +0.049 A 
ATOM     21  O   UNL     1       0.867  -2.371  -0.192  0.00  0.00    -0.484 OA
ATOM     22  C   UNL     1       2.126  -2.916   0.215  0.00  0.00    +0.283 C 
ATOM     23  C   UNL     1       3.240  -2.131  -0.490  0.00  0.00    +0.296 C 
ATOM     24  O   UNL     1       3.131  -0.756  -0.108  0.00  0.00    -0.473 OA
ENDBRANCH   1  23
BRANCH   5  25
ATOM     25  C   UNL     1       5.219  -4.993  -3.430  0.00  0.00    +0.218 C 
ATOM     26  O   UNL     1       4.965  -3.814  -3.553  0.00  0.00    -0.275 OA
ATOM     27  N   UNL     1       5.534  -5.731  -4.513  0.00  0.00    -0.315 N 
ATOM     28  H   UNL     1       5.738  -6.675  -4.415  0.00  0.00    +0.149 HD
BRANCH  27  29
ATOM     29  C   UNL     1       5.569  -5.109  -5.839  0.00  0.00    +0.109 C 
BRANCH  29  30
ATOM     30  C   UNL     1       5.951  -6.158  -6.885  0.00  0.00    +0.054 C 
BRANCH  30  31
ATOM     31  C   UNL     1       5.987  -5.517  -8.248  0.00  0.00    -0.043 A 
ATOM     32  C   UNL     1       4.845  -5.484  -9.027  0.00  0.00    +0.004 A 
ATOM     33  C   UNL     1       4.877  -4.897 -10.278  0.00  0.00    +0.003 A 
ATOM     34  C   UNL     1       6.051  -4.342 -10.752  0.00  0.00    +0.038 A 
ATOM     35  C   UNL     1       7.195  -4.375  -9.973  0.00  0.00    +0.124 A 
ATOM     36  C   UNL     1       7.160  -4.958  -8.718  0.00  0.00    +0.042 A 
ATOM     37  F   UNL     1       8.343  -3.833 -10.436  0.00  0.00    -0.205 F 
ENDBRANCH  30  31
ENDBRANCH  29  30
ENDBRANCH  27  29
ENDBRANCH   5  25
TORSDOF 5
