REMARK  Name = ZINC09051389
REMARK  9 active torsions:
REMARK  status: ('A' for Active; 'I' for Inactive)
REMARK    1  A    between atoms: C_1  and  N_53
REMARK    2  A    between atoms: C_2  and  C_3
REMARK    3  A    between atoms: C_2  and  N_53
REMARK    4  A    between atoms: C_9  and  C_10
REMARK    5  A    between atoms: C_9  and  N_53
REMARK    6  A    between atoms: C_11  and  O_30
REMARK    7  A    between atoms: C_18  and  C_19
REMARK    8  A    between atoms: C_24  and  O_25
REMARK    9  A    between atoms: O_25  and  C_26
REMARK                            x       y       z     vdW  Elec       q    Type
REMARK                         _______ _______ _______ _____ _____    ______ ____
ROOT
ATOM      1  C   UNL     1      -1.599   2.054   0.726  0.00  0.00    +0.020 A 
ATOM      2  C   UNL     1      -1.356   3.318   1.240  0.00  0.00    +0.122 A 
ATOM      3  C   UNL     1      -1.855   3.684   2.486  0.00  0.00    +0.046 A 
ATOM      4  C   UNL     1      -2.584   2.793   3.222  0.00  0.00    +0.019 A 
ATOM      5  C   UNL     1      -2.833   1.515   2.720  0.00  0.00    +0.068 A 
ATOM      6  C   UNL     1      -2.338   1.136   1.461  0.00  0.00    +0.144 A 
ATOM      7  O   UNL     1      -2.704  -0.136   1.193  0.00  0.00    -0.451 OA
ATOM      8  C   UNL     1      -3.432  -0.673   2.200  0.00  0.00    +0.176 C 
ATOM      9  C   UNL     1      -3.948  -1.929   2.235  0.00  0.00    +0.061 C 
ATOM     10  C   UNL     1      -3.564   0.349   3.247  0.00  0.00    +0.231 C 
ATOM     11  O   UNL     1      -4.148   0.254   4.313  0.00  0.00    -0.283 OA
ENDROOT
BRANCH   9  12
ATOM     12  C   UNL     1      -3.769  -2.828   1.089  0.00  0.00    +0.021 A 
ATOM     13  C   UNL     1      -2.783  -2.561   0.131  0.00  0.00    +0.027 A 
ATOM     14  C   UNL     1      -2.621  -3.411  -0.942  0.00  0.00    +0.019 A 
ATOM     15  C   UNL     1      -3.429  -4.529  -1.077  0.00  0.00    +0.019 A 
ATOM     16  C   UNL     1      -4.405  -4.805  -0.139  0.00  0.00    +0.047 A 
ATOM     17  C   UNL     1      -4.581  -3.966   0.950  0.00  0.00    +0.127 A 
ATOM     18 BR   UNL     1      -1.290  -3.050  -2.235  0.00  0.00    -0.050 Br
BRANCH  17  19
ATOM     19  O   UNL     1      -5.536  -4.240   1.874  0.00  0.00    -0.495 OA
ATOM     20  C   UNL     1      -6.323  -5.414   1.666  0.00  0.00    +0.277 C 
ENDBRANCH  17  19
ENDBRANCH   9  12
BRANCH   2  21
ATOM     21  O   UNL     1      -0.628   4.208   0.519  0.00  0.00    -0.506 OA
ATOM     22  H   UNL     1      -1.157   4.764  -0.070  0.00  0.00    +0.292 HD
ENDBRANCH   2  21
BRANCH   1  23
ATOM     23  C   UNL     1      -1.056   1.674  -0.627  0.00  0.00    -0.035 C 
BRANCH  23  25
ATOM     24  C   UNL     1      -2.232   3.463  -1.758  0.00  0.00    -0.095 C 
ATOM     25  N   UNL     1      -2.068   1.998  -1.655  0.00  0.00    +0.383 N 
ATOM     26  H   UNL     1      -2.966   1.581  -1.383  0.00  0.00    -0.081 HD
BRANCH  25  27
ATOM     27  C   UNL     1      -1.657   1.443  -2.962  0.00  0.00    -0.043 C 
BRANCH  27  28
ATOM     28  C   UNL     1      -2.798   1.593  -3.934  0.00  0.00    -0.064 A 
ATOM     29  C   UNL     1      -3.747   0.594  -4.047  0.00  0.00    +0.002 A 
ATOM     30  C   UNL     1      -4.796   0.734  -4.936  0.00  0.00    +0.000 A 
ATOM     31  C   UNL     1      -4.891   1.869  -5.720  0.00  0.00    +0.000 A 
ATOM     32  C   UNL     1      -3.939   2.866  -5.611  0.00  0.00    +0.000 A 
ATOM     33  C   UNL     1      -2.893   2.728  -4.718  0.00  0.00    +0.002 A 
ENDBRANCH  27  28
ENDBRANCH  25  27
ENDBRANCH  23  25
ENDBRANCH   1  23
TORSDOF 7
