REMARK  Name = ZINC05000150
REMARK  6 active torsions:
REMARK  status: ('A' for Active; 'I' for Inactive)
REMARK    1  A    between atoms: C_4  and  N_7
REMARK    2  A    between atoms: C_12  and  O_29
REMARK    3  A    between atoms: C_15  and  C_17
REMARK    4  A    between atoms: N_19  and  C_20
REMARK    5  A    between atoms: C_20  and  C_21
REMARK    6  A    between atoms: C_21  and  C_22
REMARK                            x       y       z     vdW  Elec       q    Type
REMARK                         _______ _______ _______ _____ _____    ______ ____
ROOT
ATOM      1  N   UNL     1       3.622  -0.651  -0.036  0.00  0.00    -0.269 N 
ATOM      2  C   UNL     1       3.645  -1.995   0.058  0.00  0.00    +0.307 C 
ATOM      3  O   UNL     1       2.603  -2.622   0.065  0.00  0.00    -0.252 OA
ATOM      4  N   UNL     1       4.823  -2.644   0.144  0.00  0.00    -0.271 N 
ATOM      5  C   UNL     1       6.150  -2.013   0.153  0.00  0.00    +0.141 C 
ATOM      6  C   UNL     1       7.193  -3.142   0.294  0.00  0.00    +0.134 C 
ATOM      7  C   UNL     1       6.372  -4.297   0.925  0.00  0.00    +0.065 C 
ATOM      8  C   UNL     1       4.993  -4.105   0.252  0.00  0.00    +0.166 C 
ATOM      9  H   UNL     1       4.452  -0.155  -0.110  0.00  0.00    +0.156 HD
ENDROOT
BRANCH   1  13
ATOM     10  C   UNL     1      -0.018   1.377  -0.014  0.00  0.00    +0.000 A 
ATOM     11  C   UNL     1       1.092   1.944   0.587  0.00  0.00    +0.002 A 
ATOM     12  C   UNL     1       2.300   1.274   0.581  0.00  0.00    +0.023 A 
ATOM     13  C   UNL     1       2.399   0.030  -0.029  0.00  0.00    +0.035 A 
ATOM     14  C   UNL     1       1.283  -0.536  -0.631  0.00  0.00    +0.023 A 
ATOM     15  C   UNL     1       0.078   0.139  -0.622  0.00  0.00    +0.002 A 
ENDBRANCH   1  13
BRANCH   8  16
ATOM     16  C   UNL     1       3.904  -4.698   1.108  0.00  0.00    +0.234 C 
ATOM     17  O   UNL     1       3.266  -3.988   1.856  0.00  0.00    -0.274 OA
ATOM     18  N   UNL     1       3.638  -6.018   1.042  0.00  0.00    -0.313 N 
ATOM     19  H   UNL     1       4.148  -6.586   0.443  0.00  0.00    +0.149 HD
BRANCH  18  20
ATOM     20  C   UNL     1       2.579  -6.595   1.874  0.00  0.00    +0.109 C 
BRANCH  20  21
ATOM     21  C   UNL     1       2.485  -8.098   1.609  0.00  0.00    +0.056 C 
BRANCH  21  22
ATOM     22  C   UNL     1       1.395  -8.692   2.465  0.00  0.00    -0.011 A 
ATOM     23  C   UNL     1       1.707  -9.256   3.688  0.00  0.00    +0.006 A 
ATOM     24  C   UNL     1       0.708  -9.800   4.473  0.00  0.00    +0.000 A 
ATOM     25  C   UNL     1      -0.604  -9.781   4.036  0.00  0.00    +0.003 A 
ATOM     26  C   UNL     1      -0.918  -9.217   2.814  0.00  0.00    +0.038 A 
ATOM     27  C   UNL     1       0.082  -8.667   2.029  0.00  0.00    +0.127 A 
ATOM     28  F   UNL     1      -0.225  -8.111   0.837  0.00  0.00    -0.205 F 
ENDBRANCH  21  22
ENDBRANCH  20  21
ENDBRANCH  18  20
ENDBRANCH   8  16
BRANCH   6  29
ATOM     29  O   UNL     1       8.258  -2.742   1.160  0.00  0.00    -0.390 OA
ATOM     30  H   UNL     1       8.753  -1.974   0.845  0.00  0.00    +0.210 HD
ENDBRANCH   6  29
TORSDOF 6
