REMARK  Name = ZINC05589022
REMARK  2 active torsions:
REMARK  status: ('A' for Active; 'I' for Inactive)
REMARK    1  A    between atoms: C_3  and  C_8
REMARK    2  A    between atoms: C_21  and  N_24
REMARK                            x       y       z     vdW  Elec       q    Type
REMARK                         _______ _______ _______ _____ _____    ______ ____
ROOT
ATOM      1  C   UNL     1       1.360  -0.161   2.131  0.00  0.00    +0.105 C 
ATOM      2  C   UNL     1       1.770  -0.092   0.641  0.00  0.00    +0.029 C 
ATOM      3  C   UNL     1       2.712   1.130   0.449  0.00  0.00    +0.033 C 
ATOM      4  C   UNL     1       1.756   2.302   0.342  0.00  0.00    -0.030 C 
ATOM      5  C   UNL     1       0.562   1.891  -0.004  0.00  0.00    -0.023 C 
ATOM      6  C   UNL     1       0.546   0.389  -0.169  0.00  0.00    +0.049 C 
ATOM      7  C   UNL     1      -0.737  -0.187   0.351  0.00  0.00    -0.017 A 
ATOM      8  C   UNL     1      -1.894   0.027  -0.386  0.00  0.00    +0.006 A 
ATOM      9  C   UNL     1      -3.105  -0.475   0.043  0.00  0.00    +0.003 A 
ATOM     10  C   UNL     1      -3.176  -1.199   1.219  0.00  0.00    +0.034 A 
ATOM     11  C   UNL     1      -2.033  -1.419   1.958  0.00  0.00    +0.147 A 
ATOM     12  C   UNL     1      -0.807  -0.915   1.527  0.00  0.00    +0.062 A 
ATOM     13  N   UNL     1       0.318  -1.173   2.309  0.00  0.00    -0.335 N 
ATOM     14  H   UNL     1       0.069  -1.268   3.282  0.00  0.00    +0.147 HD
ENDROOT
BRANCH   1  17
ATOM     15  C   UNL     1       1.238   3.430   3.291  0.00  0.00    +0.001 A 
ATOM     16  C   UNL     1       1.718   2.197   2.892  0.00  0.00    +0.005 A 
ATOM     17  C   UNL     1       0.836   1.182   2.571  0.00  0.00    -0.026 A 
ATOM     18  C   UNL     1      -0.527   1.397   2.658  0.00  0.00    +0.020 A 
ATOM     19  C   UNL     1      -1.008   2.630   3.062  0.00  0.00    +0.018 A 
ATOM     20  C   UNL     1      -0.125   3.646   3.379  0.00  0.00    +0.015 A 
ATOM     21 BR   UNL     1      -2.872   2.924   3.183  0.00  0.00    -0.050 Br
ENDBRANCH   1  17
BRANCH  11  22
ATOM     22  N   UNL     1      -2.109  -2.195   3.216  0.00  0.00    +0.058 N 
ATOM     23  O   UNL     1      -1.206  -2.955   3.518  0.00  0.00    -0.126 OA
ATOM     24  O   UNL     1      -3.073  -2.073   3.950  0.00  0.00    -0.126 OA
ENDBRANCH  11  22
TORSDOF 2
