REMARK  Name = ZINC43187710
REMARK  7 active torsions:
REMARK  status: ('A' for Active; 'I' for Inactive)
REMARK    1  A    between atoms: C_1  and  C_2
REMARK    2  A    between atoms: C_2  and  C_4
REMARK    3  A    between atoms: C_2  and  N_11
REMARK    4  A    between atoms: N_14  and  C_15
REMARK    5  A    between atoms: C_15  and  C_16
REMARK    6  A    between atoms: N_20  and  C_22
REMARK    7  A    between atoms: C_22  and  C_23
REMARK                            x       y       z     vdW  Elec       q    Type
REMARK                         _______ _______ _______ _____ _____    ______ ____
ROOT
ATOM      1  N   UNL     1       0.711  -0.489   1.189  0.00  0.00    -0.293 N 
ATOM      2  C   UNL     1       2.054  -0.600   1.174  0.00  0.00    +0.300 C 
ATOM      3  O   UNL     1       2.677  -0.297   0.175  0.00  0.00    -0.253 OA
ATOM      4  N   UNL     1       2.706  -1.046   2.266  0.00  0.00    -0.299 N 
ATOM      5  H   UNL     1       0.213  -0.731   1.986  0.00  0.00    +0.151 HD
ATOM      6  H   UNL     1       2.208  -1.288   3.062  0.00  0.00    +0.150 HD
ENDROOT
BRANCH   1   8
ATOM      7  C   UNL     1      -0.019   1.526   0.010  0.00  0.00    +0.033 C 
ATOM      8  C   UNL     1       0.002  -0.004   0.002  0.00  0.00    +0.102 C 
BRANCH   8   9
ATOM      9  C   UNL     1      -1.412  -0.526   0.013  0.00  0.00    -0.027 A 
ATOM     10  C   UNL     1      -2.123  -0.571   1.198  0.00  0.00    +0.006 A 
ATOM     11  C   UNL     1      -3.420  -1.049   1.208  0.00  0.00    +0.015 A 
ATOM     12  C   UNL     1      -4.006  -1.482   0.032  0.00  0.00    +0.018 A 
ATOM     13  C   UNL     1      -3.294  -1.437  -1.153  0.00  0.00    +0.015 A 
ATOM     14  C   UNL     1      -1.999  -0.954  -1.163  0.00  0.00    +0.006 A 
ATOM     15 BR   UNL     1      -5.780  -2.136   0.046  0.00  0.00    -0.050 Br
ENDBRANCH   8   9
ENDBRANCH   1   8
BRANCH   4  16
ATOM     16  C   UNL     1       4.166  -1.166   2.249  0.00  0.00    +0.107 C 
BRANCH  16  17
ATOM     17  C   UNL     1       4.649  -1.692   3.602  0.00  0.00    -0.012 C 
ATOM     18  C   UNL     1       4.457  -0.626   4.713  0.00  0.00    -0.016 C 
ATOM     19  C   UNL     1       5.542  -0.999   5.745  0.00  0.00    -0.078 C 
ATOM     20  N   UNL     1       6.574  -1.774   5.032  0.00  0.00    +0.386 N 
ATOM     21  C   UNL     1       6.188  -1.876   3.608  0.00  0.00    -0.074 C 
ATOM     22  H   UNL     1       6.642  -2.698   5.432  0.00  0.00    -0.081 HD
BRANCH  20  23
ATOM     23  C   UNL     1       7.871  -1.093   5.144  0.00  0.00    +0.036 C 
BRANCH  23  24
ATOM     24  C   UNL     1       8.332  -1.113   6.603  0.00  0.00    +0.376 C 
ATOM     25  F   UNL     1       8.463  -2.438   7.033  0.00  0.00    -0.173 F 
ATOM     26  F   UNL     1       9.567  -0.464   6.711  0.00  0.00    -0.173 F 
ATOM     27  F   UNL     1       7.389  -0.455   7.400  0.00  0.00    -0.173 F 
ENDBRANCH  23  24
ENDBRANCH  20  23
ENDBRANCH  16  17
ENDBRANCH   4  16
TORSDOF 6
