REMARK  Name = ZINC22470550
REMARK  6 active torsions:
REMARK  status: ('A' for Active; 'I' for Inactive)
REMARK    1  A    between atoms: C_11  and  C_13
REMARK    2  A    between atoms: N_15  and  C_16
REMARK    3  A    between atoms: C_16  and  C_17
REMARK    4  A    between atoms: C_17  and  N_18
REMARK    5  A    between atoms: C_19  and  C_21
REMARK    6  A    between atoms: C_22  and  C_23
REMARK                            x       y       z     vdW  Elec       q    Type
REMARK                         _______ _______ _______ _____ _____    ______ ____
ROOT
ATOM      1  C   UNL     1       4.980  -2.570  -0.058  0.00  0.00    +0.280 C 
ATOM      2  O   UNL     1       5.059  -3.782  -0.065  0.00  0.00    -0.267 OA
ATOM      3  N   UNL     1       6.102  -1.822  -0.065  0.00  0.00    -0.307 N 
ATOM      4  H   UNL     1       6.039  -0.854  -0.060  0.00  0.00    +0.149 HD
ENDROOT
BRANCH   1  15
ATOM      5  C   UNL     1      -0.017   1.375   0.010  0.00  0.00    +0.001 A 
ATOM      6  C   UNL     1       1.169   2.097   0.002  0.00  0.00    +0.002 A 
ATOM      7  C   UNL     1       2.387   1.455  -0.013  0.00  0.00    +0.028 A 
ATOM      8  C   UNL     1       2.432   0.057  -0.021  0.00  0.00    +0.079 A 
ATOM      9  C   UNL     1       1.222  -0.674  -0.013  0.00  0.00    +0.065 A 
ATOM     10  C   UNL     1       0.002  -0.004   0.002  0.00  0.00    +0.015 A 
ATOM     11  C   UNL     1       1.300  -2.144  -0.021  0.00  0.00    +0.260 A 
ATOM     12  O   UNL     1       0.295  -2.831  -0.016  0.00  0.00    -0.267 OA
ATOM     13  N   UNL     1       2.533  -2.703  -0.035  0.00  0.00    -0.303 N 
ATOM     14  H   UNL     1       2.625  -3.668  -0.041  0.00  0.00    +0.171 HD
ATOM     15  C   UNL     1       3.651  -1.912  -0.043  0.00  0.00    +0.197 A 
ATOM     16  N   UNL     1       3.603  -0.609  -0.035  0.00  0.00    -0.225 NA
ENDBRANCH   1  15
BRANCH   3  17
ATOM     17  C   UNL     1       7.415  -2.471  -0.081  0.00  0.00    +0.123 C 
BRANCH  17  18
ATOM     18  C   UNL     1       8.511  -1.404  -0.086  0.00  0.00    +0.123 C 
BRANCH  18  19
ATOM     19  N   UNL     1       9.825  -2.053  -0.102  0.00  0.00    -0.310 N 
ATOM     20  C   UNL     1      10.946  -1.306  -0.109  0.00  0.00    +0.237 C 
ATOM     21  O   UNL     1      10.868  -0.091  -0.103  0.00  0.00    -0.271 OA
ATOM     22  H   UNL     1       9.887  -3.021  -0.107  0.00  0.00    +0.149 HD
BRANCH  20  23
ATOM     23  C   UNL     1      12.258  -1.955  -0.124  0.00  0.00    +0.068 C 
ATOM     24  C   UNL     1      13.380  -1.206  -0.132  0.00  0.00    +0.013 C 
BRANCH  24  25
ATOM     25  C   UNL     1      14.699  -1.859  -0.147  0.00  0.00    -0.025 A 
ATOM     26  C   UNL     1      14.793  -3.254  -0.160  0.00  0.00    +0.009 A 
ATOM     27  C   UNL     1      16.032  -3.858  -0.175  0.00  0.00    +0.020 A 
ATOM     28  C   UNL     1      17.182  -3.087  -0.177  0.00  0.00    +0.041 A 
ATOM     29  C   UNL     1      17.097  -1.704  -0.164  0.00  0.00    +0.020 A 
ATOM     30  C   UNL     1      15.865  -1.086  -0.155  0.00  0.00    +0.009 A 
ATOM     31 CL   UNL     1      18.738  -3.856  -0.196  0.00  0.00    -0.084 Cl
ENDBRANCH  24  25
ENDBRANCH  20  23
ENDBRANCH  18  19
ENDBRANCH  17  18
ENDBRANCH   3  17
TORSDOF 6
