REMARK  Name = ZINC04453080
REMARK  7 active torsions:
REMARK  status: ('A' for Active; 'I' for Inactive)
REMARK    1  A    between atoms: C_1  and  C_2
REMARK    2  A    between atoms: C_2  and  O_3
REMARK    3  A    between atoms: O_3  and  C_4
REMARK    4  A    between atoms: C_7  and  C_10
REMARK    5  A    between atoms: C_17  and  N_28
REMARK    6  A    between atoms: C_18  and  C_26
REMARK    7  A    between atoms: C_19  and  C_21
REMARK                            x       y       z     vdW  Elec       q    Type
REMARK                         _______ _______ _______ _____ _____    ______ ____
ROOT
ATOM      1  C   UNL     1       1.108  -6.021  -1.845  0.00  0.00    +0.100 A 
ATOM      2  C   UNL     1       1.068  -6.708  -3.061  0.00  0.00    +0.055 A 
ATOM      3  C   UNL     1       1.210  -8.040  -2.799  0.00  0.00    +0.223 A 
ATOM      4  N   UNL     1       1.334  -8.184  -1.463  0.00  0.00    -0.246 N 
ATOM      5  H   UNL     1       1.448  -9.022  -0.988  0.00  0.00    +0.192 HD
ATOM      6  N   UNL     1       1.273  -6.908  -0.882  0.00  0.00    -0.171 NA
ATOM      7  O   UNL     1       1.216  -8.982  -3.775  0.00  0.00    -0.423 OA
ATOM      8  C   UNL     1       1.353  -8.561  -5.049  0.00  0.00    +0.200 C 
ATOM      9  C   UNL     1       1.222  -7.271  -5.433  0.00  0.00    +0.099 C 
ATOM     10  C   UNL     1       0.901  -6.167  -4.457  0.00  0.00    +0.108 C 
ENDROOT
BRANCH   1  14
ATOM     11  C   UNL     1       0.777  -1.810  -1.336  0.00  0.00    +0.121 A 
ATOM     12  C   UNL     1       0.241  -2.667  -0.384  0.00  0.00    +0.046 A 
ATOM     13  C   UNL     1       0.347  -4.032  -0.546  0.00  0.00    +0.013 A 
ATOM     14  C   UNL     1       0.992  -4.552  -1.667  0.00  0.00    +0.003 A 
ATOM     15  C   UNL     1       1.528  -3.689  -2.622  0.00  0.00    +0.013 A 
ATOM     16  C   UNL     1       1.415  -2.324  -2.457  0.00  0.00    +0.046 A 
BRANCH  11  17
ATOM     17  O   UNL     1       0.671  -0.465  -1.174  0.00  0.00    -0.492 OA
BRANCH  17  19
ATOM     18  C   UNL     1      -0.019   1.526   0.010  0.00  0.00    +0.048 C 
ATOM     19  C   UNL     1       0.002  -0.004   0.002  0.00  0.00    +0.225 C 
ENDBRANCH  17  19
ENDBRANCH  11  17
ENDBRANCH   1  14
BRANCH  10  20
ATOM     20  C   UNL     1      -0.521  -5.708  -4.658  0.00  0.00    +0.003 A 
ATOM     21  C   UNL     1      -0.983  -4.474  -4.975  0.00  0.00    +0.012 A 
ATOM     22  C   UNL     1      -2.345  -4.282  -5.111  0.00  0.00    +0.008 A 
ATOM     23  C   UNL     1      -3.178  -5.335  -4.924  0.00  0.00    +0.045 A 
ATOM     24  S   UNL     1      -2.032  -6.651  -4.549  0.00  0.00    -0.101 S 
ENDBRANCH  10  20
BRANCH   8  25
ATOM     25  N   UNL     1       1.643  -9.496  -6.011  0.00  0.00    -0.328 N 
ATOM     26  H   UNL     1       1.743 -10.429  -5.766  0.00  0.00    +0.145 HD
ATOM     27  H   UNL     1       1.747  -9.223  -6.936  0.00  0.00    +0.145 HD
ENDBRANCH   8  25
BRANCH   9  28
ATOM     28  C   UNL     1       1.395  -6.943  -6.816  0.00  0.00    +0.101 C 
ATOM     29  N   UNL     1       1.533  -6.682  -7.913  0.00  0.00    -0.191 NA
ENDBRANCH   9  28
TORSDOF 6
