REMARK  Name = ZINC40735186
REMARK  8 active torsions:
REMARK  status: ('A' for Active; 'I' for Inactive)
REMARK    1  A    between atoms: C_1  and  C_2
REMARK    2  A    between atoms: C_7  and  C_9
REMARK    3  A    between atoms: C_7  and  C_10
REMARK    4  A    between atoms: C_14  and  N_30
REMARK    5  A    between atoms: C_15  and  N_19
REMARK    6  A    between atoms: N_19  and  N_20
REMARK    7  A    between atoms: C_21  and  C_23
REMARK    8  A    between atoms: C_23  and  C_24
REMARK                            x       y       z     vdW  Elec       q    Type
REMARK                         _______ _______ _______ _____ _____    ______ ____
ROOT
ATOM      1  C   UNL     1       0.390   0.170   1.982  0.00  0.00    +0.013 C 
ATOM      2  C   UNL     1      -0.016  -1.292   1.740  0.00  0.00    -0.014 C 
ATOM      3  C   UNL     1       0.948  -2.020   0.763  0.00  0.00    +0.030 C 
ATOM      4  C   UNL     1       0.048  -3.211   0.351  0.00  0.00    +0.076 C 
ATOM      5  C   UNL     1       0.035  -4.194   1.519  0.00  0.00    +0.029 C 
ATOM      6  C   UNL     1      -0.396  -3.579   2.838  0.00  0.00    -0.033 C 
ATOM      7  C   UNL     1      -0.060  -2.112   3.029  0.00  0.00    +0.014 C 
ATOM      8  C   UNL     1       0.326  -4.363   3.963  0.00  0.00    +0.011 C 
ATOM      9  C   UNL     1      -1.900  -3.807   3.049  0.00  0.00    +0.011 C 
ATOM     10  N   UNL     1      -1.301  -2.631   0.193  0.00  0.00    -0.310 N 
ATOM     11  C   UNL     1      -1.374  -1.412   1.014  0.00  0.00    +0.113 C 
ATOM     12  C   UNL     1      -2.322  -3.140  -0.601  0.00  0.00    +0.148 A 
ATOM     13  C   UNL     1      -3.591  -2.559  -0.582  0.00  0.00    +0.107 A 
ATOM     14  C   UNL     1      -4.580  -3.109  -1.399  0.00  0.00    +0.161 A 
ATOM     15  N   UNL     1      -4.278  -4.159  -2.159  0.00  0.00    -0.217 NA
ATOM     16  C   UNL     1      -3.067  -4.678  -2.146  0.00  0.00    +0.225 A 
ATOM     17  N   UNL     1      -2.103  -4.186  -1.394  0.00  0.00    -0.219 NA
ENDROOT
BRANCH  13  18
ATOM     18  N   UNL     1      -3.865  -1.450   0.236  0.00  0.00    -0.353 N 
ATOM     19  H   UNL     1      -3.183  -0.777   0.386  0.00  0.00    +0.143 HD
ATOM     20  H   UNL     1      -4.737  -1.358   0.652  0.00  0.00    +0.143 HD
ENDBRANCH  13  18
BRANCH  14  21
ATOM     21  N   UNL     1      -5.860  -2.569  -1.419  0.00  0.00    -0.247 N 
ATOM     22  H   UNL     1      -6.072  -1.803  -0.862  0.00  0.00    +0.172 HD
BRANCH  21  23
ATOM     23  N   UNL     1      -6.845  -3.130  -2.243  0.00  0.00    -0.235 N 
ATOM     24  C   UNL     1      -8.086  -2.606  -2.261  0.00  0.00    +0.233 C 
ATOM     25  O   UNL     1      -8.351  -1.649  -1.565  0.00  0.00    -0.274 OA
ATOM     26  H   UNL     1      -6.633  -3.895  -2.799  0.00  0.00    +0.173 HD
BRANCH  24  27
ATOM     27  C   UNL     1      -9.145  -3.209  -3.148  0.00  0.00    +0.132 C 
BRANCH  27  28
ATOM     28  C   UNL     1     -10.433  -2.444  -2.984  0.00  0.00    -0.039 A 
ATOM     29  C   UNL     1     -11.345  -2.825  -2.017  0.00  0.00    +0.004 A 
ATOM     30  C   UNL     1     -12.527  -2.124  -1.867  0.00  0.00    +0.000 A 
ATOM     31  C   UNL     1     -12.796  -1.041  -2.683  0.00  0.00    +0.000 A 
ATOM     32  C   UNL     1     -11.884  -0.659  -3.648  0.00  0.00    +0.000 A 
ATOM     33  C   UNL     1     -10.700  -1.358  -3.796  0.00  0.00    +0.004 A 
ENDBRANCH  27  28
ENDBRANCH  24  27
ENDBRANCH  21  23
ENDBRANCH  14  21
TORSDOF 5
