REMARK  Name = ZINC47508925
REMARK  2 active torsions:
REMARK  status: ('A' for Active; 'I' for Inactive)
REMARK    1  A    between atoms: C_6  and  S_11
REMARK    2  A    between atoms: S_11  and  N_14
REMARK                            x       y       z     vdW  Elec       q    Type
REMARK                         _______ _______ _______ _____ _____    ______ ____
ROOT
ATOM      1  N   UNL     1       5.650  -3.114   1.514  0.00  0.00    -0.174 NA
ATOM      2  C   UNL     1       6.501  -2.138   2.209  0.00  0.00    +0.128 C 
ATOM      3  C   UNL     1       5.787  -1.691   3.491  0.00  0.00    +0.123 C 
ATOM      4  N   UNL     1       5.338  -2.886   4.220  0.00  0.00    -0.311 N 
ATOM      5  C   UNL     1       4.486  -3.861   3.524  0.00  0.00    +0.123 C 
ATOM      6  C   UNL     1       5.195  -4.305   2.244  0.00  0.00    +0.128 C 
ATOM      7  C   UNL     1       5.710  -3.089   5.538  0.00  0.00    +0.150 A 
ATOM      8  C   UNL     1       4.951  -2.559   6.584  0.00  0.00    +0.125 A 
ATOM      9  C   UNL     1       5.370  -2.793   7.904  0.00  0.00    +0.183 A 
ATOM     10  N   UNL     1       4.479  -2.184   8.710  0.00  0.00    -0.216 NA
ATOM     11  C   UNL     1       3.559  -1.603   7.990  0.00  0.00    +0.199 A 
ATOM     12  N   UNL     1       3.802  -1.803   6.675  0.00  0.00    -0.340 N 
ATOM     13  H   UNL     1       3.268  -1.475   5.935  0.00  0.00    +0.167 HD
ATOM     14  N   UNL     1       6.477  -3.513   8.108  0.00  0.00    -0.214 NA
ATOM     15  C   UNL     1       7.160  -3.992   7.092  0.00  0.00    +0.225 A 
ATOM     16  N   UNL     1       6.795  -3.798   5.837  0.00  0.00    -0.219 NA
ENDROOT
BRANCH   1  17
ATOM     17  S   UNL     1       5.205  -2.870  -0.063  0.00  0.00    +0.061 S 
ATOM     18  O   UNL     1       4.897  -4.149  -0.600  0.00  0.00    -0.153 OA
ATOM     19  O   UNL     1       6.188  -2.019  -0.636  0.00  0.00    -0.153 OA
BRANCH  17  25
ATOM     20  C   UNL     1       0.143   1.534  -0.008  0.00  0.00    +0.001 A 
ATOM     21  C   UNL     1       1.359   2.215  -0.032  0.00  0.00    +0.001 A 
ATOM     22  C   UNL     1       2.540   1.540  -0.048  0.00  0.00    +0.008 A 
ATOM     23  C   UNL     1       2.538   0.135  -0.039  0.00  0.00    -0.016 A 
ATOM     24  C   UNL     1       3.738  -0.597  -0.053  0.00  0.00    +0.037 A 
ATOM     25  C   UNL     1       3.698  -1.957  -0.044  0.00  0.00    +0.106 A 
ATOM     26  C   UNL     1       2.482  -2.639  -0.019  0.00  0.00    +0.029 A 
ATOM     27  C   UNL     1       1.301  -1.964  -0.004  0.00  0.00    +0.010 A 
ATOM     28  C   UNL     1       1.302  -0.558  -0.014  0.00  0.00    -0.018 A 
ATOM     29  C   UNL     1       0.103   0.173   0.001  0.00  0.00    +0.008 A 
ENDBRANCH  17  25
ENDBRANCH   1  17
TORSDOF 2
