REMARK  Name = ZINC38535531
REMARK  4 active torsions:
REMARK  status: ('A' for Active; 'I' for Inactive)
REMARK    1  A    between atoms: N_9  and  C_10
REMARK    2  A    between atoms: C_10  and  C_11
REMARK    3  A    between atoms: N_14  and  C_17
REMARK    4  A    between atoms: C_17  and  C_18
REMARK                            x       y       z     vdW  Elec       q    Type
REMARK                         _______ _______ _______ _____ _____    ______ ____
ROOT
ATOM      1  C   UNL     1       5.367  -0.389   1.384  0.00  0.00    +0.005 C 
ATOM      2  C   UNL     1       4.721   0.874   1.963  0.00  0.00    -0.014 C 
ATOM      3  C   UNL     1       5.277   1.126   3.366  0.00  0.00    -0.078 C 
ATOM      4  N   UNL     1       6.732   1.307   3.295  0.00  0.00    +0.385 N 
ATOM      5  C   UNL     1       7.364   0.075   2.808  0.00  0.00    -0.078 C 
ATOM      6  C   UNL     1       6.889  -0.217   1.383  0.00  0.00    -0.014 C 
ATOM      7  H   UNL     1       6.945   2.065   2.665  0.00  0.00    -0.081 HD
ENDROOT
BRANCH   1   8
ATOM      8  C   UNL     1       4.876  -0.603  -0.050  0.00  0.00    +0.126 C 
BRANCH   8  17
ATOM      9  C   UNL     1      -0.016   1.362   0.009  0.00  0.00    +0.002 A 
ATOM     10  C   UNL     1       1.167   2.086   0.002  0.00  0.00    +0.002 A 
ATOM     11  C   UNL     1       2.383   1.437  -0.013  0.00  0.00    +0.028 A 
ATOM     12  C   UNL     1       2.422   0.049  -0.021  0.00  0.00    +0.069 A 
ATOM     13  C   UNL     1       1.223  -0.684  -0.013  0.00  0.00    +0.089 A 
ATOM     14  C   UNL     1       0.002  -0.004   0.002  0.00  0.00    +0.030 A 
ATOM     15  N   UNL     1       1.563  -1.998  -0.024  0.00  0.00    -0.236 NA
ATOM     16  C   UNL     1       2.858  -2.115  -0.037  0.00  0.00    +0.200 A 
ATOM     17  N   UNL     1       3.439  -0.885  -0.036  0.00  0.00    -0.330 N 
ENDBRANCH   8  17
ENDBRANCH   1   8
BRANCH   4  18
ATOM     18  C   UNL     1       7.250   1.626   4.632  0.00  0.00    +0.019 C 
BRANCH  18  19
ATOM     19  C   UNL     1       8.722   1.933   4.541  0.00  0.00    +0.202 C 
ATOM     20  O   UNL     1       9.285   1.890   3.467  0.00  0.00    -0.277 OA
ATOM     21  N   UNL     1       9.414   2.255   5.652  0.00  0.00    -0.266 N 
ATOM     22  C   UNL     1      10.768   2.537   5.567  0.00  0.00    +0.165 A 
ATOM     23  N   UNL     1      11.542   2.548   4.508  0.00  0.00    -0.225 NA
ATOM     24  C   UNL     1      12.858   2.845   4.573  0.00  0.00    +0.080 A 
ATOM     25  C   UNL     1      13.796   2.892   3.515  0.00  0.00    +0.029 A 
ATOM     26  C   UNL     1      15.106   3.212   3.756  0.00  0.00    +0.002 A 
ATOM     27  C   UNL     1      15.559   3.501   5.035  0.00  0.00    +0.001 A 
ATOM     28  C   UNL     1      14.669   3.465   6.093  0.00  0.00    +0.017 A 
ATOM     29  C   UNL     1      13.355   3.144   5.862  0.00  0.00    +0.041 A 
ATOM     30  S   UNL     1      11.903   2.985   6.873  0.00  0.00    -0.052 S 
ATOM     31  H   UNL     1       8.964   2.289   6.510  0.00  0.00    +0.157 HD
ENDBRANCH  18  19
ENDBRANCH   4  18
TORSDOF 4
