REMARK  Name = ZINC33960237
REMARK  11 active torsions:
REMARK  status: ('A' for Active; 'I' for Inactive)
REMARK    1  A    between atoms: C_1  and  C_2
REMARK    2  A    between atoms: C_5  and  C_37
REMARK    3  A    between atoms: N_8  and  S_10
REMARK    4  A    between atoms: S_10  and  C_13
REMARK    5  A    between atoms: C_17  and  C_19
REMARK    6  A    between atoms: N_24  and  N_25
REMARK    7  A    between atoms: C_26  and  C_27
REMARK    8  A    between atoms: C_30  and  O_35
REMARK    9  A    between atoms: C_32  and  O_33
REMARK   10  A    between atoms: O_33  and  C_34
REMARK   11  A    between atoms: O_35  and  C_36
REMARK                            x       y       z     vdW  Elec       q    Type
REMARK                         _______ _______ _______ _____ _____    ______ ____
ROOT
ATOM      1  C   UNL     1       0.125   5.143   2.840  0.00  0.00    +0.080 A 
ATOM      2  C   UNL     1      -0.120   6.445   2.506  0.00  0.00    +0.077 A 
ATOM      3  S   UNL     1      -1.639   6.738   3.403  0.00  0.00    -0.059 S 
ATOM      4  C   UNL     1      -1.790   5.109   4.124  0.00  0.00    +0.178 A 
ATOM      5  N   UNL     1      -0.720   4.506   3.636  0.00  0.00    -0.224 NA
ATOM      6  N   UNL     1      -2.770   4.611   4.965  0.00  0.00    -0.215 N 
ATOM      7  H   UNL     1      -2.718   3.695   5.280  0.00  0.00    +0.176 HD
ENDROOT
BRANCH   1  12
ATOM      8  C   UNL     1       2.629   2.448   2.067  0.00  0.00    +0.106 A 
ATOM      9  C   UNL     1       3.559   3.149   1.320  0.00  0.00    +0.028 A 
ATOM     10  C   UNL     1       3.376   4.496   1.066  0.00  0.00    +0.003 A 
ATOM     11  C   UNL     1       2.263   5.148   1.556  0.00  0.00    +0.010 A 
ATOM     12  C   UNL     1       1.323   4.447   2.309  0.00  0.00    +0.003 A 
ATOM     13  C   UNL     1       1.510   3.088   2.558  0.00  0.00    +0.038 A 
BRANCH   8  14
ATOM     14  S   UNL     1       2.871   0.732   2.387  0.00  0.00    +0.061 S 
ATOM     15  O   UNL     1       2.133   0.430   3.563  0.00  0.00    -0.153 OA
ATOM     16  O   UNL     1       4.268   0.492   2.281  0.00  0.00    -0.153 OA
BRANCH  14  22
ATOM     17  C   UNL     1      -0.019   1.526   0.010  0.00  0.00    +0.009 C 
ATOM     18  C   UNL     1       0.002  -0.004   0.002  0.00  0.00    +0.002 C 
ATOM     19  C   UNL     1       0.720  -0.498  -1.256  0.00  0.00    +0.009 C 
ATOM     20  C   UNL     1       2.145   0.059  -1.285  0.00  0.00    +0.002 C 
ATOM     21  C   UNL     1       2.912  -0.448  -0.060  0.00  0.00    +0.112 C 
ATOM     22  N   UNL     1       2.153  -0.103   1.150  0.00  0.00    -0.176 NA
ATOM     23  C   UNL     1       0.744  -0.512   1.242  0.00  0.00    +0.112 C 
ATOM     24  C   UNL     1       2.850  -0.408  -2.559  0.00  0.00    +0.009 C 
ENDBRANCH  14  22
ENDBRANCH   8  14
ENDBRANCH   1  12
BRANCH   6  25
ATOM     25  N   UNL     1      -3.836   5.429   5.361  0.00  0.00    -0.188 NA
ATOM     26  C   UNL     1      -4.755   4.962   6.149  0.00  0.00    +0.142 C 
BRANCH  26  27
ATOM     27  C   UNL     1      -5.876   5.822   6.566  0.00  0.00    +0.036 A 
ATOM     28  C   UNL     1      -6.864   5.324   7.419  0.00  0.00    +0.016 A 
ATOM     29  C   UNL     1      -7.911   6.132   7.806  0.00  0.00    +0.046 A 
ATOM     30  C   UNL     1      -7.988   7.443   7.349  0.00  0.00    +0.124 A 
ATOM     31  C   UNL     1      -7.013   7.947   6.502  0.00  0.00    +0.091 A 
ATOM     32  C   UNL     1      -5.953   7.146   6.111  0.00  0.00    +0.132 A 
BRANCH  32  33
ATOM     33  O   UNL     1      -4.994   7.641   5.286  0.00  0.00    -0.494 OA
ATOM     34  C   UNL     1      -5.138   8.998   4.864  0.00  0.00    +0.277 C 
ENDBRANCH  32  33
BRANCH  30  35
ATOM     35  O   UNL     1      -9.024   8.233   7.735  0.00  0.00    -0.495 OA
ATOM     36  C   UNL     1      -9.993   7.652   8.609  0.00  0.00    +0.277 C 
ENDBRANCH  30  35
ENDBRANCH  26  27
ENDBRANCH   6  25
TORSDOF 7
