REMARK  Name = ZINC00100784
REMARK  3 active torsions:
REMARK  status: ('A' for Active; 'I' for Inactive)
REMARK    1  A    between atoms: C_3  and  O_17
REMARK    2  A    between atoms: C_4  and  C_8
REMARK    3  A    between atoms: N_9  and  C_10
REMARK                            x       y       z     vdW  Elec       q    Type
REMARK                         _______ _______ _______ _____ _____    ______ ____
ROOT
ATOM      1  C   UNL     1      -0.017   1.382   0.010  0.00  0.00    +0.019 A 
ATOM      2  C   UNL     1       1.165   2.098   0.002  0.00  0.00    +0.047 A 
ATOM      3  C   UNL     1       2.381   1.433  -0.013  0.00  0.00    +0.125 A 
ATOM      4  C   UNL     1       2.406   0.029  -0.021  0.00  0.00    +0.036 A 
ATOM      5  C   UNL     1       1.202  -0.683  -0.013  0.00  0.00    +0.028 A 
ATOM      6  C   UNL     1       0.002  -0.004   0.002  0.00  0.00    +0.019 A 
ATOM      7 BR   UNL     1      -1.625  -0.968   0.012  0.00  0.00    -0.050 Br
ENDROOT
BRANCH   4   8
ATOM      8  C   UNL     1       3.689  -0.688  -0.037  0.00  0.00    +0.124 C 
ATOM      9  N   UNL     1       4.809  -0.019  -0.045  0.00  0.00    -0.236 NA
BRANCH   9  10
ATOM     10  C   UNL     1       6.002  -0.686  -0.060  0.00  0.00    +0.153 A 
ATOM     11  C   UNL     1       7.199   0.035  -0.063  0.00  0.00    +0.049 A 
ATOM     12  C   UNL     1       8.398  -0.653  -0.078  0.00  0.00    +0.025 A 
ATOM     13  C   UNL     1       8.365  -2.042  -0.090  0.00  0.00    +0.059 A 
ATOM     14  C   UNL     1       7.144  -2.693  -0.087  0.00  0.00    +0.133 A 
ATOM     15  N   UNL     1       6.015  -2.014  -0.068  0.00  0.00    -0.235 NA
ATOM     16 CL   UNL     1       9.843  -2.953  -0.110  0.00  0.00    -0.082 Cl
ENDBRANCH   9  10
ENDBRANCH   4   8
BRANCH   3  17
ATOM     17  O   UNL     1       3.542   2.135  -0.021  0.00  0.00    -0.506 OA
ATOM     18  H   UNL     1       3.887   2.334   0.860  0.00  0.00    +0.292 HD
ENDBRANCH   3  17
TORSDOF 3
