REMARK  Name = ZINC02420278
REMARK  5 active torsions:
REMARK  status: ('A' for Active; 'I' for Inactive)
REMARK    1  A    between atoms: C_1  and  C_2
REMARK    2  A    between atoms: C_2  and  C_4
REMARK    3  A    between atoms: C_2  and  O_25
REMARK    4  A    between atoms: C_10  and  C_18
REMARK    5  A    between atoms: O_25  and  C_26
REMARK                            x       y       z     vdW  Elec       q    Type
REMARK                         _______ _______ _______ _____ _____    ______ ____
ROOT
ATOM      1  C   UNL     1       0.768  -0.712  -1.225  0.00  0.00    +0.260 C 
ATOM      2  O   UNL     1       1.893  -1.136  -1.061  0.00  0.00    -0.271 OA
ATOM      3  N   UNL     1       0.237  -0.673  -2.463  0.00  0.00    -0.252 N 
ATOM      4  C   UNL     1       0.977  -1.119  -3.552  0.00  0.00    +0.229 C 
ATOM      5  N   UNL     1       0.574  -1.126  -4.793  0.00  0.00    -0.143 NA
ATOM      6  N   UNL     1       1.598  -1.648  -5.577  0.00  0.00    -0.184 N 
ATOM      7  C   UNL     1       1.642  -1.886  -7.022  0.00  0.00    +0.140 C 
ATOM      8  C   UNL     1       3.096  -1.745  -7.484  0.00  0.00    +0.127 C 
ATOM      9  C   UNL     1       4.034  -2.404  -6.510  0.00  0.00    +0.241 C 
ATOM     10  O   UNL     1       5.051  -2.922  -6.931  0.00  0.00    -0.274 OA
ATOM     11  N   UNL     1       3.788  -2.438  -5.207  0.00  0.00    -0.148 NA
ATOM     12  C   UNL     1       2.636  -1.940  -4.755  0.00  0.00    +0.222 C 
ATOM     13  N   UNL     1       2.258  -1.621  -3.498  0.00  0.00    -0.149 NA
ATOM     14  H   UNL     1      -0.662  -0.334  -2.594  0.00  0.00    +0.158 HD
ENDROOT
BRANCH   7  15
ATOM     15  C   UNL     1       1.144  -3.276  -7.324  0.00  0.00    -0.025 A 
ATOM     16  C   UNL     1       1.490  -4.329  -6.497  0.00  0.00    +0.007 A 
ATOM     17  C   UNL     1       1.034  -5.604  -6.774  0.00  0.00    +0.020 A 
ATOM     18  C   UNL     1       0.230  -5.826  -7.878  0.00  0.00    +0.041 A 
ATOM     19  C   UNL     1      -0.117  -4.772  -8.704  0.00  0.00    +0.020 A 
ATOM     20  C   UNL     1       0.336  -3.497  -8.424  0.00  0.00    +0.007 A 
ATOM     21 CL   UNL     1      -0.344  -7.427  -8.226  0.00  0.00    -0.084 Cl
ENDBRANCH   7  15
BRANCH   1  23
ATOM     22  C   UNL     1      -0.292   1.273  -0.184  0.00  0.00    +0.062 C 
ATOM     23  C   UNL     1      -0.034  -0.229  -0.045  0.00  0.00    +0.256 C 
BRANCH  23  24
ATOM     24  O   UNL     1       0.693  -0.477   1.160  0.00  0.00    -0.480 OA
BRANCH  24  25
ATOM     25  C   UNL     1      -0.031  -0.600   2.303  0.00  0.00    +0.122 A 
ATOM     26  C   UNL     1      -1.400  -0.376   2.286  0.00  0.00    +0.045 A 
ATOM     27  C   UNL     1      -2.133  -0.502   3.450  0.00  0.00    +0.004 A 
ATOM     28  C   UNL     1      -1.504  -0.849   4.631  0.00  0.00    +0.000 A 
ATOM     29  C   UNL     1      -0.140  -1.072   4.651  0.00  0.00    +0.004 A 
ATOM     30  C   UNL     1       0.598  -0.954   3.489  0.00  0.00    +0.045 A 
ENDBRANCH  24  25
ENDBRANCH  23  24
ENDBRANCH   1  23
TORSDOF 4
