REMARK  Name = ZINC08748232
REMARK  10 active torsions:
REMARK  status: ('A' for Active; 'I' for Inactive)
REMARK    1  A    between atoms: C_1  and  O_2
REMARK    2  A    between atoms: O_2  and  C_3
REMARK    3  A    between atoms: C_3  and  C_4
REMARK    4  A    between atoms: C_4  and  O_5
REMARK    5  A    between atoms: O_5  and  C_6
REMARK    6  A    between atoms: C_6  and  C_8
REMARK    7  A    between atoms: C_9  and  N_29
REMARK    8  A    between atoms: C_15  and  C_27
REMARK    9  A    between atoms: C_18  and  C_20
REMARK   10  A    between atoms: C_27  and  O_28
REMARK                            x       y       z     vdW  Elec       q    Type
REMARK                         _______ _______ _______ _____ _____    ______ ____
ROOT
ATOM      1  C   UNL     1      -3.365   5.124   3.549  0.00  0.00    +0.108 C 
ATOM      2  C   UNL     1      -3.965   5.759   4.591  0.00  0.00    +0.196 C 
ATOM      3  O   UNL     1      -4.051   7.099   4.631  0.00  0.00    -0.435 OA
ATOM      4  C   UNL     1      -3.225   7.854   3.866  0.00  0.00    +0.215 A 
ATOM      5  C   UNL     1      -3.021   9.222   4.209  0.00  0.00    +0.228 A 
ATOM      6  O   UNL     1      -3.577   9.719   5.176  0.00  0.00    -0.284 OA
ATOM      7  C   UNL     1      -2.152   9.986   3.390  0.00  0.00    +0.098 A 
ATOM      8  C   UNL     1      -1.565   9.386   2.337  0.00  0.00    +0.134 A 
ATOM      9  O   UNL     1      -1.776   8.106   2.042  0.00  0.00    -0.457 OA
ATOM     10  C   UNL     1      -2.591   7.346   2.789  0.00  0.00    +0.163 A 
ATOM     11  C   UNL     1      -2.788   5.902   2.401  0.00  0.00    +0.131 C 
ENDROOT
BRANCH  11  12
ATOM     12  C   UNL     1      -3.727   5.825   1.225  0.00  0.00    -0.032 A 
ATOM     13  C   UNL     1      -5.020   6.300   1.341  0.00  0.00    +0.006 A 
ATOM     14  C   UNL     1      -5.881   6.234   0.262  0.00  0.00    +0.015 A 
ATOM     15  C   UNL     1      -5.451   5.684  -0.932  0.00  0.00    +0.018 A 
ATOM     16  C   UNL     1      -4.159   5.205  -1.047  0.00  0.00    +0.015 A 
ATOM     17  C   UNL     1      -3.297   5.276   0.031  0.00  0.00    +0.006 A 
ATOM     18 BR   UNL     1      -6.630   5.588  -2.408  0.00  0.00    -0.050 Br
ENDBRANCH  11  12
BRANCH   2  19
ATOM     19  N   UNL     1      -4.487   5.020   5.619  0.00  0.00    -0.329 N 
ATOM     20  H   UNL     1      -4.347   4.061   5.646  0.00  0.00    +0.145 HD
ATOM     21  H   UNL     1      -4.996   5.457   6.320  0.00  0.00    +0.145 HD
ENDBRANCH   2  19
BRANCH   1  22
ATOM     22  C   UNL     1      -3.289   3.724   3.544  0.00  0.00    +0.341 C 
ATOM     23  O   UNL     1      -2.248   3.170   3.846  0.00  0.00    -0.245 OA
BRANCH  22  24
ATOM     24  O   UNL     1      -4.371   2.991   3.205  0.00  0.00    -0.459 OA
BRANCH  24  25
ATOM     25  C   UNL     1      -4.223   1.569   3.221  0.00  0.00    +0.260 C 
BRANCH  25  26
ATOM     26  C   UNL     1      -5.543   0.914   2.812  0.00  0.00    +0.200 C 
BRANCH  26  28
ATOM     27  C   UNL     1      -7.059   0.682   0.970  0.00  0.00    +0.194 C 
ATOM     28  O   UNL     1      -5.840   1.247   1.454  0.00  0.00    -0.380 OA
ENDBRANCH  26  28
ENDBRANCH  25  26
ENDBRANCH  24  25
ENDBRANCH  22  24
ENDBRANCH   1  22
BRANCH   8  29
ATOM     29  C   UNL     1      -0.640  10.192   1.462  0.00  0.00    +0.230 C 
BRANCH  29  30
ATOM     30  O   UNL     1       0.694  10.097   1.965  0.00  0.00    -0.387 OA
ATOM     31  H   UNL     1       1.345  10.593   1.449  0.00  0.00    +0.210 HD
ENDBRANCH  29  30
ENDBRANCH   8  29
TORSDOF 9
