REMARK  Name = ZINC64720942
REMARK  9 active torsions:
REMARK  status: ('A' for Active; 'I' for Inactive)
REMARK    1  A    between atoms: C_1  and  O_2
REMARK    2  A    between atoms: O_2  and  C_3
REMARK    3  A    between atoms: C_6  and  C_9
REMARK    4  A    between atoms: C_9  and  C_11
REMARK    5  A    between atoms: C_9  and  C_27
REMARK    6  A    between atoms: C_11  and  N_12
REMARK    7  A    between atoms: C_13  and  C_15
REMARK    8  A    between atoms: C_15  and  N_16
REMARK    9  A    between atoms: C_18  and  C_23
REMARK                            x       y       z     vdW  Elec       q    Type
REMARK                         _______ _______ _______ _____ _____    ______ ____
ROOT
ATOM      1  C   UNL     1       2.587  -2.550   4.310  0.00  0.00    +0.064 C 
ENDROOT
BRANCH   1   2
ATOM      2  C   UNL     1       1.604  -3.434   5.035  0.00  0.00    -0.033 C 
ATOM      3  C   UNL     1       1.228  -3.340   6.330  0.00  0.00    -0.000 A 
ATOM      4  C   UNL     1       1.607  -2.424   7.412  0.00  0.00    +0.010 A 
ATOM      5  C   UNL     1       1.048  -2.583   8.633  0.00  0.00    +0.001 A 
ATOM      6  C   UNL     1       0.119  -3.600   8.891  0.00  0.00    +0.002 A 
ATOM      7  C   UNL     1      -0.279  -4.481   7.949  0.00  0.00    +0.026 A 
ATOM      8  C   UNL     1       0.244  -4.405   6.628  0.00  0.00    +0.043 A 
ATOM      9  N   UNL     1       0.020  -5.129   5.558  0.00  0.00    -0.380 N 
ATOM     10  C   UNL     1       0.834  -4.601   4.458  0.00  0.00    +0.145 C 
ATOM     11  H   UNL     1      -0.585  -5.885   5.503  0.00  0.00    +0.160 HD
ENDBRANCH   1   2
BRANCH   1  15
ATOM     12  C   UNL     1       0.626  -0.618   1.042  0.00  0.00    +0.120 A 
ATOM     13  C   UNL     1       1.202   0.138   2.051  0.00  0.00    +0.046 A 
ATOM     14  C   UNL     1       1.835  -0.488   3.107  0.00  0.00    +0.008 A 
ATOM     15  C   UNL     1       1.895  -1.869   3.158  0.00  0.00    -0.038 A 
ATOM     16  C   UNL     1       1.322  -2.625   2.152  0.00  0.00    +0.008 A 
ATOM     17  C   UNL     1       0.682  -2.003   1.098  0.00  0.00    +0.046 A 
BRANCH  12  19
ATOM     18  C   UNL     1      -0.017   1.425   0.010  0.00  0.00    +0.277 C 
ATOM     19  O   UNL     1       0.002  -0.004   0.002  0.00  0.00    -0.495 OA
ENDBRANCH  12  19
ENDBRANCH   1  15
BRANCH   1  20
ATOM     20  C   UNL     1       3.743  -3.400   3.781  0.00  0.00    +0.116 C 
BRANCH  20  21
ATOM     21  N   UNL     1       4.489  -3.967   4.907  0.00  0.00    -0.313 N 
ATOM     22  C   UNL     1       5.557  -4.756   4.680  0.00  0.00    +0.233 C 
ATOM     23  O   UNL     1       5.902  -4.997   3.542  0.00  0.00    -0.274 OA
ATOM     24  H   UNL     1       4.213  -3.774   5.817  0.00  0.00    +0.149 HD
BRANCH  22  25
ATOM     25  C   UNL     1       6.324  -5.339   5.839  0.00  0.00    +0.220 C 
BRANCH  25  26
ATOM     26  N   UNL     1       7.431  -6.153   5.332  0.00  0.00    -0.306 N 
ATOM     27  C   UNL     1       7.235  -7.473   5.082  0.00  0.00    +0.102 A 
ATOM     28  C   UNL     1       8.242  -8.245   4.614  0.00  0.00    +0.071 A 
ATOM     29  C   UNL     1       9.505  -7.683   4.381  0.00  0.00    +0.019 A 
ATOM     30  C   UNL     1       9.701  -6.357   4.632  0.00  0.00    +0.071 A 
ATOM     31  C   UNL     1       8.632  -5.582   5.113  0.00  0.00    +0.252 A 
ATOM     32  O   UNL     1       8.792  -4.394   5.338  0.00  0.00    -0.268 OA
BRANCH  28  33
ATOM     33  C   UNL     1       8.007  -9.709   4.343  0.00  0.00    +0.419 C 
ATOM     34  F   UNL     1       7.689  -9.888   2.993  0.00  0.00    -0.166 F 
ATOM     35  F   UNL     1       9.165 -10.432   4.649  0.00  0.00    -0.166 F 
ATOM     36  F   UNL     1       6.949 -10.166   5.136  0.00  0.00    -0.166 F 
ENDBRANCH  28  33
ENDBRANCH  25  26
ENDBRANCH  22  25
ENDBRANCH  20  21
ENDBRANCH   1  20
TORSDOF 8
