REMARK  Name = ZINC12320891
REMARK  6 active torsions:
REMARK  status: ('A' for Active; 'I' for Inactive)
REMARK    1  A    between atoms: C_1  and  C_2
REMARK    2  A    between atoms: C_3  and  C_13
REMARK    3  A    between atoms: C_13  and  C_15
REMARK    4  A    between atoms: C_13  and  N_16
REMARK    5  A    between atoms: C_17  and  C_19
REMARK    6  A    between atoms: C_19  and  N_54
REMARK                            x       y       z     vdW  Elec       q    Type
REMARK                         _______ _______ _______ _____ _____    ______ ____
ROOT
ATOM      1  N   UNL     1      -0.890   5.820  -0.545  0.00  0.00    -0.310 N 
ATOM      2  C   UNL     1      -1.580   6.836  -1.100  0.00  0.00    +0.197 C 
ATOM      3  O   UNL     1      -2.793   6.809  -1.115  0.00  0.00    -0.278 OA
ATOM      4  H   UNL     1       0.079   5.842  -0.533  0.00  0.00    +0.149 HD
ENDROOT
BRANCH   1   5
ATOM      5  C   UNL     1      -1.605   4.683   0.040  0.00  0.00    +0.103 C 
ATOM      6  C   UNL     1      -1.994   5.013   1.483  0.00  0.00    +0.033 C 
BRANCH   5   9
ATOM      7  C   UNL     1      -2.554   1.702   0.022  0.00  0.00    +0.066 C 
ATOM      8  C   UNL     1      -1.125   2.179   0.019  0.00  0.00    +0.048 A 
ATOM      9  C   UNL     1      -0.714   3.468   0.026  0.00  0.00    +0.013 A 
ATOM     10  C   UNL     1       0.686   3.474   0.013  0.00  0.00    +0.140 A 
ATOM     11  N   UNL     1       1.104   2.235   0.004  0.00  0.00    -0.173 NA
ATOM     12  N   UNL     1      -0.017   1.394   0.010  0.00  0.00    -0.219 N 
ATOM     13  C   UNL     1       0.002  -0.004   0.002  0.00  0.00    +0.154 A 
ATOM     14  C   UNL     1       1.101  -0.674  -0.522  0.00  0.00    +0.048 A 
ATOM     15  C   UNL     1       1.107  -2.059  -0.523  0.00  0.00    +0.005 A 
ATOM     16  C   UNL     1       0.009  -2.726   0.002  0.00  0.00    +0.020 A 
ATOM     17  C   UNL     1      -1.049  -1.995   0.506  0.00  0.00    +0.113 A 
ATOM     18  N   UNL     1      -1.024  -0.676   0.498  0.00  0.00    -0.236 NA
ENDBRANCH   5   9
ENDBRANCH   1   5
BRANCH   2  19
ATOM     19  C   UNL     1      -0.845   8.006  -1.702  0.00  0.00    +0.019 C 
BRANCH  19  30
ATOM     20  C   UNL     1      -2.583   8.388  -3.334  0.00  0.00    -0.036 C 
ATOM     21  C   UNL     1      -3.809   9.191  -3.710  0.00  0.00    +0.210 C 
ATOM     22  O   UNL     1      -3.436  10.471  -4.237  0.00  0.00    -0.494 OA
ATOM     23  C   UNL     1      -3.228  11.444  -3.308  0.00  0.00    +0.122 A 
ATOM     24  C   UNL     1      -4.122  12.499  -3.191  0.00  0.00    +0.046 A 
ATOM     25  C   UNL     1      -3.928  13.454  -2.211  0.00  0.00    +0.004 A 
ATOM     26  C   UNL     1      -2.849  13.360  -1.351  0.00  0.00    +0.000 A 
ATOM     27  C   UNL     1      -1.952  12.314  -1.475  0.00  0.00    +0.005 A 
ATOM     28  C   UNL     1      -2.141  11.364  -2.458  0.00  0.00    -0.022 A 
ATOM     29  C   UNL     1      -1.154  10.225  -2.617  0.00  0.00    -0.039 C 
ATOM     30  N   UNL     1      -1.834   8.975  -2.202  0.00  0.00    +0.390 N 
ATOM     31  H   UNL     1      -2.495   9.194  -1.448  0.00  0.00    -0.081 HD
ENDBRANCH  19  30
ENDBRANCH   2  19
TORSDOF 4
