REMARK  Name = ZINC03672598
REMARK  7 active torsions:
REMARK  status: ('A' for Active; 'I' for Inactive)
REMARK    1  A    between atoms: C_3  and  C_6
REMARK    2  A    between atoms: C_11  and  C_19
REMARK    3  A    between atoms: C_13  and  C_17
REMARK    4  A    between atoms: C_14  and  N_16
REMARK    5  A    between atoms: C_22  and  O_25
REMARK    6  A    between atoms: O_25  and  C_26
REMARK    7  A    between atoms: C_26  and  C_27
REMARK                            x       y       z     vdW  Elec       q    Type
REMARK                         _______ _______ _______ _____ _____    ______ ____
ROOT
ATOM      1  C   UNL     1       2.572   5.367   0.623  0.00  0.00    +0.070 C 
ATOM      2  C   UNL     1       2.513   3.864   0.902  0.00  0.00    +0.086 C 
ATOM      3  C   UNL     1       1.184   3.313   0.442  0.00  0.00    +0.115 C 
ATOM      4  C   UNL     1       0.076   4.077   0.477  0.00  0.00    +0.046 C 
ATOM      5  C   UNL     1      -1.256   3.518   0.036  0.00  0.00    +0.101 C 
ATOM      6  C   UNL     1      -1.207   2.016   0.019  0.00  0.00    +0.098 C 
ATOM      7  C   UNL     1      -0.017   1.369   0.010  0.00  0.00    +0.198 C 
ATOM      8  O   UNL     1       1.145   2.042   0.002  0.00  0.00    -0.445 OA
ATOM      9  C   UNL     1       0.120   5.411   0.924  0.00  0.00    +0.164 C 
ATOM     10  O   UNL     1      -0.904   6.063   0.956  0.00  0.00    -0.292 OA
ATOM     11  C   UNL     1       1.413   6.044   1.362  0.00  0.00    +0.091 C 
ENDROOT
BRANCH   5  12
ATOM     12  C   UNL     1      -1.573   4.017  -1.350  0.00  0.00    -0.034 A 
ATOM     13  C   UNL     1      -0.719   3.729  -2.399  0.00  0.00    +0.008 A 
ATOM     14  C   UNL     1      -1.010   4.181  -3.672  0.00  0.00    +0.046 A 
ATOM     15  C   UNL     1      -2.155   4.932  -3.895  0.00  0.00    +0.121 A 
ATOM     16  C   UNL     1      -3.007   5.224  -2.840  0.00  0.00    +0.046 A 
ATOM     17  C   UNL     1      -2.714   4.766  -1.570  0.00  0.00    +0.008 A 
BRANCH  15  18
ATOM     18  O   UNL     1      -2.441   5.381  -5.145  0.00  0.00    -0.487 OA
BRANCH  18  19
ATOM     19  C   UNL     1      -1.519   5.043  -6.183  0.00  0.00    +0.264 C 
BRANCH  19  20
ATOM     20  C   UNL     1      -1.998   5.622  -7.489  0.00  0.00    -0.010 A 
ATOM     21  C   UNL     1      -2.828   4.882  -8.310  0.00  0.00    +0.010 A 
ATOM     22  C   UNL     1      -3.271   5.415  -9.506  0.00  0.00    +0.039 A 
ATOM     23  C   UNL     1      -2.875   6.686  -9.886  0.00  0.00    +0.123 A 
ATOM     24  C   UNL     1      -2.039   7.424  -9.066  0.00  0.00    +0.039 A 
ATOM     25  C   UNL     1      -1.601   6.891  -7.868  0.00  0.00    +0.010 A 
ATOM     26  F   UNL     1      -3.304   7.205 -11.057  0.00  0.00    -0.205 F 
ENDBRANCH  19  20
ENDBRANCH  18  19
ENDBRANCH  15  18
ENDBRANCH   5  12
BRANCH   1  29
ATOM     27  C   UNL     1       5.873   6.893   1.218  0.00  0.00    +0.041 A 
ATOM     28  C   UNL     1       4.811   6.537   0.357  0.00  0.00    +0.045 A 
ATOM     29  C   UNL     1       3.884   5.922   1.114  0.00  0.00    +0.109 A 
ATOM     30  O   UNL     1       4.325   5.892   2.382  0.00  0.00    -0.468 OA
ATOM     31  C   UNL     1       5.533   6.474   2.451  0.00  0.00    +0.195 A 
ENDBRANCH   1  29
BRANCH   7  32
ATOM     32  N   UNL     1       0.002  -0.004   0.002  0.00  0.00    -0.328 N 
ATOM     33  H   UNL     1       0.849  -0.478  -0.009  0.00  0.00    +0.145 HD
ATOM     34  H   UNL     1      -0.831  -0.500   0.007  0.00  0.00    +0.145 HD
ENDBRANCH   7  32
BRANCH   6  35
ATOM     35  C   UNL     1      -2.426   1.264   0.017  0.00  0.00    +0.101 C 
ATOM     36  N   UNL     1      -3.393   0.668   0.015  0.00  0.00    -0.191 NA
ENDBRANCH   6  35
TORSDOF 7
