REMARK  Name = ZINC09973356
REMARK  6 active torsions:
REMARK  status: ('A' for Active; 'I' for Inactive)
REMARK    1  A    between atoms: C_1  and  O_2
REMARK    2  A    between atoms: O_2  and  C_3
REMARK    3  A    between atoms: C_5  and  C_13
REMARK    4  A    between atoms: C_8  and  O_9
REMARK    5  A    between atoms: O_9  and  C_10
REMARK    6  A    between atoms: C_10  and  C_11
REMARK                            x       y       z     vdW  Elec       q    Type
REMARK                         _______ _______ _______ _____ _____    ______ ____
ROOT
ATOM      1  C   UNL     1       2.394   3.922   0.035  0.00  0.00    +0.025 C 
ATOM      2  C   UNL     1       3.601   3.263   0.106  0.00  0.00    +0.085 A 
ATOM      3  C   UNL     1       3.681   1.776   0.092  0.00  0.00    +0.160 A 
ATOM      4  N   UNL     1       2.810   1.022  -0.525  0.00  0.00    -0.281 NA
ATOM      5  N   UNL     1       4.779   1.254   0.798  0.00  0.00    -0.212 N 
ATOM      6  N   UNL     1       4.882  -0.046   1.249  0.00  0.00    -0.282 N 
ATOM      7  H   UNL     1       4.040  -0.742   1.118  0.00  0.00    +0.188 HD
ATOM      8  C   UNL     1       6.024  -0.461   1.853  0.00  0.00    +0.103 A 
ATOM      9  C   UNL     1       6.350  -1.746   2.351  0.00  0.00    +0.007 C 
ATOM     10  C   UNL     1       5.420  -2.796   2.253  0.00  0.00    +0.014 C 
ATOM     11  C   UNL     1       5.736  -4.030   2.727  0.00  0.00    +0.051 C 
ATOM     12  C   UNL     1       6.988  -4.254   3.325  0.00  0.00    +0.179 C 
ATOM     13  O   UNL     1       7.270  -5.366   3.756  0.00  0.00    -0.288 OA
ATOM     14  C   UNL     1       7.916  -3.205   3.428  0.00  0.00    +0.051 C 
ATOM     15  C   UNL     1       7.603  -1.971   2.949  0.00  0.00    +0.014 C 
ATOM     16  S   UNL     1       7.010   1.029   1.857  0.00  0.00    -0.030 S 
ATOM     17  C   UNL     1       5.842   2.096   1.056  0.00  0.00    +0.199 A 
ATOM     18  N   UNL     1       5.938   3.365   0.769  0.00  0.00    -0.182 NA
ATOM     19  C   UNL     1       4.884   3.998   0.208  0.00  0.00    +0.283 A 
ATOM     20  O   UNL     1       4.986   5.142  -0.203  0.00  0.00    -0.265 OA
ATOM     21  H   UNL     1       2.918  -0.073  -0.503  0.00  0.00    +0.188 HD
ENDROOT
BRANCH   1  24
ATOM     22  C   UNL     1      -1.162   2.876  -0.516  0.00  0.00    +0.162 A 
ATOM     23  C   UNL     1       0.015   3.591  -0.601  0.00  0.00    +0.057 A 
ATOM     24  C   UNL     1       1.141   3.168   0.120  0.00  0.00    -0.021 A 
ATOM     25  C   UNL     1       1.064   2.021   0.922  0.00  0.00    +0.012 A 
ATOM     26  C   UNL     1      -0.115   1.315   0.999  0.00  0.00    +0.050 A 
ATOM     27  C   UNL     1      -1.228   1.732   0.280  0.00  0.00    +0.162 A 
BRANCH  22  29
ATOM     28  C   UNL     1      -2.115   4.459  -2.014  0.00  0.00    +0.277 C 
ATOM     29  O   UNL     1      -2.256   3.283  -1.214  0.00  0.00    -0.491 OA
ENDBRANCH  22  29
BRANCH  27  30
ATOM     30  O   UNL     1      -2.386   1.028   0.356  0.00  0.00    -0.484 OA
BRANCH  30  31
ATOM     31  C   UNL     1      -2.387  -0.130   1.194  0.00  0.00    +0.256 C 
BRANCH  31  32
ATOM     32  C   UNL     1      -3.747  -0.778   1.153  0.00  0.00    +0.006 C 
ATOM     33  C   UNL     1      -3.850  -2.078   1.020  0.00  0.00    +0.007 C 
ENDBRANCH  31  32
ENDBRANCH  30  31
ENDBRANCH  27  30
ENDBRANCH   1  24
TORSDOF 5
