REMARK  Name = ZINC04132635
REMARK  7 active torsions:
REMARK  status: ('A' for Active; 'I' for Inactive)
REMARK    1  A    between atoms: C_1  and  C_2
REMARK    2  A    between atoms: C_2  and  C_3
REMARK    3  A    between atoms: C_2  and  C_4
REMARK    4  A    between atoms: C_2  and  C_5
REMARK    5  A    between atoms: C_17  and  C_20
REMARK    6  A    between atoms: C_23  and  O_27
REMARK    7  A    between atoms: C_25  and  O_26
REMARK                            x       y       z     vdW  Elec       q    Type
REMARK                         _______ _______ _______ _____ _____    ______ ____
ROOT
ATOM      1  C   UNL     1       4.386  -4.576  -4.158  0.00  0.00    -0.000 C 
ATOM      2  C   UNL     1       3.615  -4.602  -2.835  0.00  0.00    +0.009 C 
ATOM      3  C   UNL     1       2.418  -3.654  -2.913  0.00  0.00    +0.037 C 
ATOM      4  C   UNL     1       2.906  -2.282  -3.365  0.00  0.00    -0.023 A 
ATOM      5  C   UNL     1       4.104  -2.139  -3.974  0.00  0.00    -0.004 A 
ATOM      6  S   UNL     1       4.242  -0.404  -4.311  0.00  0.00    -0.078 S 
ATOM      7  C   UNL     1       2.746   0.116  -3.660  0.00  0.00    +0.080 A 
ATOM      8  C   UNL     1       2.145  -1.057  -3.179  0.00  0.00    +0.068 A 
ATOM      9  C   UNL     1       0.817  -0.932  -2.536  0.00  0.00    +0.248 C 
ATOM     10  O   UNL     1       0.183  -1.913  -2.195  0.00  0.00    -0.270 OA
ATOM     11  N   UNL     1       0.339   0.316  -2.343  0.00  0.00    -0.289 N 
ATOM     12  C   UNL     1       1.145   1.521  -2.507  0.00  0.00    +0.194 C 
ATOM     13  N   UNL     1       2.155   1.349  -3.567  0.00  0.00    -0.316 N 
ATOM     14  C   UNL     1       5.092  -3.219  -4.291  0.00  0.00    +0.046 C 
ATOM     15  H   UNL     1      -0.589   0.416  -2.081  0.00  0.00    +0.151 HD
ATOM     16  H   UNL     1       2.390   2.073  -4.169  0.00  0.00    +0.149 HD
ENDROOT
BRANCH  12  17
ATOM     17  C   UNL     1       1.842   1.830  -1.207  0.00  0.00    +0.032 A 
ATOM     18  C   UNL     1       3.096   2.409  -1.217  0.00  0.00    +0.014 A 
ATOM     19  C   UNL     1       3.737   2.694  -0.026  0.00  0.00    +0.046 A 
ATOM     20  C   UNL     1       3.122   2.398   1.182  0.00  0.00    +0.120 A 
ATOM     21  C   UNL     1       1.862   1.822   1.195  0.00  0.00    +0.091 A 
ATOM     22  C   UNL     1       1.223   1.532  -0.001  0.00  0.00    +0.127 A 
BRANCH  22  23
ATOM     23  O   UNL     1      -0.011   0.963   0.007  0.00  0.00    -0.506 OA
ATOM     24  H   UNL     1       0.002  -0.004   0.002  0.00  0.00    +0.292 HD
ENDBRANCH  22  23
BRANCH  20  25
ATOM     25  O   UNL     1       3.753   2.679   2.353  0.00  0.00    -0.507 OA
ATOM     26  H   UNL     1       3.566   3.562   2.699  0.00  0.00    +0.292 HD
ENDBRANCH  20  25
ENDBRANCH  12  17
BRANCH   1  28
ATOM     27  C   UNL     1       4.722  -7.048  -4.015  0.00  0.00    +0.011 C 
ATOM     28  C   UNL     1       5.427  -5.698  -4.167  0.00  0.00    -0.035 C 
ATOM     29  C   UNL     1       6.196  -5.670  -5.489  0.00  0.00    +0.011 C 
ATOM     30  C   UNL     1       6.402  -5.499  -3.005  0.00  0.00    +0.011 C 
ENDBRANCH   1  28
TORSDOF 4
