REMARK  Name = ZINC06305968
REMARK  14 active torsions:
REMARK  status: ('A' for Active; 'I' for Inactive)
REMARK    1  A    between atoms: C_1  and  C_2
REMARK    2  A    between atoms: C_2  and  C_3
REMARK    3  A    between atoms: C_2  and  C_4
REMARK    4  A    between atoms: C_2  and  C_5
REMARK    5  A    between atoms: C_5  and  C_6
REMARK    6  A    between atoms: C_6  and  C_7
REMARK    7  A    between atoms: C_6  and  C_8
REMARK    8  A    between atoms: C_6  and  N_48
REMARK    9  A    between atoms: C_9  and  C_10
REMARK   10  A    between atoms: C_9  and  N_48
REMARK   11  A    between atoms: C_10  and  C_12
REMARK   12  A    between atoms: C_10  and  O_21
REMARK   13  A    between atoms: C_12  and  O_13
REMARK   14  A    between atoms: O_13  and  C_14
REMARK                            x       y       z     vdW  Elec       q    Type
REMARK                         _______ _______ _______ _____ _____    ______ ____
ROOT
ATOM      1  C   UNL     1       0.176  -0.731  -1.067  0.00  0.00    -0.047 C 
ENDROOT
BRANCH   1   2
ATOM      2  N   UNL     1      -0.184   0.178  -2.172  0.00  0.00    +0.384 N 
ATOM      3  H   UNL     1      -1.185   0.401  -2.115  0.00  0.00    -0.085 HD
ATOM      4  H   UNL     1       0.364   1.043  -2.091  0.00  0.00    -0.085 HD
BRANCH   2   5
ATOM      5  C   UNL     1       0.100  -0.458  -3.471  0.00  0.00    -0.073 C 
ATOM      6  C   UNL     1       1.591  -0.788  -3.567  0.00  0.00    -0.010 C 
ATOM      7  C   UNL     1      -0.717  -1.745  -3.603  0.00  0.00    -0.010 C 
BRANCH   5   8
ATOM      8  C   UNL     1      -0.282   0.506  -4.596  0.00  0.00    -0.007 C 
BRANCH   8  10
ATOM      9  C   UNL     1       0.219  -1.472  -6.038  0.00  0.00    +0.010 C 
ATOM     10  C   UNL     1       0.364   0.046  -5.904  0.00  0.00    -0.039 C 
ATOM     11  C   UNL     1      -0.329   0.730  -7.084  0.00  0.00    +0.010 C 
ATOM     12  C   UNL     1       1.848   0.418  -5.899  0.00  0.00    +0.010 C 
ENDBRANCH   8  10
ENDBRANCH   5   8
ENDBRANCH   2   5
ENDBRANCH   1   2
BRANCH   1  13
ATOM     13  C   UNL     1      -0.130  -0.044   0.266  0.00  0.00    +0.135 C 
BRANCH  13  14
ATOM     14  O   UNL     1       0.632   1.160   0.368  0.00  0.00    -0.390 OA
ATOM     15  H   UNL     1       1.589   1.025   0.329  0.00  0.00    +0.210 HD
ENDBRANCH  13  14
BRANCH  13  16
ATOM     16  C   UNL     1       0.241  -0.981   1.418  0.00  0.00    +0.258 C 
BRANCH  16  17
ATOM     17  O   UNL     1      -0.151  -0.389   2.658  0.00  0.00    -0.489 OA
BRANCH  17  18
ATOM     18  C   UNL     1       0.108  -1.097   3.789  0.00  0.00    +0.121 A 
ATOM     19  C   UNL     1       0.722  -2.338   3.707  0.00  0.00    +0.047 A 
ATOM     20  C   UNL     1       0.990  -3.053   4.858  0.00  0.00    +0.019 A 
ATOM     21  C   UNL     1       0.636  -2.537   6.092  0.00  0.00    +0.018 A 
ATOM     22  C   UNL     1       0.018  -1.302   6.176  0.00  0.00    +0.019 A 
ATOM     23  C   UNL     1      -0.246  -0.581   5.028  0.00  0.00    +0.047 A 
ATOM     24 BR   UNL     1       0.997  -3.521   7.665  0.00  0.00    -0.050 Br
ENDBRANCH  17  18
ENDBRANCH  16  17
ENDBRANCH  13  16
ENDBRANCH   1  13
TORSDOF 9
