REMARK  Name = ZINC09428996
REMARK  10 active torsions:
REMARK  status: ('A' for Active; 'I' for Inactive)
REMARK    1  A    between atoms: C_1  and  C_2
REMARK    2  A    between atoms: C_7  and  N_8
REMARK    3  A    between atoms: C_9  and  C_11
REMARK    4  A    between atoms: C_11  and  C_13
REMARK    5  A    between atoms: C_11  and  N_20
REMARK    6  A    between atoms: C_13  and  C_14
REMARK    7  A    between atoms: N_20  and  S_21
REMARK    8  A    between atoms: S_21  and  C_24
REMARK    9  A    between atoms: C_31  and  C_37
REMARK   10  A    between atoms: C_34  and  C_36
REMARK                            x       y       z     vdW  Elec       q    Type
REMARK                         _______ _______ _______ _____ _____    ______ ____
ROOT
ATOM      1  C   UNL     1       0.988   0.799  -0.553  0.00  0.00    +0.167 C 
ENDROOT
BRANCH   1   3
ATOM      2  N   UNL     1       3.236   0.170   0.266  0.00  0.00    -0.284 N 
ATOM      3  C   UNL     1       1.900   0.005   0.346  0.00  0.00    +0.236 C 
ATOM      4  O   UNL     1       1.433  -0.782   1.142  0.00  0.00    -0.274 OA
ATOM      5  H   UNL     1       3.614   0.738  -0.424  0.00  0.00    +0.155 HD
BRANCH   2  12
ATOM      6  C   UNL     1       5.939  -0.290  -0.493  0.00  0.00    +0.045 C 
ATOM      7  C   UNL     1       5.403  -0.723   0.848  0.00  0.00    -0.029 A 
ATOM      8  C   UNL     1       6.230  -1.363   1.750  0.00  0.00    +0.005 A 
ATOM      9  C   UNL     1       5.739  -1.759   2.980  0.00  0.00    +0.000 A 
ATOM     10  C   UNL     1       4.419  -1.516   3.312  0.00  0.00    +0.002 A 
ATOM     11  C   UNL     1       3.588  -0.872   2.416  0.00  0.00    +0.023 A 
ATOM     12  C   UNL     1       4.077  -0.478   1.177  0.00  0.00    +0.036 A 
ENDBRANCH   2  12
ENDBRANCH   1   3
BRANCH   1  13
ATOM     13  N   UNL     1      -0.405   0.441  -0.274  0.00  0.00    -0.178 NA
ATOM     14  H   UNL     1      -0.804  -0.330  -0.706  0.00  0.00    +0.149 HD
BRANCH  13  15
ATOM     15  S   UNL     1      -1.301   1.357   0.776  0.00  0.00    +0.059 S 
ATOM     16  O   UNL     1      -2.596   0.774   0.820  0.00  0.00    -0.153 OA
ATOM     17  O   UNL     1      -0.506   1.536   1.940  0.00  0.00    -0.153 OA
BRANCH  15  18
ATOM     18  C   UNL     1      -1.490   2.950   0.046  0.00  0.00    +0.106 A 
ATOM     19  C   UNL     1      -2.619   3.241  -0.699  0.00  0.00    +0.030 A 
ATOM     20  C   UNL     1      -2.770   4.487  -1.270  0.00  0.00    +0.026 A 
ATOM     21  C   UNL     1      -1.786   5.462  -1.104  0.00  0.00    +0.040 A 
ATOM     22  C   UNL     1      -0.658   5.160  -0.356  0.00  0.00    -0.022 A 
ATOM     23  C   UNL     1      -0.514   3.913   0.221  0.00  0.00    +0.034 A 
ATOM     24  C   UNL     1       0.242   6.375  -0.330  0.00  0.00    +0.059 C 
ATOM     25  C   UNL     1      -0.507   7.429  -1.161  0.00  0.00    +0.083 C 
ATOM     26  N   UNL     1      -1.743   6.771  -1.593  0.00  0.00    -0.268 N 
ATOM     27  C   UNL     1      -2.699   7.344  -2.351  0.00  0.00    +0.217 C 
ATOM     28  O   UNL     1      -3.731   6.748  -2.579  0.00  0.00    -0.276 OA
ATOM     29  C   UNL     1      -2.487   8.726  -2.915  0.00  0.00    +0.109 C 
ATOM     30  C   UNL     1       0.329   7.841  -2.375  0.00  0.00    +0.029 C 
ENDBRANCH  15  18
ENDBRANCH  13  15
ENDBRANCH   1  13
BRANCH   1  31
ATOM     31  C   UNL     1       1.312   0.484  -2.015  0.00  0.00    +0.065 C 
BRANCH  31  32
ATOM     32  C   UNL     1       0.477   1.359  -2.914  0.00  0.00    -0.045 A 
ATOM     33  C   UNL     1      -0.801   0.967  -3.267  0.00  0.00    +0.004 A 
ATOM     34  C   UNL     1      -1.569   1.771  -4.088  0.00  0.00    +0.000 A 
ATOM     35  C   UNL     1      -1.055   2.963  -4.564  0.00  0.00    +0.000 A 
ATOM     36  C   UNL     1       0.225   3.353  -4.215  0.00  0.00    +0.000 A 
ATOM     37  C   UNL     1       0.991   2.551  -3.390  0.00  0.00    +0.004 A 
ENDBRANCH  31  32
ENDBRANCH   1  31
TORSDOF 7
