REMARK  Name = ZINC32891856
REMARK  6 active torsions:
REMARK  status: ('A' for Active; 'I' for Inactive)
REMARK    1  A    between atoms: C_4  and  C_7
REMARK    2  A    between atoms: C_7  and  N_8
REMARK    3  A    between atoms: C_17  and  C_19
REMARK    4  A    between atoms: C_19  and  S_20
REMARK    5  A    between atoms: S_20  and  C_21
REMARK    6  A    between atoms: C_21  and  C_22
REMARK                            x       y       z     vdW  Elec       q    Type
REMARK                         _______ _______ _______ _____ _____    ______ ____
ROOT
ATOM      1  N   UNL     1       2.859   4.194  -1.388  0.00  0.00    +0.386 N 
ATOM      2  C   UNL     1       3.982   5.141  -1.440  0.00  0.00    -0.072 C 
ATOM      3  C   UNL     1       4.635   5.116  -2.825  0.00  0.00    +0.038 C 
ATOM      4  C   UNL     1       3.542   5.313  -3.870  0.00  0.00    +0.050 A 
ATOM      5  C   UNL     1       2.243   5.107  -3.523  0.00  0.00    -0.002 A 
ATOM      6  S   UNL     1       1.379   5.454  -5.029  0.00  0.00    -0.059 S 
ATOM      7  C   UNL     1       2.776   5.838  -5.991  0.00  0.00    +0.165 A 
ATOM      8  N   UNL     1       3.759   5.681  -5.127  0.00  0.00    -0.229 NA
ATOM      9  N   UNL     1       2.839   6.216  -7.327  0.00  0.00    -0.264 N 
ATOM     10  C   UNL     1       4.032   6.474  -7.899  0.00  0.00    +0.228 C 
ATOM     11  O   UNL     1       5.051   6.378  -7.247  0.00  0.00    -0.275 OA
ATOM     12  C   UNL     1       1.722   4.690  -2.190  0.00  0.00    -0.033 C 
ATOM     13  H   UNL     1       1.916   6.303  -7.918  0.00  0.00    +0.157 HD
ATOM     14  H   UNL     1       3.198   3.240  -1.818  0.00  0.00    -0.081 HD
ENDROOT
BRANCH   1  15
ATOM     15  C   UNL     1       2.451   3.937  -0.001  0.00  0.00    -0.043 C 
BRANCH  15  19
ATOM     16  C   UNL     1      -1.219   1.751   0.017  0.00  0.00    +0.000 A 
ATOM     17  C   UNL     1      -0.013   1.076   0.008  0.00  0.00    +0.000 A 
ATOM     18  C   UNL     1       1.175   1.783   0.000  0.00  0.00    +0.002 A 
ATOM     19  C   UNL     1       1.156   3.165   0.008  0.00  0.00    -0.064 A 
ATOM     20  C   UNL     1      -0.050   3.840   0.023  0.00  0.00    +0.002 A 
ATOM     21  C   UNL     1      -1.238   3.133   0.030  0.00  0.00    +0.000 A 
ENDBRANCH  15  19
ENDBRANCH   1  15
BRANCH  10  22
ATOM     22  C   UNL     1       4.101   6.883  -9.347  0.00  0.00    +0.165 C 
BRANCH  22  23
ATOM     23  S   UNL     1       5.831   7.159  -9.817  0.00  0.00    -0.146 S 
BRANCH  23  24
ATOM     24  C   UNL     1       5.742   7.638 -11.564  0.00  0.00    +0.112 C 
BRANCH  24  25
ATOM     25  C   UNL     1       7.131   7.899 -12.085  0.00  0.00    +0.001 A 
ATOM     26  C   UNL     1       8.002   7.036 -12.662  0.00  0.00    +0.013 A 
ATOM     27  C   UNL     1       9.239   7.503 -13.069  0.00  0.00    +0.028 A 
ATOM     28  C   UNL     1       9.542   8.811 -12.879  0.00  0.00    +0.078 A 
ATOM     29  S   UNL     1       8.053   9.428 -12.111  0.00  0.00    -0.081 S 
ATOM     30 CL   UNL     1      10.997   9.666 -13.285  0.00  0.00    -0.076 Cl
ENDBRANCH  24  25
ENDBRANCH  23  24
ENDBRANCH  22  23
ENDBRANCH  10  22
TORSDOF 6
