REMARK  Name = ZINC11841320
REMARK  10 active torsions:
REMARK  status: ('A' for Active; 'I' for Inactive)
REMARK    1  A    between atoms: C_1  and  C_2
REMARK    2  A    between atoms: C_2  and  C_4
REMARK    3  A    between atoms: C_2  and  N_26
REMARK    4  A    between atoms: C_13  and  C_14
REMARK    5  A    between atoms: C_13  and  N_69
REMARK    6  A    between atoms: C_23  and  O_24
REMARK    7  A    between atoms: O_24  and  C_25
REMARK    8  A    between atoms: C_27  and  C_29
REMARK    9  A    between atoms: C_29  and  C_30
REMARK   10  A    between atoms: C_30  and  C_31
REMARK                            x       y       z     vdW  Elec       q    Type
REMARK                         _______ _______ _______ _____ _____    ______ ____
ROOT
ATOM      1  C   UNL     1      -6.294   6.071  -1.668  0.00  0.00    +0.154 A 
ATOM      2  N   UNL     1      -6.618   5.404  -2.744  0.00  0.00    -0.132 NA
ATOM      3  N   UNL     1      -5.559   5.138  -3.426  0.00  0.00    -0.134 NA
ATOM      4  C   UNL     1      -4.517   5.628  -2.821  0.00  0.00    +0.132 A 
ATOM      5  N   UNL     1      -4.952   6.218  -1.680  0.00  0.00    -0.315 N 
ATOM      6  C   UNL     1      -4.111   6.860  -0.669  0.00  0.00    +0.106 C 
ATOM      7  C   UNL     1      -2.838   7.389  -1.335  0.00  0.00    -0.056 C 
ATOM      8  C   UNL     1      -2.205   5.161  -2.083  0.00  0.00    -0.071 C 
ATOM      9  C   UNL     1      -3.079   5.576  -3.270  0.00  0.00    +0.058 C 
ATOM     10  N   UNL     1      -1.770   6.362  -1.338  0.00  0.00    +0.384 N 
ATOM     11  H   UNL     1      -0.938   6.752  -1.796  0.00  0.00    -0.081 HD
ENDROOT
BRANCH   1  13
ATOM     12  C   UNL     1      -7.711   5.415   0.258  0.00  0.00    +0.036 C 
ATOM     13  C   UNL     1      -7.240   6.582  -0.612  0.00  0.00    +0.138 C 
BRANCH  13  14
ATOM     14  N   UNL     1      -8.397   7.210  -1.255  0.00  0.00    -0.306 N 
ATOM     15  C   UNL     1      -9.103   8.152  -0.600  0.00  0.00    +0.214 C 
ATOM     16  O   UNL     1      -8.781   8.480   0.523  0.00  0.00    -0.276 OA
ATOM     17  H   UNL     1      -8.654   6.947  -2.153  0.00  0.00    +0.149 HD
BRANCH  15  18
ATOM     18  C   UNL     1     -10.293   8.798  -1.261  0.00  0.00    +0.100 C 
BRANCH  18  19
ATOM     19  C   UNL     1     -10.911   9.824  -0.310  0.00  0.00    +0.044 C 
BRANCH  19  20
ATOM     20  C   UNL     1     -12.101  10.470  -0.971  0.00  0.00    -0.047 A 
ATOM     21  C   UNL     1     -11.935  11.618  -1.723  0.00  0.00    +0.003 A 
ATOM     22  C   UNL     1     -13.026  12.208  -2.334  0.00  0.00    +0.000 A 
ATOM     23  C   UNL     1     -14.284  11.655  -2.185  0.00  0.00    +0.000 A 
ATOM     24  C   UNL     1     -14.451  10.510  -1.429  0.00  0.00    +0.000 A 
ATOM     25  C   UNL     1     -13.359   9.917  -0.822  0.00  0.00    +0.003 A 
ENDBRANCH  19  20
ENDBRANCH  18  19
ENDBRANCH  15  18
ENDBRANCH  13  14
ENDBRANCH   1  13
BRANCH  10  26
ATOM     26  C   UNL     1      -1.423   5.995   0.047  0.00  0.00    -0.039 C 
BRANCH  26  27
ATOM     27  C   UNL     1      -0.058   5.356   0.042  0.00  0.00    -0.015 A 
ATOM     28  C   UNL     1       1.096   6.157   0.043  0.00  0.00    -0.013 A 
ATOM     29  C   UNL     1       1.010   7.560   0.050  0.00  0.00    +0.009 A 
ATOM     30  C   UNL     1       2.150   8.304   0.057  0.00  0.00    +0.001 A 
ATOM     31  C   UNL     1       3.404   7.696   0.047  0.00  0.00    +0.001 A 
ATOM     32  C   UNL     1       3.526   6.340   0.040  0.00  0.00    +0.008 A 
ATOM     33  C   UNL     1       2.372   5.538   0.039  0.00  0.00    -0.017 A 
ATOM     34  C   UNL     1       2.459   4.135   0.033  0.00  0.00    +0.012 A 
ATOM     35  C   UNL     1       1.323   3.388   0.032  0.00  0.00    +0.046 A 
ATOM     36  C   UNL     1       0.063   3.996   0.036  0.00  0.00    +0.122 A 
BRANCH  36  37
ATOM     37  O   UNL     1      -1.054   3.223   0.035  0.00  0.00    -0.495 OA
ATOM     38  C   UNL     1      -0.864   1.807   0.029  0.00  0.00    +0.277 C 
ENDBRANCH  36  37
ENDBRANCH  26  27
ENDBRANCH  10  26
TORSDOF 8
