REMARK  Name = ZINC63738142
REMARK  5 active torsions:
REMARK  status: ('A' for Active; 'I' for Inactive)
REMARK    1  A    between atoms: C_1  and  C_2
REMARK    2  A    between atoms: C_2  and  C_4
REMARK    3  A    between atoms: C_2  and  C_22
REMARK    4  A    between atoms: C_10  and  C_12
REMARK    5  A    between atoms: N_24  and  C_25
REMARK                            x       y       z     vdW  Elec       q    Type
REMARK                         _______ _______ _______ _____ _____    ______ ____
ROOT
ATOM      1  C   UNL     1       0.742  -0.511   1.242  0.00  0.00    +0.004 C 
ATOM      2  C   UNL     1       2.177   0.020   1.231  0.00  0.00    +0.023 C 
ATOM      3  C   UNL     1       2.905  -0.461   2.491  0.00  0.00    +0.108 C 
ATOM      4  N   UNL     1       2.804  -1.924   2.566  0.00  0.00    -0.300 N 
ATOM      5  C   UNL     1       1.474  -2.545   2.493  0.00  0.00    +0.108 C 
ATOM      6  C   UNL     1       0.763  -2.041   1.233  0.00  0.00    +0.023 C 
ATOM      7  C   UNL     1       3.909  -2.683   2.698  0.00  0.00    +0.242 C 
ATOM      8  O   UNL     1       5.001  -2.159   2.757  0.00  0.00    -0.273 OA
ENDROOT
BRANCH   7   9
ATOM      9  C   UNL     1       3.789  -4.184   2.773  0.00  0.00    +0.190 C 
ATOM     10  C   UNL     1       2.993  -4.582   3.996  0.00  0.00    +0.016 C 
ATOM     11  C   UNL     1       3.822  -5.337   4.753  0.00  0.00    -0.004 A 
ATOM     12  C   UNL     1       3.649  -6.013   6.044  0.00  0.00    +0.010 A 
ATOM     13  C   UNL     1       4.686  -6.710   6.563  0.00  0.00    +0.001 A 
ATOM     14  C   UNL     1       5.918  -6.801   5.901  0.00  0.00    +0.002 A 
ATOM     15  C   UNL     1       6.152  -6.207   4.712  0.00  0.00    +0.026 A 
ATOM     16  C   UNL     1       5.133  -5.449   4.074  0.00  0.00    +0.043 A 
ATOM     17  N   UNL     1       5.115  -4.789   2.939  0.00  0.00    -0.370 N 
ATOM     18  H   UNL     1       5.854  -4.715   2.315  0.00  0.00    +0.161 HD
ENDBRANCH   7   9
BRANCH   1  20
ATOM     19  C   UNL     1      -0.019   1.526   0.010  0.00  0.00    +0.017 C 
ATOM     20  C   UNL     1       0.002  -0.004   0.002  0.00  0.00    +0.075 C 
BRANCH  20  21
ATOM     21  C   UNL     1      -1.412  -0.526   0.013  0.00  0.00    +0.216 C 
ATOM     22  O   UNL     1      -1.790  -1.233   0.922  0.00  0.00    -0.276 OA
ATOM     23  N   UNL     1      -2.256  -0.206  -0.988  0.00  0.00    -0.312 N 
ATOM     24  H   UNL     1      -1.953   0.360  -1.716  0.00  0.00    +0.149 HD
BRANCH  23  25
ATOM     25  C   UNL     1      -3.630  -0.713  -0.978  0.00  0.00    +0.073 C 
ATOM     26  C   UNL     1      -3.662  -2.113  -1.595  0.00  0.00    +0.022 C 
ATOM     27  C   UNL     1      -5.097  -2.642  -1.584  0.00  0.00    +0.002 C 
ATOM     28  C   UNL     1      -5.992  -1.706  -2.398  0.00  0.00    +0.000 C 
ATOM     29  C   UNL     1      -5.961  -0.306  -1.781  0.00  0.00    +0.002 C 
ATOM     30  C   UNL     1      -4.525   0.223  -1.792  0.00  0.00    +0.022 C 
ENDBRANCH  23  25
ENDBRANCH  20  21
ENDBRANCH   1  20
TORSDOF 4
