REMARK  Name = ZINC64302542
REMARK  5 active torsions:
REMARK  status: ('A' for Active; 'I' for Inactive)
REMARK    1  A    between atoms: C_1  and  C_2
REMARK    2  A    between atoms: C_2  and  C_3
REMARK    3  A    between atoms: C_3  and  C_4
REMARK    4  A    between atoms: C_4  and  C_5
REMARK    5  A    between atoms: C_4  and  N_18
REMARK                            x       y       z     vdW  Elec       q    Type
REMARK                         _______ _______ _______ _____ _____    ______ ____
ROOT
ATOM      1  C   UNL     1      -2.826  -2.585   0.015  0.00  0.00    +0.240 C 
ATOM      2  O   UNL     1      -3.245  -3.180   0.986  0.00  0.00    -0.273 OA
ATOM      3  N   UNL     1      -3.639  -2.350  -1.034  0.00  0.00    -0.270 N 
ATOM      4  C   UNL     1      -3.128  -1.688  -2.241  0.00  0.00    +0.114 C 
ATOM      5  C   UNL     1      -4.154  -0.629  -2.665  0.00  0.00    +0.024 C 
ATOM      6  C   UNL     1      -5.463  -1.328  -3.033  0.00  0.00    +0.038 C 
ATOM      7  C   UNL     1      -5.890  -2.261  -1.931  0.00  0.00    -0.025 A 
ATOM      8  C   UNL     1      -4.986  -2.738  -0.993  0.00  0.00    +0.040 A 
ATOM      9  C   UNL     1      -5.410  -3.606   0.006  0.00  0.00    +0.025 A 
ATOM     10  C   UNL     1      -6.733  -3.999   0.066  0.00  0.00    +0.017 A 
ATOM     11  C   UNL     1      -7.635  -3.526  -0.870  0.00  0.00    +0.018 A 
ATOM     12  C   UNL     1      -7.216  -2.652  -1.861  0.00  0.00    +0.020 A 
ATOM     13 BR   UNL     1      -9.447  -4.062  -0.789  0.00  0.00    -0.050 Br
ENDROOT
BRANCH   1  14
ATOM     14  C   UNL     1      -1.397  -2.109  -0.018  0.00  0.00    +0.161 C 
BRANCH  14  15
ATOM     15  N   UNL     1      -0.624  -2.812   1.009  0.00  0.00    -0.288 N 
ATOM     16  C   UNL     1       0.709  -2.956   0.869  0.00  0.00    +0.298 C 
ATOM     17  O   UNL     1       1.270  -2.502  -0.109  0.00  0.00    -0.253 OA
ATOM     18  N   UNL     1       1.419  -3.603   1.814  0.00  0.00    -0.313 N 
ATOM     19  H   UNL     1      -1.072  -3.175   1.790  0.00  0.00    +0.151 HD
ATOM     20  H   UNL     1       0.972  -3.965   2.595  0.00  0.00    +0.146 HD
ATOM     21  H   UNL     1       2.379  -3.707   1.714  0.00  0.00    +0.146 HD
ENDBRANCH  14  15
BRANCH  14  22
ATOM     22  C   UNL     1      -1.354  -0.604   0.253  0.00  0.00    +0.031 C 
BRANCH  22  24
ATOM     23  C   UNL     1       0.123   1.409   0.354  0.00  0.00    +0.004 C 
ATOM     24  C   UNL     1       0.080  -0.096   0.084  0.00  0.00    -0.001 C 
ENDBRANCH  22  24
ENDBRANCH  14  22
ENDBRANCH   1  14
TORSDOF 4
