REMARK  Name = ZINC18276055
REMARK  5 active torsions:
REMARK  status: ('A' for Active; 'I' for Inactive)
REMARK    1  A    between atoms: C_1  and  O_2
REMARK    2  A    between atoms: O_2  and  C_3
REMARK    3  A    between atoms: C_6  and  C_9
REMARK    4  A    between atoms: C_14  and  C_24
REMARK    5  A    between atoms: C_28  and  O_30
REMARK                            x       y       z     vdW  Elec       q    Type
REMARK                         _______ _______ _______ _____ _____    ______ ____
ROOT
ATOM      1  C   UNL     1       5.731  -1.406  -2.494  0.00  0.00    +0.032 C 
ATOM      2  C   UNL     1       5.423  -1.130  -1.024  0.00  0.00    +0.059 C 
ATOM      3  C   UNL     1       3.955  -1.398  -0.740  0.00  0.00    +0.017 C 
ATOM      4  C   UNL     1       3.290  -2.347  -1.420  0.00  0.00    +0.036 C 
ATOM      5  C   UNL     1       1.838  -2.717  -1.236  0.00  0.00    +0.136 C 
ATOM      6  N   UNL     1       1.217  -2.145  -0.059  0.00  0.00    -0.331 N 
ATOM      7  C   UNL     1       1.057  -0.766   0.068  0.00  0.00    +0.049 A 
ATOM      8  C   UNL     1      -0.200  -0.182   0.062  0.00  0.00    +0.025 A 
ATOM      9  C   UNL     1      -0.309   1.196   0.124  0.00  0.00    +0.002 A 
ATOM     10  C   UNL     1       0.825   1.987   0.176  0.00  0.00    +0.002 A 
ATOM     11  C   UNL     1       2.081   1.406   0.186  0.00  0.00    +0.025 A 
ATOM     12  C   UNL     1       2.191   0.027   0.151  0.00  0.00    +0.052 A 
ATOM     13  N   UNL     1       3.416  -0.624   0.237  0.00  0.00    -0.316 N 
ATOM     14  C   UNL     1       3.951  -3.104  -2.416  0.00  0.00    +0.163 C 
ATOM     15  O   UNL     1       3.332  -3.971  -3.002  0.00  0.00    -0.292 OA
ATOM     16  C   UNL     1       5.389  -2.875  -2.774  0.00  0.00    +0.088 C 
ATOM     17  H   UNL     1       0.908  -2.730   0.650  0.00  0.00    +0.147 HD
ATOM     18  H   UNL     1       3.925  -0.517   1.056  0.00  0.00    +0.152 HD
ENDROOT
BRANCH   1  22
ATOM     19  C   UNL     1       9.876  -0.709  -3.263  0.00  0.00    +0.120 A 
ATOM     20  C   UNL     1       8.911   0.019  -3.944  0.00  0.00    +0.046 A 
ATOM     21  C   UNL     1       7.572  -0.208  -3.693  0.00  0.00    +0.007 A 
ATOM     22  C   UNL     1       7.193  -1.160  -2.765  0.00  0.00    -0.043 A 
ATOM     23  C   UNL     1       8.153  -1.883  -2.082  0.00  0.00    +0.007 A 
ATOM     24  C   UNL     1       9.493  -1.664  -2.333  0.00  0.00    +0.046 A 
BRANCH  19  26
ATOM     25  C   UNL     1      12.132  -1.274  -2.771  0.00  0.00    +0.277 C 
ATOM     26  O   UNL     1      11.194  -0.487  -3.508  0.00  0.00    -0.495 OA
ENDBRANCH  19  26
ENDBRANCH   1  22
BRANCH   5  27
ATOM     27  C   UNL     1       1.073  -2.257  -2.450  0.00  0.00    -0.019 A 
ATOM     28  C   UNL     1       0.487  -3.186  -3.290  0.00  0.00    +0.006 A 
ATOM     29  C   UNL     1      -0.219  -2.767  -4.402  0.00  0.00    +0.004 A 
ATOM     30  C   UNL     1      -0.332  -1.419  -4.683  0.00  0.00    +0.045 A 
ATOM     31  C   UNL     1       0.259  -0.485  -3.845  0.00  0.00    +0.117 A 
ATOM     32  C   UNL     1       0.963  -0.908  -2.726  0.00  0.00    +0.051 A 
BRANCH  31  33
ATOM     33  O   UNL     1       0.149   0.841  -4.119  0.00  0.00    -0.507 OA
ATOM     34  H   UNL     1       0.858   1.188  -4.678  0.00  0.00    +0.292 HD
ENDBRANCH  31  33
ENDBRANCH   5  27
TORSDOF 4
