REMARK  Name = ZINC36705918
REMARK  8 active torsions:
REMARK  status: ('A' for Active; 'I' for Inactive)
REMARK    1  A    between atoms: C_1  and  C_2
REMARK    2  A    between atoms: C_2  and  C_3
REMARK    3  A    between atoms: C_2  and  C_4
REMARK    4  A    between atoms: C_2  and  C_5
REMARK    5  A    between atoms: N_13  and  C_17
REMARK    6  A    between atoms: C_17  and  C_18
REMARK    7  A    between atoms: N_20  and  C_21
REMARK    8  A    between atoms: C_21  and  C_22
REMARK                            x       y       z     vdW  Elec       q    Type
REMARK                         _______ _______ _______ _____ _____    ______ ____
ROOT
ATOM      1  C   UNL     1       0.718  -0.497  -1.257  0.00  0.00    -0.005 C 
ATOM      2  C   UNL     1       0.738  -2.027  -1.265  0.00  0.00    +0.006 C 
ATOM      3  C   UNL     1       1.444  -2.520  -2.531  0.00  0.00    +0.035 C 
ATOM      4  C   UNL     1       2.868  -1.976  -2.567  0.00  0.00    +0.113 C 
ATOM      5  C   UNL     1       2.865  -0.452  -2.534  0.00  0.00    +0.035 C 
ATOM      6  C   UNL     1       2.154   0.032  -1.268  0.00  0.00    +0.006 C 
ATOM      7  C   UNL     1       3.673  -2.528  -1.413  0.00  0.00    +0.247 C 
ATOM      8  O   UNL     1       3.458  -2.379  -0.230  0.00  0.00    -0.273 OA
ATOM      9  N   UNL     1       4.683  -3.223  -1.978  0.00  0.00    -0.215 N 
ATOM     10  C   UNL     1       4.622  -3.182  -3.315  0.00  0.00    +0.310 C 
ATOM     11  O   UNL     1       5.422  -3.733  -4.045  0.00  0.00    -0.252 OA
ATOM     12  N   UNL     1       3.574  -2.462  -3.760  0.00  0.00    -0.285 N 
ATOM     13  H   UNL     1       3.333  -2.298  -4.685  0.00  0.00    +0.151 HD
ENDROOT
BRANCH   1  15
ATOM     14  C   UNL     1      -0.019   1.526   0.010  0.00  0.00    +0.011 C 
ATOM     15  C   UNL     1       0.002  -0.004   0.002  0.00  0.00    -0.035 C 
ATOM     16  C   UNL     1       0.742  -0.511   1.242  0.00  0.00    +0.011 C 
ATOM     17  C   UNL     1      -1.433  -0.534   0.013  0.00  0.00    +0.011 C 
ENDBRANCH   1  15
BRANCH   9  18
ATOM     18  C   UNL     1       5.718  -3.932  -1.222  0.00  0.00    +0.213 C 
BRANCH  18  19
ATOM     19  C   UNL     1       5.269  -5.347  -0.961  0.00  0.00    +0.231 C 
ATOM     20  O   UNL     1       4.190  -5.725  -1.367  0.00  0.00    -0.274 OA
ATOM     21  N   UNL     1       6.065  -6.192  -0.277  0.00  0.00    -0.310 N 
ATOM     22  H   UNL     1       6.928  -5.889   0.047  0.00  0.00    +0.149 HD
BRANCH  21  23
ATOM     23  C   UNL     1       5.628  -7.567  -0.023  0.00  0.00    +0.139 C 
BRANCH  23  24
ATOM     24  C   UNL     1       6.693  -8.297   0.754  0.00  0.00    -0.027 A 
ATOM     25  C   UNL     1       7.692  -8.977   0.084  0.00  0.00    +0.009 A 
ATOM     26  C   UNL     1       8.672  -9.648   0.792  0.00  0.00    +0.050 A 
ATOM     27  C   UNL     1       8.653  -9.640   2.178  0.00  0.00    +0.166 A 
ATOM     28  C   UNL     1       7.647  -8.954   2.853  0.00  0.00    +0.167 A 
ATOM     29  C   UNL     1       6.672  -8.280   2.136  0.00  0.00    +0.054 A 
ATOM     30  O   UNL     1       7.848  -9.096   4.196  0.00  0.00    -0.453 OA
ATOM     31  C   UNL     1       8.748 -10.211   4.334  0.00  0.00    +0.466 C 
ATOM     32  O   UNL     1       9.485 -10.211   3.097  0.00  0.00    -0.453 OA
ENDBRANCH  23  24
ENDBRANCH  21  23
ENDBRANCH  18  19
ENDBRANCH   9  18
TORSDOF 5
