REMARK  Name = ZINC39691314
REMARK  11 active torsions:
REMARK  status: ('A' for Active; 'I' for Inactive)
REMARK    1  A    between atoms: C_1  and  C_2
REMARK    2  A    between atoms: C_2  and  C_3
REMARK    3  A    between atoms: C_3  and  C_4
REMARK    4  A    between atoms: C_4  and  C_6
REMARK    5  A    between atoms: C_4  and  C_7
REMARK    6  A    between atoms: C_11  and  C_20
REMARK    7  A    between atoms: N_22  and  C_23
REMARK    8  A    between atoms: C_23  and  C_24
REMARK    9  A    between atoms: C_24  and  N_25
REMARK   10  A    between atoms: C_26  and  C_28
REMARK   11  A    between atoms: C_28  and  C_29
REMARK                            x       y       z     vdW  Elec       q    Type
REMARK                         _______ _______ _______ _____ _____    ______ ____
ROOT
ATOM      1  C   UNL     1       0.364  -7.447  -2.674  0.00  0.00    +0.218 C 
ATOM      2  O   UNL     1       1.132  -7.808  -1.808  0.00  0.00    -0.275 OA
ATOM      3  N   UNL     1      -0.522  -8.318  -3.196  0.00  0.00    -0.314 N 
ATOM      4  H   UNL     1      -1.135  -8.029  -3.889  0.00  0.00    +0.149 HD
ENDROOT
BRANCH   1   9
ATOM      5  C   UNL     1       1.789  -2.745  -2.502  0.00  0.00    +0.218 C 
ATOM      6  O   UNL     1       2.452  -2.031  -3.224  0.00  0.00    -0.275 OA
ATOM      7  N   UNL     1       1.721  -4.070  -2.742  0.00  0.00    -0.300 N 
ATOM      8  C   UNL     1       0.886  -5.077  -2.046  0.00  0.00    +0.121 C 
ATOM      9  C   UNL     1       0.401  -6.023  -3.168  0.00  0.00    +0.100 C 
ATOM     10  C   UNL     1       1.442  -5.869  -4.289  0.00  0.00    -0.004 C 
ATOM     11  C   UNL     1       2.461  -4.847  -3.765  0.00  0.00    +0.115 C 
ATOM     12  C   UNL     1       0.779  -5.342  -5.558  0.00  0.00    -0.010 C 
ATOM     13  C   UNL     1       1.823  -5.252  -6.674  0.00  0.00    -0.082 C 
ATOM     14  N   UNL     1       2.400  -6.580  -6.916  0.00  0.00    +0.379 N 
ATOM     15  C   UNL     1       3.115  -7.040  -5.720  0.00  0.00    -0.082 C 
ATOM     16  C   UNL     1       2.126  -7.205  -4.562  0.00  0.00    -0.010 C 
ATOM     17  H   UNL     1       1.661  -7.231  -7.135  0.00  0.00    -0.086 HD
ATOM     18  H   UNL     1       3.042  -6.530  -7.692  0.00  0.00    -0.086 HD
BRANCH   5  19
ATOM     19  C   UNL     1       1.041  -2.151  -1.337  0.00  0.00    +0.072 C 
ATOM     20  C   UNL     1      -0.355  -1.720  -1.792  0.00  0.00    +0.017 C 
BRANCH  19  21
ATOM     21  C   UNL     1       1.803  -0.935  -0.808  0.00  0.00    +0.012 C 
BRANCH  21  23
ATOM     22  C   UNL     1       1.873   0.810   0.980  0.00  0.00    +0.004 C 
ATOM     23  C   UNL     1       1.111  -0.407   0.451  0.00  0.00    -0.003 C 
ENDBRANCH  21  23
ENDBRANCH  19  21
ENDBRANCH   5  19
ENDBRANCH   1   9
BRANCH   3  24
ATOM     24  C   UNL     1      -0.557  -9.702  -2.716  0.00  0.00    +0.123 C 
BRANCH  24  25
ATOM     25  C   UNL     1      -1.644 -10.474  -3.467  0.00  0.00    +0.123 C 
BRANCH  25  26
ATOM     26  N   UNL     1      -1.680 -11.858  -2.987  0.00  0.00    -0.314 N 
ATOM     27  C   UNL     1      -2.566 -12.729  -3.509  0.00  0.00    +0.217 C 
ATOM     28  O   UNL     1      -3.333 -12.368  -4.375  0.00  0.00    -0.275 OA
ATOM     29  H   UNL     1      -1.066 -12.147  -2.294  0.00  0.00    +0.149 HD
BRANCH  27  30
ATOM     30  C   UNL     1      -2.603 -14.153  -3.015  0.00  0.00    +0.131 C 
BRANCH  30  31
ATOM     31  C   UNL     1      -3.673 -14.913  -3.754  0.00  0.00    -0.031 A 
ATOM     32  C   UNL     1      -4.919 -15.034  -3.220  0.00  0.00    +0.005 A 
ATOM     33  C   UNL     1      -5.922 -15.733  -3.889  0.00  0.00    +0.001 A 
ATOM     34  C   UNL     1      -5.684 -16.316  -5.096  0.00  0.00    +0.008 A 
ATOM     35  C   UNL     1      -4.410 -16.213  -5.679  0.00  0.00    -0.018 A 
ATOM     36  C   UNL     1      -3.392 -15.496  -5.001  0.00  0.00    -0.014 A 
ATOM     37  C   UNL     1      -2.119 -15.388  -5.588  0.00  0.00    +0.009 A 
ATOM     38  C   UNL     1      -1.883 -15.966  -6.797  0.00  0.00    +0.001 A 
ATOM     39  C   UNL     1      -2.886 -16.665  -7.466  0.00  0.00    +0.001 A 
ATOM     40  C   UNL     1      -4.127 -16.802  -6.923  0.00  0.00    +0.008 A 
ENDBRANCH  30  31
ENDBRANCH  27  30
ENDBRANCH  25  26
ENDBRANCH  24  25
ENDBRANCH   3  24
TORSDOF 9
