REMARK  Name = ZINC67182755
REMARK  7 active torsions:
REMARK  status: ('A' for Active; 'I' for Inactive)
REMARK    1  A    between atoms: C_2  and  C_3
REMARK    2  A    between atoms: C_3  and  N_4
REMARK    3  A    between atoms: C_10  and  C_16
REMARK    4  A    between atoms: N_18  and  C_19
REMARK    5  A    between atoms: C_22  and  O_25
REMARK    6  A    between atoms: O_25  and  C_26
REMARK    7  A    between atoms: C_26  and  C_27
REMARK                            x       y       z     vdW  Elec       q    Type
REMARK                         _______ _______ _______ _____ _____    ______ ____
ROOT
ATOM      1  N   UNL     1      -1.343  -1.708  -1.119  0.00  0.00    -0.283 N 
ATOM      2  C   UNL     1      -1.850  -1.296  -2.301  0.00  0.00    +0.263 A 
ATOM      3  O   UNL     1      -2.338  -0.052  -2.446  0.00  0.00    -0.267 OA
ATOM      4  C   UNL     1      -1.854  -2.206  -3.380  0.00  0.00    +0.065 A 
ATOM      5  C   UNL     1      -2.364  -1.851  -4.637  0.00  0.00    +0.016 A 
ATOM      6  C   UNL     1      -2.350  -2.756  -5.654  0.00  0.00    +0.014 A 
ATOM      7  C   UNL     1      -1.831  -4.046  -5.462  0.00  0.00    +0.039 A 
ATOM      8  C   UNL     1      -1.321  -4.425  -4.231  0.00  0.00    +0.041 A 
ATOM      9  C   UNL     1      -1.326  -3.507  -3.171  0.00  0.00    +0.080 A 
ATOM     10  N   UNL     1      -0.842  -3.829  -1.963  0.00  0.00    -0.222 NA
ATOM     11  C   UNL     1      -0.849  -2.949  -0.974  0.00  0.00    +0.183 A 
ATOM     12  S   UNL     1      -0.212  -3.411   0.547  0.00  0.00    -0.011 S 
ENDROOT
BRANCH   7  13
ATOM     13  C   UNL     1      -1.829  -5.011  -6.585  0.00  0.00    +0.248 C 
ATOM     14  O   UNL     1      -1.380  -6.130  -6.425  0.00  0.00    -0.270 OA
ATOM     15  N   UNL     1      -2.324  -4.650  -7.785  0.00  0.00    -0.281 N 
ATOM     16  H   UNL     1      -2.742  -3.782  -7.896  0.00  0.00    +0.155 HD
BRANCH  15  17
ATOM     17  C   UNL     1      -2.234  -5.527  -8.873  0.00  0.00    +0.034 A 
ATOM     18  C   UNL     1      -2.026  -5.029 -10.152  0.00  0.00    +0.027 A 
ATOM     19  C   UNL     1      -1.937  -5.894 -11.224  0.00  0.00    +0.047 A 
ATOM     20  C   UNL     1      -2.057  -7.262 -11.023  0.00  0.00    +0.122 A 
ATOM     21  C   UNL     1      -2.265  -7.761  -9.746  0.00  0.00    +0.047 A 
ATOM     22  C   UNL     1      -2.347  -6.897  -8.672  0.00  0.00    +0.027 A 
BRANCH  20  23
ATOM     23  O   UNL     1      -1.970  -8.114 -12.079  0.00  0.00    -0.477 OA
BRANCH  23  24
ATOM     24  C   UNL     1      -2.103  -9.509 -11.800  0.00  0.00    +0.346 C 
BRANCH  24  25
ATOM     25  C   UNL     1      -1.984 -10.274 -13.053  0.00  0.00    +0.104 C 
ATOM     26  N   UNL     1      -1.892 -10.864 -14.019  0.00  0.00    -0.193 NA
ENDBRANCH  24  25
ENDBRANCH  23  24
ENDBRANCH  20  23
ENDBRANCH  15  17
ENDBRANCH   7  13
BRANCH   1  27
ATOM     27  C   UNL     1      -1.325  -0.785   0.019  0.00  0.00    +0.154 C 
BRANCH  27  29
ATOM     28  C   UNL     1      -0.062   1.304   0.024  0.00  0.00    +0.005 C 
ATOM     29  C   UNL     1      -0.035  -0.005   0.014  0.00  0.00    -0.013 C 
ENDBRANCH  27  29
ENDBRANCH   1  27
TORSDOF 7
