REMARK  Name = ZINC15769496
REMARK  11 active torsions:
REMARK  status: ('A' for Active; 'I' for Inactive)
REMARK    1  A    between atoms: C_1  and  C_2
REMARK    2  A    between atoms: C_2  and  C_3
REMARK    3  A    between atoms: C_2  and  C_4
REMARK    4  A    between atoms: C_2  and  N_57
REMARK    5  A    between atoms: C_6  and  C_8
REMARK    6  A    between atoms: C_6  and  N_26
REMARK    7  A    between atoms: C_6  and  N_57
REMARK    8  A    between atoms: C_11  and  C_14
REMARK    9  A    between atoms: C_14  and  N_17
REMARK   10  A    between atoms: C_14  and  N_60
REMARK   11  A    between atoms: C_16  and  N_60
REMARK                            x       y       z     vdW  Elec       q    Type
REMARK                         _______ _______ _______ _____ _____    ______ ____
ROOT
ATOM      1  C   UNL     1      -3.552   3.444  -4.129  0.00  0.00    -0.040 A 
ATOM      2  C   UNL     1      -2.278   3.887  -3.827  0.00  0.00    +0.004 A 
ATOM      3  C   UNL     1      -1.870   3.971  -2.509  0.00  0.00    +0.004 A 
ATOM      4  C   UNL     1      -2.735   3.611  -1.493  0.00  0.00    -0.040 A 
ATOM      5  C   UNL     1      -4.008   3.163  -1.796  0.00  0.00    +0.004 A 
ATOM      6  C   UNL     1      -4.418   3.085  -3.113  0.00  0.00    +0.004 A 
ENDROOT
BRANCH   1   7
ATOM      7  C   UNL     1      -3.997   3.353  -5.566  0.00  0.00    +0.086 C 
BRANCH   7   8
ATOM      8  N   UNL     1      -4.011   1.949  -5.985  0.00  0.00    -0.254 N 
ATOM      9  C   UNL     1      -3.064   1.309  -6.748  0.00  0.00    +0.087 A 
ATOM     10  C   UNL     1      -1.871   1.707  -7.342  0.00  0.00    +0.029 A 
ATOM     11  C   UNL     1      -1.135   0.806  -8.058  0.00  0.00    +0.002 A 
ATOM     12  C   UNL     1      -1.566  -0.507  -8.198  0.00  0.00    +0.002 A 
ATOM     13  C   UNL     1      -2.728  -0.925  -7.619  0.00  0.00    +0.032 A 
ATOM     14  C   UNL     1      -3.505  -0.019  -6.883  0.00  0.00    +0.113 A 
ATOM     15  N   UNL     1      -4.675  -0.131  -6.224  0.00  0.00    -0.130 NA
ATOM     16  N   UNL     1      -4.997   0.995  -5.691  0.00  0.00    -0.066 NA
ENDBRANCH   7   8
BRANCH   7  17
ATOM     17  N   UNL     1      -5.356   3.915  -5.690  0.00  0.00    +0.407 N 
ATOM     18  H   UNL     1      -6.042   3.153  -5.652  0.00  0.00    -0.081 HD
ATOM     19  H   UNL     1      -5.524   4.566  -4.914  0.00  0.00    -0.081 HD
BRANCH  17  21
ATOM     20  C   UNL     1      -4.565   5.848  -6.982  0.00  0.00    +0.001 C 
ATOM     21  C   UNL     1      -5.497   4.635  -6.969  0.00  0.00    +0.033 C 
ATOM     22  C   UNL     1      -5.137   3.703  -8.127  0.00  0.00    +0.001 C 
BRANCH  21  23
ATOM     23  C   UNL     1      -6.924   5.096  -7.121  0.00  0.00    +0.345 C 
ATOM     24  O   UNL     1      -7.164   6.149  -7.664  0.00  0.00    -0.248 OA
ATOM     25  O   UNL     1      -7.928   4.338  -6.654  0.00  0.00    -0.248 OA
ENDBRANCH  21  23
ENDBRANCH  17  21
ENDBRANCH   7  17
ENDBRANCH   1   7
BRANCH   4  26
ATOM     26  C   UNL     1      -2.290   3.702  -0.057  0.00  0.00    +0.084 C 
BRANCH  26  27
ATOM     27  N   UNL     1      -1.996   2.359   0.449  0.00  0.00    -0.254 N 
ATOM     28  C   UNL     1      -0.752   1.808   0.644  0.00  0.00    +0.087 A 
ATOM     29  C   UNL     1       0.548   2.266   0.460  0.00  0.00    +0.029 A 
ATOM     30  C   UNL     1       1.605   1.453   0.763  0.00  0.00    +0.002 A 
ATOM     31  C   UNL     1       1.392   0.171   1.252  0.00  0.00    +0.002 A 
ATOM     32  C   UNL     1       0.127  -0.303   1.441  0.00  0.00    +0.032 A 
ATOM     33  C   UNL     1      -0.974   0.511   1.139  0.00  0.00    +0.113 A 
ATOM     34  N   UNL     1      -2.306   0.326   1.219  0.00  0.00    -0.130 NA
ATOM     35  N   UNL     1      -2.928   1.380   0.823  0.00  0.00    -0.066 NA
ENDBRANCH  26  27
BRANCH  26  37
ATOM     36  C   UNL     1      -2.817   4.908   1.976  0.00  0.00    -0.097 C 
ATOM     37  N   UNL     1      -3.369   4.306   0.748  0.00  0.00    +0.395 N 
ATOM     38  H   UNL     1      -4.049   3.580   1.002  0.00  0.00    -0.083 HD
ATOM     39  H   UNL     1      -3.837   5.034   0.195  0.00  0.00    -0.083 HD
ENDBRANCH  26  37
ENDBRANCH   4  26
TORSDOF 8
