REMARK  Name = ZINC14022528
REMARK  7 active torsions:
REMARK  status: ('A' for Active; 'I' for Inactive)
REMARK    1  A    between atoms: C_1  and  C_2
REMARK    2  A    between atoms: C_5  and  S_8
REMARK    3  A    between atoms: S_8  and  N_11
REMARK    4  A    between atoms: C_15  and  C_18
REMARK    5  A    between atoms: C_29  and  C_35
REMARK    6  A    between atoms: C_35  and  C_36
REMARK    7  A    between atoms: C_35  and  C_37
REMARK                            x       y       z     vdW  Elec       q    Type
REMARK                         _______ _______ _______ _____ _____    ______ ____
ROOT
ATOM      1  C   UNL     1      -0.138   1.008  -2.469  0.00  0.00    +0.220 C 
ATOM      2  O   UNL     1       0.858   0.322  -2.382  0.00  0.00    -0.275 OA
ATOM      3  N   UNL     1      -0.695   1.238  -3.675  0.00  0.00    -0.298 N 
ATOM      4  C   UNL     1      -1.847   2.142  -3.815  0.00  0.00    +0.126 C 
ATOM      5  C   UNL     1      -1.528   3.160  -4.921  0.00  0.00    +0.126 C 
ATOM      6  N   UNL     1      -1.149   2.443  -6.146  0.00  0.00    -0.307 N 
ATOM      7  C   UNL     1       0.079   1.662  -5.948  0.00  0.00    +0.126 C 
ATOM      8  C   UNL     1      -0.170   0.586  -4.885  0.00  0.00    +0.126 C 
ATOM      9  C   UNL     1      -1.016   3.314  -7.208  0.00  0.00    +0.162 A 
ATOM     10  N   UNL     1      -1.892   4.166  -7.691  0.00  0.00    -0.224 NA
ATOM     11  C   UNL     1      -1.620   4.967  -8.744  0.00  0.00    +0.084 A 
ATOM     12  C   UNL     1      -2.465   5.923  -9.354  0.00  0.00    -0.018 A 
ATOM     13  C   UNL     1      -2.032   6.655 -10.429  0.00  0.00    +0.006 A 
ATOM     14  C   UNL     1      -0.759   6.490 -10.953  0.00  0.00    +0.001 A 
ATOM     15  C   UNL     1       0.094   5.564 -10.381  0.00  0.00    +0.017 A 
ATOM     16  C   UNL     1      -0.331   4.826  -9.305  0.00  0.00    +0.041 A 
ATOM     17  S   UNL     1       0.392   3.566  -8.281  0.00  0.00    -0.052 S 
ENDROOT
BRANCH   1  22
ATOM     18  N   UNL     1      -0.340   2.148   1.115  0.00  0.00    -0.176 NA
ATOM     19  C   UNL     1      -1.523   1.422   1.607  0.00  0.00    +0.109 C 
ATOM     20  C   UNL     1      -2.558   1.343   0.480  0.00  0.00    +0.018 C 
ATOM     21  C   UNL     1      -1.912   0.722  -0.759  0.00  0.00    +0.015 C 
ATOM     22  C   UNL     1      -0.753   1.605  -1.230  0.00  0.00    +0.091 C 
ATOM     23  C   UNL     1       0.303   1.686  -0.123  0.00  0.00    +0.122 C 
BRANCH  18  24
ATOM     24  S   UNL     1       0.253   3.458   1.936  0.00  0.00    +0.061 S 
ATOM     25  O   UNL     1      -0.172   3.319   3.284  0.00  0.00    -0.153 OA
ATOM     26  O   UNL     1       1.623   3.576   1.577  0.00  0.00    -0.153 OA
BRANCH  24  31
ATOM     27  C   UNL     1      -2.530   8.344  -0.252  0.00  0.00    +0.044 C 
ATOM     28  C   UNL     1      -1.835   7.124   0.294  0.00  0.00    -0.050 A 
ATOM     29  C   UNL     1      -2.379   6.440   1.366  0.00  0.00    +0.005 A 
ATOM     30  C   UNL     1      -1.742   5.321   1.867  0.00  0.00    +0.029 A 
ATOM     31  C   UNL     1      -0.560   4.885   1.297  0.00  0.00    +0.105 A 
ATOM     32  C   UNL     1      -0.014   5.572   0.229  0.00  0.00    +0.029 A 
ATOM     33  C   UNL     1      -0.654   6.688  -0.276  0.00  0.00    +0.005 A 
ENDBRANCH  24  31
ENDBRANCH  18  24
ENDBRANCH   1  22
BRANCH  12  34
ATOM     34  C   UNL     1      -3.857   6.137  -8.818  0.00  0.00    +0.015 C 
ATOM     35  C   UNL     1      -4.011   7.590  -8.367  0.00  0.00    +0.012 C 
ATOM     36  C   UNL     1      -4.879   5.833  -9.916  0.00  0.00    +0.012 C 
ENDBRANCH  12  34
TORSDOF 4
