REMARK  Name = ZINC09377571
REMARK  4 active torsions:
REMARK  status: ('A' for Active; 'I' for Inactive)
REMARK    1  A    between atoms: C_8  and  C_12
REMARK    2  A    between atoms: N_14  and  C_15
REMARK    3  A    between atoms: C_19  and  S_21
REMARK    4  A    between atoms: S_21  and  N_24
REMARK                            x       y       z     vdW  Elec       q    Type
REMARK                         _______ _______ _______ _____ _____    ______ ____
ROOT
ATOM      1  C   UNL     1       2.379   1.413  -0.006  0.00  0.00    +0.035 A 
ATOM      2  C   UNL     1       1.169   2.095   0.017  0.00  0.00    +0.023 A 
ATOM      3  C   UNL     1      -0.019   1.390   0.031  0.00  0.00    +0.004 A 
ATOM      4  C   UNL     1      -0.004   0.007   0.021  0.00  0.00    +0.029 A 
ATOM      5  C   UNL     1       1.198  -0.674  -0.003  0.00  0.00    +0.110 A 
ATOM      6  C   UNL     1       2.390   0.024  -0.017  0.00  0.00    +0.052 A 
ENDROOT
BRANCH   1   9
ATOM      7  C   UNL     1       3.669   3.293  -0.683  0.00  0.00    +0.224 C 
ATOM      8  O   UNL     1       2.681   3.772  -1.198  0.00  0.00    -0.275 OA
ATOM      9  N   UNL     1       3.584   2.123  -0.019  0.00  0.00    -0.285 N 
ATOM     10  H   UNL     1       4.358   1.774   0.449  0.00  0.00    +0.155 HD
BRANCH   7  18
ATOM     11  C   UNL     1       7.488   7.734  -2.665  0.00  0.00    +0.000 A 
ATOM     12  C   UNL     1       8.628   6.953  -2.621  0.00  0.00    +0.004 A 
ATOM     13  C   UNL     1       8.543   5.631  -2.237  0.00  0.00    +0.046 A 
ATOM     14  C   UNL     1       7.313   5.079  -1.893  0.00  0.00    +0.124 A 
ATOM     15  C   UNL     1       6.173   5.862  -1.941  0.00  0.00    -0.005 A 
ATOM     16  C   UNL     1       6.265   7.189  -2.326  0.00  0.00    +0.007 A 
ATOM     17  C   UNL     1       4.820   5.302  -1.583  0.00  0.00    +0.055 C 
ATOM     18  C   UNL     1       4.992   4.007  -0.785  0.00  0.00    +0.117 C 
ATOM     19  C   UNL     1       6.003   3.118  -1.521  0.00  0.00    +0.242 C 
ATOM     20  O   UNL     1       7.271   3.776  -1.512  0.00  0.00    -0.491 OA
ENDBRANCH   7  18
ENDBRANCH   1   9
BRANCH   5  21
ATOM     21  S   UNL     1       1.211  -2.436  -0.017  0.00  0.00    +0.073 S 
ATOM     22  O   UNL     1       2.468  -2.837   0.511  0.00  0.00    -0.150 OA
ATOM     23  O   UNL     1      -0.022  -2.856   0.551  0.00  0.00    -0.150 OA
BRANCH  21  24
ATOM     24  N   UNL     1       1.189  -2.914  -1.602  0.00  0.00    -0.205 N 
ATOM     25  C   UNL     1       2.249  -2.624  -2.420  0.00  0.00    +0.088 C 
ATOM     26  C   UNL     1       4.272  -1.825  -3.138  0.00  0.00    +0.114 C 
ATOM     27  C   UNL     1       3.477  -2.121  -4.431  0.00  0.00    +0.028 C 
ATOM     28  C   UNL     1       2.339  -3.015  -3.878  0.00  0.00    +0.072 C 
ATOM     29  H   UNL     1       0.426  -3.400  -1.952  0.00  0.00    +0.175 HD
ATOM     30  N   UNL     1       3.306  -1.980  -2.030  0.00  0.00    -0.375 N 
ATOM     31  H   UNL     1       3.452  -1.625  -1.077  0.00  0.00    +0.161 HD
ENDBRANCH  21  24
ENDBRANCH   5  21
TORSDOF 4
