REMARK  Name = ZINC59490389
REMARK  9 active torsions:
REMARK  status: ('A' for Active; 'I' for Inactive)
REMARK    1  A    between atoms: C_1  and  N_2
REMARK    2  A    between atoms: N_2  and  C_3
REMARK    3  A    between atoms: C_3  and  N_5
REMARK    4  A    between atoms: N_5  and  C_6
REMARK    5  A    between atoms: N_5  and  C_17
REMARK    6  A    between atoms: C_6  and  C_7
REMARK    7  A    between atoms: C_10  and  S_13
REMARK    8  A    between atoms: S_13  and  N_16
REMARK    9  A    between atoms: N_22  and  C_25
REMARK                            x       y       z     vdW  Elec       q    Type
REMARK                         _______ _______ _______ _____ _____    ______ ____
ROOT
ATOM      1  N   UNL     1       0.542  -2.025   1.054  0.00  0.00    -0.296 N 
ENDROOT
BRANCH   1   2
ATOM      2  C   UNL     1      -0.096  -2.760  -0.041  0.00  0.00    +0.171 C 
ATOM      3  C   UNL     1       0.810  -3.911  -0.524  0.00  0.00    +0.128 C 
ATOM      4  C   UNL     1      -0.016  -5.150  -0.257  0.00  0.00    +0.228 C 
ATOM      5  O   UNL     1       0.328  -6.288  -0.493  0.00  0.00    -0.275 OA
ATOM      6  N   UNL     1      -1.188  -4.790   0.281  0.00  0.00    -0.209 N 
ATOM      7  C   UNL     1      -1.342  -3.466   0.446  0.00  0.00    +0.247 C 
ATOM      8  O   UNL     1      -2.321  -2.923   0.912  0.00  0.00    -0.273 OA
BRANCH   6   9
ATOM      9  C   UNL     1      -2.175  -5.718   0.641  0.00  0.00    +0.044 A 
ATOM     10  C   UNL     1      -3.459  -5.603   0.126  0.00  0.00    +0.025 A 
ATOM     11  C   UNL     1      -4.430  -6.519   0.482  0.00  0.00    +0.017 A 
ATOM     12  C   UNL     1      -4.123  -7.551   1.352  0.00  0.00    +0.018 A 
ATOM     13  C   UNL     1      -2.844  -7.668   1.866  0.00  0.00    +0.017 A 
ATOM     14  C   UNL     1      -1.869  -6.758   1.509  0.00  0.00    +0.025 A 
ATOM     15 BR   UNL     1      -5.454  -8.803   1.838  0.00  0.00    -0.050 Br
ENDBRANCH   6   9
ENDBRANCH   1   2
BRANCH   1  16
ATOM     16  C   UNL     1       0.607  -0.680   1.014  0.00  0.00    +0.134 C 
ATOM     17  S   UNL     1       1.474   0.171   2.221  0.00  0.00    -0.019 S 
BRANCH  16  19
ATOM     18  C   UNL     1      -0.033   1.461   0.042  0.00  0.00    +0.127 C 
ATOM     19  N   UNL     1      -0.010  -0.004   0.025  0.00  0.00    -0.329 N 
ATOM     20  H   UNL     1      -0.440  -0.487  -0.698  0.00  0.00    +0.147 HD
ENDBRANCH  16  19
ENDBRANCH   1  16
BRANCH   1  21
ATOM     21  C   UNL     1       1.109  -2.753   2.191  0.00  0.00    +0.142 C 
BRANCH  21  22
ATOM     22  C   UNL     1       0.056  -2.923   3.255  0.00  0.00    -0.030 A 
ATOM     23  C   UNL     1      -0.097  -1.961   4.236  0.00  0.00    +0.007 A 
ATOM     24  C   UNL     1      -1.063  -2.117   5.212  0.00  0.00    +0.029 A 
ATOM     25  C   UNL     1      -1.878  -3.234   5.207  0.00  0.00    +0.105 A 
ATOM     26  C   UNL     1      -1.726  -4.195   4.225  0.00  0.00    +0.029 A 
ATOM     27  C   UNL     1      -0.762  -4.037   3.247  0.00  0.00    +0.007 A 
BRANCH  25  28
ATOM     28  S   UNL     1      -3.109  -3.433   6.452  0.00  0.00    +0.056 S 
ATOM     29  O   UNL     1      -3.374  -4.826   6.542  0.00  0.00    -0.153 OA
ATOM     30  O   UNL     1      -2.685  -2.664   7.569  0.00  0.00    -0.153 OA
BRANCH  28  31
ATOM     31  N   UNL     1      -4.495  -2.723   5.887  0.00  0.00    -0.204 NA
ATOM     32  H   UNL     1      -4.503  -2.304   5.012  0.00  0.00    +0.144 HD
ATOM     33  H   UNL     1      -5.297  -2.726   6.432  0.00  0.00    +0.144 HD
ENDBRANCH  28  31
ENDBRANCH  25  28
ENDBRANCH  21  22
ENDBRANCH   1  21
TORSDOF 8
