REMARK  Name = ZINC43211829
REMARK  9 active torsions:
REMARK  status: ('A' for Active; 'I' for Inactive)
REMARK    1  A    between atoms: C_1  and  C_2
REMARK    2  A    between atoms: C_3  and  C_15
REMARK    3  A    between atoms: N_6  and  C_9
REMARK    4  A    between atoms: N_7  and  C_8
REMARK    5  A    between atoms: N_23  and  C_26
REMARK    6  A    between atoms: C_32  and  C_34
REMARK    7  A    between atoms: C_32  and  C_37
REMARK    8  A    between atoms: C_34  and  C_35
REMARK    9  A    between atoms: C_34  and  C_36
REMARK                            x       y       z     vdW  Elec       q    Type
REMARK                         _______ _______ _______ _____ _____    ______ ____
ROOT
ATOM      1  C   UNL     1      -2.606  -0.527   0.746  0.00  0.00    -0.020 C 
ATOM      2  C   UNL     1      -3.571  -1.377  -0.074  0.00  0.00    +0.077 C 
ATOM      3  C   UNL     1      -4.782  -1.324   0.932  0.00  0.00    +0.086 C 
ATOM      4  C   UNL     1      -5.884  -1.734   0.095  0.00  0.00    +0.229 C 
ATOM      5  O   UNL     1      -6.861  -2.374   0.421  0.00  0.00    -0.275 OA
ATOM      6  N   UNL     1      -5.586  -1.241  -1.151  0.00  0.00    -0.210 N 
ATOM      7  C   UNL     1      -4.280  -0.811  -1.264  0.00  0.00    +0.229 C 
ATOM      8  O   UNL     1      -3.801  -0.116  -2.134  0.00  0.00    -0.275 OA
ATOM      9  C   UNL     1      -4.169  -1.651   2.225  0.00  0.00    +0.050 C 
ATOM     10  N   UNL     1      -2.783  -1.054   2.139  0.00  0.00    +0.396 N 
ATOM     11  H   UNL     1      -2.098  -1.771   2.324  0.00  0.00    -0.083 HD
ATOM     12  H   UNL     1      -2.682  -0.302   2.805  0.00  0.00    -0.083 HD
ENDROOT
BRANCH   1  15
ATOM     13  C   UNL     1      -0.759   1.662  -0.478  0.00  0.00    +0.065 C 
ATOM     14  C   UNL     1      -0.387   0.219  -0.252  0.00  0.00    +0.040 A 
ATOM     15  C   UNL     1      -1.188  -0.728   0.278  0.00  0.00    +0.026 A 
ATOM     16  C   UNL     1      -0.465  -1.943   0.317  0.00  0.00    +0.274 A 
ATOM     17  O   UNL     1      -0.875  -3.011   0.734  0.00  0.00    -0.266 OA
ATOM     18  N   UNL     1       0.762  -1.704  -0.191  0.00  0.00    -0.217 N 
ATOM     19  N   UNL     1       0.816  -0.352  -0.555  0.00  0.00    -0.284 N 
ATOM     20  C   UNL     1       1.965   0.331  -1.155  0.00  0.00    +0.171 C 
BRANCH  18  21
ATOM     21  C   UNL     1       1.792  -2.639  -0.333  0.00  0.00    +0.067 A 
ATOM     22  C   UNL     1       3.071  -2.340   0.118  0.00  0.00    +0.028 A 
ATOM     23  C   UNL     1       4.086  -3.266  -0.023  0.00  0.00    +0.002 A 
ATOM     24  C   UNL     1       3.830  -4.489  -0.614  0.00  0.00    +0.000 A 
ATOM     25  C   UNL     1       2.558  -4.790  -1.066  0.00  0.00    +0.002 A 
ATOM     26  C   UNL     1       1.537  -3.871  -0.922  0.00  0.00    +0.028 A 
ENDBRANCH  18  21
ENDBRANCH   1  15
BRANCH   6  27
ATOM     27  C   UNL     1      -6.507  -1.190  -2.207  0.00  0.00    +0.044 A 
ATOM     28  C   UNL     1      -7.804  -1.649  -2.021  0.00  0.00    +0.024 A 
ATOM     29  C   UNL     1      -8.709  -1.597  -3.063  0.00  0.00    +0.002 A 
ATOM     30  C   UNL     1      -8.324  -1.090  -4.291  0.00  0.00    +0.000 A 
ATOM     31  C   UNL     1      -7.033  -0.632  -4.479  0.00  0.00    +0.002 A 
ATOM     32  C   UNL     1      -6.125  -0.675  -3.439  0.00  0.00    +0.024 A 
ENDBRANCH   6  27
BRANCH   9  33
ATOM     33  C   UNL     1      -4.947  -0.993   3.366  0.00  0.00    -0.017 C 
ATOM     34  C   UNL     1      -6.425  -1.375   3.262  0.00  0.00    +0.006 C 
ATOM     35  C   UNL     1      -4.389  -1.474   4.707  0.00  0.00    +0.006 C 
ENDBRANCH   9  33
BRANCH   9  36
ATOM     36  C   UNL     1      -4.113  -3.145   2.418  0.00  0.00    +0.346 C 
ATOM     37  O   UNL     1      -3.038  -3.700   2.570  0.00  0.00    -0.248 OA
ATOM     38  O   UNL     1      -5.143  -3.798   2.421  0.00  0.00    -0.248 OA
ENDBRANCH   9  36
TORSDOF 5
