REMARK  Name = ZINC12569294
REMARK  6 active torsions:
REMARK  status: ('A' for Active; 'I' for Inactive)
REMARK    1  A    between atoms: C_1  and  C_2
REMARK    2  A    between atoms: C_7  and  N_8
REMARK    3  A    between atoms: N_8  and  C_9
REMARK    4  A    between atoms: N_8  and  S_23
REMARK    5  A    between atoms: C_9  and  C_10
REMARK    6  A    between atoms: S_23  and  C_26
REMARK                            x       y       z     vdW  Elec       q    Type
REMARK                         _______ _______ _______ _____ _____    ______ ____
ROOT
ATOM      1  C   UNL     1      -1.134  -0.653   2.274  0.00  0.00    +0.239 C 
ATOM      2  O   UNL     1      -0.175  -0.306   2.931  0.00  0.00    -0.273 OA
ATOM      3  N   UNL     1      -1.732  -1.834   2.525  0.00  0.00    -0.259 N 
ATOM      4  C   UNL     1      -2.899  -2.275   1.746  0.00  0.00    +0.209 C 
ATOM      5  C   UNL     1      -3.909  -2.891   2.674  0.00  0.00    +0.235 C 
ATOM      6  O   UNL     1      -5.088  -2.841   2.393  0.00  0.00    -0.274 OA
ATOM      7  N   UNL     1      -3.521  -3.495   3.813  0.00  0.00    -0.283 N 
ATOM      8  C   UNL     1      -2.173  -3.524   4.184  0.00  0.00    +0.055 A 
ATOM      9  C   UNL     1      -1.263  -2.682   3.541  0.00  0.00    +0.058 A 
ATOM     10  C   UNL     1       0.070  -2.690   3.906  0.00  0.00    +0.025 A 
ATOM     11  C   UNL     1       0.502  -3.539   4.910  0.00  0.00    +0.002 A 
ATOM     12  C   UNL     1      -0.395  -4.377   5.545  0.00  0.00    +0.002 A 
ATOM     13  C   UNL     1      -1.731  -4.373   5.186  0.00  0.00    +0.025 A 
ATOM     14  H   UNL     1      -4.185  -3.915   4.383  0.00  0.00    +0.155 HD
ENDROOT
BRANCH   1  15
ATOM     15  C   UNL     1      -1.656   0.238   1.176  0.00  0.00    +0.227 C 
BRANCH  15  16
ATOM     16  N   UNL     1      -0.842   1.454   1.105  0.00  0.00    -0.199 N 
BRANCH  16  23
ATOM     17  C   UNL     1      -3.144   3.020   0.523  0.00  0.00    +0.046 C 
ATOM     18  C   UNL     1      -2.244   3.329   1.691  0.00  0.00    -0.028 A 
ATOM     19  C   UNL     1      -2.525   4.399   2.517  0.00  0.00    +0.005 A 
ATOM     20  C   UNL     1      -1.700   4.683   3.590  0.00  0.00    +0.000 A 
ATOM     21  C   UNL     1      -0.589   3.896   3.838  0.00  0.00    +0.002 A 
ATOM     22  C   UNL     1      -0.305   2.822   3.019  0.00  0.00    +0.025 A 
ATOM     23  C   UNL     1      -1.129   2.537   1.938  0.00  0.00    +0.054 A 
ENDBRANCH  16  23
BRANCH  16  24
ATOM     24  S   UNL     1       0.420   1.543   0.036  0.00  0.00    +0.043 S 
ATOM     25  O   UNL     1       0.901   0.210  -0.070  0.00  0.00    -0.155 OA
ATOM     26  O   UNL     1       1.253   2.576   0.544  0.00  0.00    -0.155 OA
ATOM     27  C   UNL     1      -0.333   2.062  -1.531  0.00  0.00    +0.218 C 
ENDBRANCH  16  24
ENDBRANCH  15  16
ENDBRANCH   1  15
TORSDOF 4
