REMARK  Name = ZINC13778385
REMARK  7 active torsions:
REMARK  status: ('A' for Active; 'I' for Inactive)
REMARK    1  A    between atoms: C_7  and  C_13
REMARK    2  A    between atoms: C_13  and  O_15
REMARK    3  A    between atoms: O_15  and  C_16
REMARK    4  A    between atoms: C_16  and  C_17
REMARK    5  A    between atoms: N_19  and  C_20
REMARK    6  A    between atoms: C_23  and  S_26
REMARK    7  A    between atoms: S_26  and  N_29
REMARK                            x       y       z     vdW  Elec       q    Type
REMARK                         _______ _______ _______ _____ _____    ______ ____
ROOT
ATOM      1  C   UNL     1      -4.854  -0.083   0.256  0.00  0.00    +0.255 C 
ATOM      2  O   UNL     1      -4.723   1.119   0.348  0.00  0.00    -0.272 OA
ATOM      3  N   UNL     1      -6.084  -0.632   0.286  0.00  0.00    -0.283 N 
ATOM      4  H   UNL     1      -6.199  -1.726   0.294  0.00  0.00    +0.155 HD
ENDROOT
BRANCH   3   5
ATOM      5  C   UNL     1      -7.216   0.190   0.308  0.00  0.00    +0.034 A 
ATOM      6  C   UNL     1      -8.346  -0.200   1.014  0.00  0.00    +0.025 A 
ATOM      7  C   UNL     1      -9.460   0.617   1.040  0.00  0.00    +0.030 A 
ATOM      8  C   UNL     1      -9.455   1.816   0.351  0.00  0.00    +0.106 A 
ATOM      9  C   UNL     1      -8.334   2.205  -0.358  0.00  0.00    +0.030 A 
ATOM     10  C   UNL     1      -7.215   1.396  -0.382  0.00  0.00    +0.025 A 
BRANCH   8  11
ATOM     11  S   UNL     1     -10.880   2.852   0.380  0.00  0.00    +0.061 S 
ATOM     12  O   UNL     1     -11.600   2.520   1.559  0.00  0.00    -0.153 OA
ATOM     13  O   UNL     1     -10.429   4.171   0.108  0.00  0.00    -0.153 OA
BRANCH  11  14
ATOM     14  N   UNL     1     -11.835   2.405  -0.898  0.00  0.00    -0.177 NA
ATOM     15  C   UNL     1     -11.772   2.970  -2.253  0.00  0.00    +0.109 C 
ATOM     16  C   UNL     1     -12.859   2.269  -3.094  0.00  0.00    +0.018 C 
ATOM     17  C   UNL     1     -13.854   1.760  -2.017  0.00  0.00    +0.018 C 
ATOM     18  C   UNL     1     -12.893   1.379  -0.862  0.00  0.00    +0.109 C 
ENDBRANCH  11  14
ENDBRANCH   8  11
ENDBRANCH   3   5
BRANCH   1  19
ATOM     19  C   UNL     1      -3.640  -0.963   0.108  0.00  0.00    +0.328 C 
BRANCH  19  20
ATOM     20  O   UNL     1      -2.443  -0.141   0.103  0.00  0.00    -0.452 OA
BRANCH  20  21
ATOM     21  C   UNL     1      -1.264  -0.778  -0.023  0.00  0.00    +0.340 C 
ATOM     22  O   UNL     1      -1.235  -1.988  -0.126  0.00  0.00    -0.245 OA
BRANCH  21  29
ATOM     23  C   UNL     1      -1.230   3.530  -0.024  0.00  0.00    +0.001 A 
ATOM     24  C   UNL     1      -0.033   4.234  -0.037  0.00  0.00    +0.002 A 
ATOM     25  C   UNL     1       1.173   3.568  -0.050  0.00  0.00    +0.026 A 
ATOM     26  C   UNL     1       1.195   2.175  -0.050  0.00  0.00    +0.050 A 
ATOM     27  C   UNL     1      -0.020   1.467  -0.037  0.00  0.00    +0.012 A 
ATOM     28  C   UNL     1      -1.232   2.164  -0.018  0.00  0.00    +0.011 A 
ATOM     29  C   UNL     1       0.000  -0.004  -0.036  0.00  0.00    +0.073 A 
ATOM     30  C   UNL     1       1.209  -0.639  -0.049  0.00  0.00    +0.085 A 
ATOM     31  C   UNL     1       2.437   0.153  -0.063  0.00  0.00    +0.250 A 
ATOM     32  O   UNL     1       3.516  -0.413  -0.074  0.00  0.00    -0.268 OA
ATOM     33  N   UNL     1       2.394   1.496  -0.063  0.00  0.00    -0.322 N 
ATOM     34  H   UNL     1       3.342   2.054  -0.074  0.00  0.00    +0.169 HD
ENDBRANCH  21  29
ENDBRANCH  20  21
ENDBRANCH  19  20
ENDBRANCH   1  19
TORSDOF 7
