REMARK  Name = ZINC29119791
REMARK  6 active torsions:
REMARK  status: ('A' for Active; 'I' for Inactive)
REMARK    1  A    between atoms: C_4  and  C_7
REMARK    2  A    between atoms: C_7  and  C_9
REMARK    3  A    between atoms: C_7  and  N_15
REMARK    4  A    between atoms: N_15  and  C_16
REMARK    5  A    between atoms: C_16  and  C_17
REMARK    6  A    between atoms: C_30  and  C_32
REMARK                            x       y       z     vdW  Elec       q    Type
REMARK                         _______ _______ _______ _____ _____    ______ ____
ROOT
ATOM      1  C   UNL     1       3.495  -2.917  -3.055  0.00  0.00    +0.234 C 
ATOM      2  O   UNL     1       3.041  -3.898  -2.504  0.00  0.00    -0.274 OA
ATOM      3  N   UNL     1       3.739  -2.940  -4.380  0.00  0.00    -0.256 N 
ATOM      4  C   UNL     1       4.269  -1.816  -5.028  0.00  0.00    +0.058 A 
ATOM      5  C   UNL     1       3.492  -0.687  -5.233  0.00  0.00    +0.025 A 
ATOM      6  C   UNL     1       4.025   0.404  -5.895  0.00  0.00    +0.002 A 
ATOM      7  C   UNL     1       5.329   0.372  -6.354  0.00  0.00    +0.002 A 
ATOM      8  C   UNL     1       6.114  -0.748  -6.146  0.00  0.00    +0.025 A 
ATOM      9  C   UNL     1       5.591  -1.840  -5.474  0.00  0.00    +0.055 A 
ATOM     10  N   UNL     1       6.382  -2.962  -5.202  0.00  0.00    -0.284 N 
ATOM     11  C   UNL     1       5.924  -4.205  -5.466  0.00  0.00    +0.219 C 
ATOM     12  O   UNL     1       6.584  -5.171  -5.149  0.00  0.00    -0.275 OA
ATOM     13  C   UNL     1       4.597  -4.398  -6.152  0.00  0.00    +0.128 C 
ATOM     14  C   UNL     1       3.460  -4.142  -5.168  0.00  0.00    +0.194 C 
ATOM     15  H   UNL     1       7.267  -2.846  -4.821  0.00  0.00    +0.155 HD
ENDROOT
BRANCH  14  16
ATOM     16  C   UNL     1       2.156  -3.950  -5.945  0.00  0.00    +0.409 C 
ATOM     17  F   UNL     1       2.280  -2.849  -6.800  0.00  0.00    -0.169 F 
ATOM     18  F   UNL     1       1.888  -5.097  -6.699  0.00  0.00    -0.169 F 
ATOM     19  F   UNL     1       1.107  -3.726  -5.047  0.00  0.00    -0.169 F 
ENDBRANCH  14  16
BRANCH   1  20
ATOM     20  C   UNL     1       3.788  -1.673  -2.256  0.00  0.00    +0.178 C 
BRANCH  20  21
ATOM     21  N   UNL     1       3.439  -1.902  -0.848  0.00  0.00    -0.296 NA
ATOM     22  H   UNL     1       3.925  -2.706  -0.481  0.00  0.00    +0.123 HD
BRANCH  21  23
ATOM     23  C   UNL     1       3.711  -0.707  -0.038  0.00  0.00    +0.134 C 
BRANCH  23  27
ATOM     24  C   UNL     1       0.341   1.914  -0.191  0.00  0.00    +0.000 A 
ATOM     25  C   UNL     1       1.622   2.432  -0.233  0.00  0.00    +0.000 A 
ATOM     26  C   UNL     1       2.713   1.583  -0.184  0.00  0.00    +0.005 A 
ATOM     27  C   UNL     1       2.522   0.217  -0.091  0.00  0.00    -0.025 A 
ATOM     28  C   UNL     1       1.241  -0.300  -0.047  0.00  0.00    +0.005 A 
ATOM     29  C   UNL     1       0.151   0.548  -0.098  0.00  0.00    +0.000 A 
ENDBRANCH  23  27
BRANCH  23  30
ATOM     30  C   UNL     1       3.966  -1.116   1.390  0.00  0.00    +0.063 A 
ATOM     31  C   UNL     1       5.199  -0.867   1.962  0.00  0.00    +0.025 A 
ATOM     32  C   UNL     1       5.423  -1.247   3.277  0.00  0.00    +0.003 A 
ATOM     33  C   UNL     1       4.394  -1.866   3.969  0.00  0.00    +0.020 A 
ATOM     34  C   UNL     1       3.188  -2.082   3.331  0.00  0.00    +0.111 A 
ATOM     35  N   UNL     1       3.008  -1.702   2.081  0.00  0.00    -0.258 NA
ENDBRANCH  23  30
ENDBRANCH  21  23
ENDBRANCH  20  21
ENDBRANCH   1  20
TORSDOF 6
