REMARK  Name = ZINC66536509
REMARK  8 active torsions:
REMARK  status: ('A' for Active; 'I' for Inactive)
REMARK    1  A    between atoms: C_1  and  C_2
REMARK    2  A    between atoms: C_2  and  N_3
REMARK    3  A    between atoms: N_6  and  C_7
REMARK    4  A    between atoms: C_10  and  O_13
REMARK    5  A    between atoms: O_13  and  C_14
REMARK    6  A    between atoms: C_14  and  C_16
REMARK    7  A    between atoms: C_17  and  C_28
REMARK    8  A    between atoms: N_18  and  C_21
REMARK                            x       y       z     vdW  Elec       q    Type
REMARK                         _______ _______ _______ _____ _____    ______ ____
ROOT
ATOM      1  O   UNL     1       1.370  -3.115   6.877  0.00  0.00    -0.457 OA
ENDROOT
BRANCH   1   5
ATOM      2  C   UNL     1       1.815  -3.628   2.699  0.00  0.00    +0.075 C 
ATOM      3  C   UNL     1       0.592  -4.245   3.380  0.00  0.00    +0.026 C 
ATOM      4  C   UNL     1       0.358  -3.561   4.728  0.00  0.00    +0.046 C 
ATOM      5  C   UNL     1       1.588  -3.754   5.617  0.00  0.00    +0.177 C 
ATOM      6  C   UNL     1       2.812  -3.137   4.937  0.00  0.00    +0.046 C 
ATOM      7  C   UNL     1       3.045  -3.821   3.589  0.00  0.00    +0.026 C 
BRANCH   2  11
ATOM      8  N   UNL     1       0.715  -0.459   1.196  0.00  0.00    -0.300 N 
ATOM      9  C   UNL     1       0.925  -1.776   1.391  0.00  0.00    +0.300 C 
ATOM     10  O   UNL     1       0.519  -2.583   0.578  0.00  0.00    -0.253 OA
ATOM     11  N   UNL     1       1.586  -2.197   2.487  0.00  0.00    -0.297 N 
ATOM     12  H   UNL     1       1.038   0.186   1.844  0.00  0.00    +0.150 HD
ATOM     13  H   UNL     1       1.910  -1.552   3.136  0.00  0.00    +0.151 HD
BRANCH   8  15
ATOM     14  C   UNL     1      -0.106   1.526   0.025  0.00  0.00    +0.024 C 
ATOM     15  C   UNL     1      -0.004  -0.001   0.004  0.00  0.00    +0.102 C 
ENDBRANCH   8  15
ENDBRANCH   2  11
ENDBRANCH   1   5
BRANCH   1  16
ATOM     16  C   UNL     1       1.982  -3.652   7.950  0.00  0.00    +0.362 C 
ATOM     17  O   UNL     1       2.683  -4.637   7.820  0.00  0.00    -0.243 OA
BRANCH  16  18
ATOM     18  C   UNL     1       1.803  -3.046   9.281  0.00  0.00    +0.192 A 
ATOM     19  C   UNL     1       2.370  -3.488  10.444  0.00  0.00    +0.076 A 
ATOM     20  N   UNL     1       1.952  -2.658  11.422  0.00  0.00    -0.216 N 
ATOM     21  N   UNL     1       1.119  -1.706  10.817  0.00  0.00    -0.060 NA
ATOM     22  N   UNL     1       1.059  -1.961   9.557  0.00  0.00    -0.122 NA
ATOM     23  C   UNL     1       3.286  -4.675  10.602  0.00  0.00    +0.068 C 
BRANCH  20  24
ATOM     24  C   UNL     1       2.286  -2.733  12.783  0.00  0.00    +0.067 A 
ATOM     25  C   UNL     1       3.591  -3.011  13.164  0.00  0.00    +0.030 A 
ATOM     26  C   UNL     1       3.918  -3.084  14.504  0.00  0.00    +0.040 A 
ATOM     27  C   UNL     1       2.945  -2.880  15.467  0.00  0.00    +0.124 A 
ATOM     28  C   UNL     1       1.641  -2.603  15.089  0.00  0.00    +0.040 A 
ATOM     29  C   UNL     1       1.312  -2.524  13.750  0.00  0.00    +0.030 A 
ATOM     30  F   UNL     1       3.266  -2.952  16.777  0.00  0.00    -0.205 F 
ENDBRANCH  20  24
ENDBRANCH  16  18
ENDBRANCH   1  16
TORSDOF 6
