REMARK  Name = ZINC01473737
REMARK  7 active torsions:
REMARK  status: ('A' for Active; 'I' for Inactive)
REMARK    1  A    between atoms: C_1  and  O_2
REMARK    2  A    between atoms: O_2  and  C_3
REMARK    3  A    between atoms: C_7  and  C_10
REMARK    4  A    between atoms: C_8  and  O_9
REMARK    5  A    between atoms: N_11  and  N_12
REMARK    6  A    between atoms: C_13  and  C_18
REMARK    7  A    between atoms: C_16  and  S_17
REMARK                            x       y       z     vdW  Elec       q    Type
REMARK                         _______ _______ _______ _____ _____    ______ ____
ROOT
ATOM      1  N   UNL     1       0.342   1.329  -0.001  0.00  0.00    -0.187 N 
ATOM      2  C   UNL     1       1.477   2.044   0.315  0.00  0.00    +0.186 A 
ATOM      3  N   UNL     1       1.183   3.316   0.169  0.00  0.00    -0.126 NA
ATOM      4  N   UNL     1      -0.037   3.446  -0.211  0.00  0.00    -0.121 NA
ATOM      5  C   UNL     1      -0.600   2.264  -0.337  0.00  0.00    +0.209 A 
ENDROOT
BRANCH   2   6
ATOM      6  C   UNL     1       2.778   1.486   0.737  0.00  0.00    +0.021 A 
ATOM      7  C   UNL     1       2.868   0.157   1.156  0.00  0.00    +0.013 A 
ATOM      8  C   UNL     1       4.086  -0.360   1.545  0.00  0.00    +0.021 A 
ATOM      9  C   UNL     1       5.217   0.439   1.530  0.00  0.00    +0.041 A 
ATOM     10  C   UNL     1       5.133   1.759   1.121  0.00  0.00    +0.021 A 
ATOM     11  C   UNL     1       3.922   2.286   0.725  0.00  0.00    +0.013 A 
ATOM     12 CL   UNL     1       6.745  -0.217   2.028  0.00  0.00    -0.084 Cl
ENDBRANCH   2   6
BRANCH   1  14
ATOM     13  C   UNL     1      -0.024  -0.681   1.135  0.00  0.00    +0.145 C 
ATOM     14  N   UNL     1       0.187  -0.063   0.013  0.00  0.00    -0.170 NA
BRANCH  13  19
ATOM     15  C   UNL     1       0.421   0.085   4.792  0.00  0.00    +0.162 A 
ATOM     16  C   UNL     1       0.193   1.452   4.804  0.00  0.00    +0.049 A 
ATOM     17  C   UNL     1      -0.103   2.122   3.630  0.00  0.00    +0.004 A 
ATOM     18  C   UNL     1      -0.175   1.435   2.436  0.00  0.00    +0.013 A 
ATOM     19  C   UNL     1       0.052   0.057   2.409  0.00  0.00    +0.040 A 
ATOM     20  C   UNL     1       0.347  -0.621   3.598  0.00  0.00    +0.167 A 
BRANCH  15  22
ATOM     21  C   UNL     1       0.768   0.222   7.141  0.00  0.00    +0.277 C 
ATOM     22  O   UNL     1       0.713  -0.566   5.950  0.00  0.00    -0.491 OA
ENDBRANCH  15  22
BRANCH  20  23
ATOM     23  O   UNL     1       0.565  -1.962   3.583  0.00  0.00    -0.503 OA
ATOM     24  H   UNL     1       1.485  -2.210   3.421  0.00  0.00    +0.292 HD
ENDBRANCH  20  23
ENDBRANCH  13  19
ENDBRANCH   1  14
BRANCH   5  25
ATOM     25  S   UNL     1      -2.258   1.943  -0.840  0.00  0.00    -0.102 S 
ATOM     26  H   UNL     1      -2.901   1.958   0.414  0.00  0.00    +0.110 HD
ENDBRANCH   5  25
TORSDOF 6
