REMARK  Name = ZINC16675943
REMARK  10 active torsions:
REMARK  status: ('A' for Active; 'I' for Inactive)
REMARK    1  A    between atoms: C_1  and  O_2
REMARK    2  A    between atoms: O_2  and  C_3
REMARK    3  A    between atoms: C_4  and  C_11
REMARK    4  A    between atoms: C_12  and  C_13
REMARK    5  A    between atoms: C_12  and  C_15
REMARK    6  A    between atoms: C_16  and  C_24
REMARK    7  A    between atoms: C_17  and  N_23
REMARK    8  A    between atoms: N_18  and  C_20
REMARK    9  A    between atoms: C_20  and  C_21
REMARK   10  A    between atoms: C_21  and  O_22
REMARK                            x       y       z     vdW  Elec       q    Type
REMARK                         _______ _______ _______ _____ _____    ______ ____
ROOT
ATOM      1  C   UNL     1      -1.197  -0.861   2.572  0.00  0.00    +0.032 C 
ATOM      2  C   UNL     1      -1.495  -1.958   3.322  0.00  0.00    +0.081 C 
ENDROOT
BRANCH   1   4
ATOM      3  C   UNL     1      -2.138   0.644   0.826  0.00  0.00    +0.141 A 
ATOM      4  C   UNL     1      -2.274  -0.004   2.065  0.00  0.00    +0.020 A 
ATOM      5  C   UNL     1      -3.445   0.173   2.812  0.00  0.00    +0.027 A 
ATOM      6  C   UNL     1      -4.453   0.980   2.328  0.00  0.00    +0.020 A 
ATOM      7  C   UNL     1      -4.313   1.616   1.105  0.00  0.00    +0.034 A 
ATOM      8  C   UNL     1      -3.160   1.455   0.359  0.00  0.00    +0.061 A 
ATOM      9 BR   UNL     1      -2.981   2.336  -1.304  0.00  0.00    -0.046 Br
ATOM     10 BR   UNL     1      -6.033   1.218   3.338  0.00  0.00    -0.050 Br
BRANCH   3  12
ATOM     11  C   UNL     1      -0.991  -0.602  -0.842  0.00  0.00    +0.277 C 
ATOM     12  O   UNL     1      -1.008   0.480   0.091  0.00  0.00    -0.493 OA
ENDBRANCH   3  12
ENDBRANCH   1   4
BRANCH   2  13
ATOM     13  C   UNL     1      -0.410  -2.737   3.958  0.00  0.00    +0.122 A 
ATOM     14  C   UNL     1      -0.570  -3.936   4.791  0.00  0.00    +0.119 A 
ATOM     15  C   UNL     1       0.714  -4.322   5.166  0.00  0.00    +0.133 A 
ATOM     16  N   UNL     1       1.580  -3.446   4.618  0.00  0.00    -0.247 N 
ATOM     17  N   UNL     1       0.878  -2.489   3.881  0.00  0.00    -0.167 NA
BRANCH  15  18
ATOM     18  N   UNL     1       1.040  -5.407   5.957  0.00  0.00    -0.342 N 
ATOM     19  H   UNL     1       0.341  -5.981   6.306  0.00  0.00    +0.144 HD
ATOM     20  H   UNL     1       1.970  -5.594   6.164  0.00  0.00    +0.144 HD
ENDBRANCH  15  18
BRANCH  14  21
ATOM     21  C   UNL     1      -1.799  -4.579   5.146  0.00  0.00    +0.105 C 
ATOM     22  N   UNL     1      -2.774  -5.088   5.427  0.00  0.00    -0.191 NA
ENDBRANCH  14  21
BRANCH  16  23
ATOM     23  C   UNL     1       3.036  -3.494   4.768  0.00  0.00    +0.173 C 
BRANCH  23  24
ATOM     24  C   UNL     1       3.638  -4.340   3.644  0.00  0.00    +0.179 C 
BRANCH  24  25
ATOM     25  O   UNL     1       5.058  -4.386   3.791  0.00  0.00    -0.393 OA
ATOM     26  H   UNL     1       5.507  -4.907   3.111  0.00  0.00    +0.209 HD
ENDBRANCH  24  25
ENDBRANCH  23  24
ENDBRANCH  16  23
ENDBRANCH   2  13
BRANCH   2  27
ATOM     27  C   UNL     1      -2.860  -2.359   3.493  0.00  0.00    +0.101 C 
ATOM     28  N   UNL     1      -3.942  -2.676   3.630  0.00  0.00    -0.191 NA
ENDBRANCH   2  27
TORSDOF 9
