REMARK  Name = ZINC39664948
REMARK  8 active torsions:
REMARK  status: ('A' for Active; 'I' for Inactive)
REMARK    1  A    between atoms: C_1  and  N_2
REMARK    2  A    between atoms: N_2  and  C_3
REMARK    3  A    between atoms: N_2  and  C_4
REMARK    4  A    between atoms: C_4  and  C_5
REMARK    5  A    between atoms: C_5  and  C_7
REMARK    6  A    between atoms: C_5  and  N_13
REMARK    7  A    between atoms: C_14  and  C_16
REMARK    8  A    between atoms: C_27  and  C_29
REMARK                            x       y       z     vdW  Elec       q    Type
REMARK                         _______ _______ _______ _____ _____    ______ ____
ROOT
ATOM      1  C   UNL     1       2.649   3.252   0.924  0.00  0.00    +0.100 C 
ATOM      2  C   UNL     1       3.987   3.744   0.328  0.00  0.00    +0.121 C 
ATOM      3  N   UNL     1       4.568   4.614   1.378  0.00  0.00    -0.296 N 
ATOM      4  C   UNL     1       4.256   3.916   2.648  0.00  0.00    +0.115 C 
ATOM      5  C   UNL     1       2.830   3.366   2.447  0.00  0.00    -0.004 C 
ATOM      6  C   UNL     1       1.804   4.333   3.030  0.00  0.00    -0.010 C 
ATOM      7  C   UNL     1       1.967   4.386   4.552  0.00  0.00    -0.082 C 
ATOM      8  N   UNL     1       1.778   3.043   5.113  0.00  0.00    +0.379 N 
ATOM      9  C   UNL     1       2.825   2.141   4.619  0.00  0.00    -0.082 C 
ATOM     10  C   UNL     1       2.698   1.993   3.099  0.00  0.00    -0.010 C 
ATOM     11  C   UNL     1       5.230   5.777   1.215  0.00  0.00    +0.252 C 
ATOM     12  O   UNL     1       5.650   6.378   2.184  0.00  0.00    -0.270 OA
ATOM     13  H   UNL     1       1.825   3.091   6.120  0.00  0.00    -0.086 HD
ATOM     14  H   UNL     1       0.874   2.689   4.838  0.00  0.00    -0.086 HD
ENDROOT
BRANCH  11  15
ATOM     15  C   UNL     1       5.444   6.319  -0.140  0.00  0.00    +0.108 A 
ATOM     16  C   UNL     1       4.505   7.188  -0.707  0.00  0.00    +0.138 A 
ATOM     17  C   UNL     1       4.714   7.692  -1.977  0.00  0.00    +0.041 A 
ATOM     18  C   UNL     1       5.847   7.341  -2.688  0.00  0.00    +0.026 A 
ATOM     19  C   UNL     1       6.782   6.483  -2.135  0.00  0.00    +0.077 A 
ATOM     20  C   UNL     1       6.591   5.973  -0.863  0.00  0.00    +0.156 A 
ATOM     21  F   UNL     1       7.506   5.140  -0.323  0.00  0.00    -0.203 F 
ATOM     22 CL   UNL     1       8.199   6.049  -3.038  0.00  0.00    -0.081 Cl
ATOM     23  F   UNL     1       3.397   7.532  -0.015  0.00  0.00    -0.205 F 
ENDBRANCH  11  15
BRANCH   1  25
ATOM     24  N   UNL     1       1.131   1.374   0.388  0.00  0.00    -0.310 N 
ATOM     25  C   UNL     1       2.395   1.819   0.532  0.00  0.00    +0.219 C 
ATOM     26  O   UNL     1       3.328   1.067   0.345  0.00  0.00    -0.275 OA
ATOM     27  H   UNL     1       0.388   1.992   0.465  0.00  0.00    +0.149 HD
BRANCH  24  28
ATOM     28  C   UNL     1       0.881  -0.043   0.115  0.00  0.00    +0.087 C 
BRANCH  28  29
ATOM     29  C   UNL     1      -0.487  -0.203  -0.497  0.00  0.00    -0.029 A 
ATOM     30  C   UNL     1      -1.546   0.553  -0.029  0.00  0.00    +0.005 A 
ATOM     31  C   UNL     1      -2.800   0.407  -0.591  0.00  0.00    +0.000 A 
ATOM     32  C   UNL     1      -2.997  -0.495  -1.619  0.00  0.00    +0.000 A 
ATOM     33  C   UNL     1      -1.938  -1.250  -2.088  0.00  0.00    +0.000 A 
ATOM     34  C   UNL     1      -0.682  -1.101  -1.529  0.00  0.00    +0.005 A 
ENDBRANCH  28  29
BRANCH  28  35
ATOM     35  C   UNL     1       0.951  -0.835   1.422  0.00  0.00    -0.052 C 
BRANCH  35  37
ATOM     36  C   UNL     1       1.996  -2.720   0.369  0.00  0.00    -0.097 C 
ATOM     37  N   UNL     1       0.825  -2.270   1.133  0.00  0.00    +0.377 N 
ATOM     38  C   UNL     1       0.746  -3.018   2.395  0.00  0.00    -0.097 C 
ATOM     39  H   UNL     1      -0.012  -2.432   0.593  0.00  0.00    -0.083 HD
ENDBRANCH  35  37
ENDBRANCH  28  35
ENDBRANCH  24  28
ENDBRANCH   1  25
TORSDOF 6
