REMARK  Name = ZINC66723117
REMARK  9 active torsions:
REMARK  status: ('A' for Active; 'I' for Inactive)
REMARK    1  A    between atoms: C_1  and  C_2
REMARK    2  A    between atoms: C_2  and  C_4
REMARK    3  A    between atoms: C_2  and  C_22
REMARK    4  A    between atoms: C_4  and  C_5
REMARK    5  A    between atoms: N_7  and  S_8
REMARK    6  A    between atoms: S_8  and  C_11
REMARK    7  A    between atoms: C_22  and  C_23
REMARK    8  A    between atoms: C_22  and  C_24
REMARK    9  A    between atoms: C_22  and  C_25
REMARK                            x       y       z     vdW  Elec       q    Type
REMARK                         _______ _______ _______ _____ _____    ______ ____
ROOT
ATOM      1  S   UNL     1      -2.055   0.986  -3.678  0.00  0.00    +0.102 S 
ATOM      2  O   UNL     1      -1.264   1.925  -4.392  0.00  0.00    -0.146 OA
ATOM      3  O   UNL     1      -2.522  -0.221  -4.266  0.00  0.00    -0.146 OA
ENDROOT
BRANCH   1   4
ATOM      4  C   UNL     1      -3.479   1.853  -3.111  0.00  0.00    +0.113 A 
ATOM      5  C   UNL     1      -4.641   1.160  -2.823  0.00  0.00    +0.031 A 
ATOM      6  C   UNL     1      -5.759   1.837  -2.378  0.00  0.00    +0.025 A 
ATOM      7  C   UNL     1      -5.717   3.216  -2.220  0.00  0.00    +0.037 A 
ATOM      8  C   UNL     1      -4.549   3.909  -2.510  0.00  0.00    -0.024 A 
ATOM      9  C   UNL     1      -3.432   3.226  -2.950  0.00  0.00    +0.034 A 
ATOM     10  C   UNL     1      -4.503   5.405  -2.337  0.00  0.00    +0.046 C 
ATOM     11  C   UNL     1      -5.870   6.000  -2.673  0.00  0.00    +0.101 C 
ATOM     12  C   UNL     1      -6.952   5.235  -1.958  0.00  0.00    +0.218 C 
ATOM     13  O   UNL     1      -7.931   5.822  -1.549  0.00  0.00    -0.275 OA
ATOM     14  N   UNL     1      -6.845   3.907  -1.770  0.00  0.00    -0.285 N 
ATOM     15  H   UNL     1      -7.556   3.426  -1.318  0.00  0.00    +0.155 HD
ENDBRANCH   1   4
BRANCH   1  18
ATOM     16  C   UNL     1      -0.077  -0.103  -2.474  0.00  0.00    +0.265 C 
ATOM     17  O   UNL     1       0.365  -0.434  -3.705  0.00  0.00    -0.269 OA
ATOM     18  N   UNL     1      -1.181   0.552  -2.340  0.00  0.00    -0.091 NA
BRANCH  16  19
ATOM     19  C   UNL     1       0.718  -0.497  -1.257  0.00  0.00    +0.106 C 
BRANCH  19  21
ATOM     20  C   UNL     1      -0.019   1.526   0.010  0.00  0.00    +0.008 C 
ATOM     21  C   UNL     1       0.002  -0.004   0.002  0.00  0.00    +0.000 C 
BRANCH  21  22
ATOM     22  C   UNL     1       0.742  -0.511   1.242  0.00  0.00    -0.035 C 
ATOM     23  C   UNL     1       0.026  -0.018   2.500  0.00  0.00    +0.011 C 
ATOM     24  C   UNL     1       0.763  -2.041   1.233  0.00  0.00    +0.011 C 
ATOM     25  C   UNL     1       2.178   0.019   1.231  0.00  0.00    +0.011 C 
ENDBRANCH  21  22
ENDBRANCH  19  21
ENDBRANCH  16  19
ENDBRANCH   1  18
TORSDOF 5
