REMARK  Name = ZINC04308147
REMARK  5 active torsions:
REMARK  status: ('A' for Active; 'I' for Inactive)
REMARK    1  A    between atoms: C_1  and  C_2
REMARK    2  A    between atoms: C_2  and  C_3
REMARK    3  A    between atoms: N_11  and  C_15
REMARK    4  A    between atoms: C_15  and  C_16
REMARK    5  A    between atoms: N_18  and  C_19
REMARK                            x       y       z     vdW  Elec       q    Type
REMARK                         _______ _______ _______ _____ _____    ______ ____
ROOT
ATOM      1  C   UNL     1       1.899  -5.293  -5.140  0.00  0.00    -0.011 C 
ATOM      2  C   UNL     1       3.019  -4.268  -4.948  0.00  0.00    +0.006 C 
ATOM      3  C   UNL     1       2.680  -3.361  -3.763  0.00  0.00    +0.035 C 
ATOM      4  C   UNL     1       2.519  -4.204  -2.503  0.00  0.00    +0.113 C 
ATOM      5  C   UNL     1       1.423  -5.248  -2.688  0.00  0.00    +0.035 C 
ATOM      6  C   UNL     1       1.767  -6.147  -3.878  0.00  0.00    +0.006 C 
ATOM      7  C   UNL     1       3.827  -4.870  -2.143  0.00  0.00    +0.247 C 
ATOM      8  O   UNL     1       4.453  -5.666  -2.809  0.00  0.00    -0.273 OA
ATOM      9  N   UNL     1       4.151  -4.392  -0.924  0.00  0.00    -0.215 N 
ATOM     10  C   UNL     1       3.235  -3.525  -0.474  0.00  0.00    +0.310 C 
ATOM     11  O   UNL     1       3.307  -2.962   0.600  0.00  0.00    -0.252 OA
ATOM     12  N   UNL     1       2.224  -3.349  -1.346  0.00  0.00    -0.285 N 
ATOM     13  H   UNL     1       1.454  -2.770  -1.233  0.00  0.00    +0.151 HD
ENDROOT
BRANCH   1  15
ATOM     14  C   UNL     1       2.240  -5.358  -7.615  0.00  0.00    +0.004 C 
ATOM     15  C   UNL     1       2.230  -6.193  -6.333  0.00  0.00    -0.000 C 
ENDBRANCH   1  15
BRANCH   9  16
ATOM     16  C   UNL     1       5.356  -4.774  -0.183  0.00  0.00    +0.214 C 
BRANCH  16  17
ATOM     17  C   UNL     1       6.482  -3.836  -0.538  0.00  0.00    +0.235 C 
ATOM     18  O   UNL     1       6.296  -2.938  -1.331  0.00  0.00    -0.274 OA
ATOM     19  N   UNL     1       7.695  -3.997   0.026  0.00  0.00    -0.280 N 
ATOM     20  H   UNL     1       7.825  -4.668   0.715  0.00  0.00    +0.155 HD
BRANCH  19  21
ATOM     21  C   UNL     1       8.769  -3.194  -0.381  0.00  0.00    +0.105 A 
ATOM     22  C   UNL     1       9.575  -3.593  -1.441  0.00  0.00    +0.147 A 
ATOM     23  C   UNL     1      10.634  -2.798  -1.840  0.00  0.00    +0.040 A 
ATOM     24  C   UNL     1      10.892  -1.607  -1.187  0.00  0.00    +0.006 A 
ATOM     25  C   UNL     1      10.092  -1.206  -0.132  0.00  0.00    +0.040 A 
ATOM     26  C   UNL     1       9.028  -1.993   0.270  0.00  0.00    +0.147 A 
ATOM     27  F   UNL     1       8.244  -1.598   1.296  0.00  0.00    -0.203 F 
ATOM     28  F   UNL     1       9.325  -4.757  -2.080  0.00  0.00    -0.203 F 
ENDBRANCH  19  21
ENDBRANCH  16  17
ENDBRANCH   9  16
TORSDOF 4
