REMARK  Name = ZINC14472658
REMARK  3 active torsions:
REMARK  status: ('A' for Active; 'I' for Inactive)
REMARK    1  A    between atoms: C_5  and  C_7
REMARK    2  A    between atoms: C_11  and  C_20
REMARK    3  A    between atoms: C_22  and  N_27
REMARK                            x       y       z     vdW  Elec       q    Type
REMARK                         _______ _______ _______ _____ _____    ______ ____
ROOT
ATOM      1  C   UNL     1       3.975   2.439  -0.217  0.00  0.00    +0.001 A 
ATOM      2  C   UNL     1       3.034   2.932  -1.106  0.00  0.00    +0.006 A 
ATOM      3  C   UNL     1       1.738   2.466  -1.092  0.00  0.00    -0.019 A 
ATOM      4  C   UNL     1       1.349   1.473  -0.188  0.00  0.00    +0.044 A 
ATOM      5  C   UNL     1       2.312   0.982   0.718  0.00  0.00    +0.058 A 
ATOM      6  C   UNL     1       3.617   1.471   0.695  0.00  0.00    +0.015 A 
ATOM      7  N   UNL     1       0.075   0.934  -0.123  0.00  0.00    -0.336 N 
ATOM      8  C   UNL     1      -0.944   1.525  -1.006  0.00  0.00    +0.106 C 
ATOM      9  C   UNL     1      -0.267   1.829  -2.326  0.00  0.00    +0.029 C 
ATOM     10  C   UNL     1       0.708   3.006  -2.007  0.00  0.00    +0.049 C 
ATOM     11  C   UNL     1       1.033   3.546  -3.350  0.00  0.00    -0.023 C 
ATOM     12  C   UNL     1       0.007   3.307  -4.160  0.00  0.00    -0.030 C 
ATOM     13  C   UNL     1      -1.085   2.542  -3.408  0.00  0.00    +0.033 C 
ATOM     14  H   UNL     1       0.102  -0.070  -0.225  0.00  0.00    +0.147 HD
ENDROOT
BRANCH   8  15
ATOM     15  C   UNL     1      -2.070   0.547  -1.219  0.00  0.00    -0.007 A 
ATOM     16  C   UNL     1      -2.156  -0.160  -2.403  0.00  0.00    +0.039 A 
ATOM     17  C   UNL     1      -3.189  -1.058  -2.599  0.00  0.00    +0.127 A 
ATOM     18  C   UNL     1      -4.135  -1.250  -1.609  0.00  0.00    +0.034 A 
ATOM     19  C   UNL     1      -4.050  -0.544  -0.424  0.00  0.00    +0.022 A 
ATOM     20  C   UNL     1      -3.013   0.351  -0.226  0.00  0.00    +0.046 A 
ATOM     21 CL   UNL     1      -2.901   1.234   1.265  0.00  0.00    -0.083 Cl
BRANCH  17  22
ATOM     22  N   UNL     1      -3.281  -1.815  -3.868  0.00  0.00    +0.056 N 
ATOM     23  O   UNL     1      -2.448  -1.645  -4.739  0.00  0.00    -0.126 OA
ATOM     24  O   UNL     1      -4.191  -2.606  -4.040  0.00  0.00    -0.126 OA
ENDBRANCH  17  22
ENDBRANCH   8  15
BRANCH   5  25
ATOM     25  C   UNL     1       1.936  -0.055   1.695  0.00  0.00    +0.243 C 
ATOM     26  O   UNL     1       0.798  -0.485   1.719  0.00  0.00    -0.270 OA
ATOM     27  N   UNL     1       2.853  -0.528   2.563  0.00  0.00    -0.325 N 
ATOM     28  H   UNL     1       3.760  -0.185   2.544  0.00  0.00    +0.145 HD
ATOM     29  H   UNL     1       2.606  -1.211   3.206  0.00  0.00    +0.145 HD
ENDBRANCH   5  25
TORSDOF 3
