REMARK  Name = ZINC23465300
REMARK  12 active torsions:
REMARK  status: ('A' for Active; 'I' for Inactive)
REMARK    1  A    between atoms: C_1  and  C_2
REMARK    2  A    between atoms: C_4  and  C_30
REMARK    3  A    between atoms: C_5  and  N_9
REMARK    4  A    between atoms: C_6  and  C_8
REMARK    5  A    between atoms: C_10  and  C_12
REMARK    6  A    between atoms: C_12  and  N_13
REMARK    7  A    between atoms: C_14  and  C_16
REMARK    8  A    between atoms: C_16  and  S_17
REMARK    9  A    between atoms: S_17  and  C_18
REMARK   10  A    between atoms: C_21  and  C_24
REMARK   11  A    between atoms: N_22  and  C_23
REMARK   12  A    between atoms: C_28  and  C_29
REMARK                            x       y       z     vdW  Elec       q    Type
REMARK                         _______ _______ _______ _____ _____    ______ ____
ROOT
ATOM      1  N   UNL     1       0.822  -6.987   2.272  0.00  0.00    -0.306 N 
ATOM      2  C   UNL     1       0.875  -8.316   2.492  0.00  0.00    +0.224 C 
ATOM      3  O   UNL     1       0.489  -9.088   1.640  0.00  0.00    -0.275 OA
ATOM      4  H   UNL     1       1.131  -6.370   2.953  0.00  0.00    +0.149 HD
ENDROOT
BRANCH   1   5
ATOM      5  C   UNL     1       0.297  -6.476   1.003  0.00  0.00    +0.200 C 
BRANCH   5   7
ATOM      6  N   UNL     1      -0.090  -4.277  -0.061  0.00  0.00    -0.284 N 
ATOM      7  C   UNL     1       0.345  -4.970   1.010  0.00  0.00    +0.234 C 
ATOM      8  O   UNL     1       0.776  -4.381   1.979  0.00  0.00    -0.274 OA
ATOM      9  H   UNL     1      -0.509  -4.741  -0.802  0.00  0.00    +0.155 HD
BRANCH   6  14
ATOM     10  C   UNL     1       0.525   1.361  -0.234  0.00  0.00    +0.044 C 
ATOM     11  C   UNL     1       0.361  -0.137  -0.188  0.00  0.00    -0.050 A 
ATOM     12  C   UNL     1       0.894  -0.920  -1.195  0.00  0.00    +0.008 A 
ATOM     13  C   UNL     1       0.746  -2.293  -1.156  0.00  0.00    -0.029 A 
ATOM     14  C   UNL     1       0.062  -2.886  -0.103  0.00  0.00    +0.039 A 
ATOM     15  C   UNL     1      -0.472  -2.097   0.907  0.00  0.00    -0.029 A 
ATOM     16  C   UNL     1      -0.316  -0.725   0.864  0.00  0.00    +0.008 A 
ATOM     17  C   UNL     1      -1.216  -2.736   2.051  0.00  0.00    +0.045 C 
ATOM     18  C   UNL     1       1.327  -3.146  -2.255  0.00  0.00    +0.045 C 
ENDBRANCH   6  14
ENDBRANCH   5   7
ENDBRANCH   1   5
BRANCH   2  19
ATOM     19  C   UNL     1       1.415  -8.842   3.797  0.00  0.00    +0.173 C 
BRANCH  19  20
ATOM     20  S   UNL     1       1.357 -10.655   3.789  0.00  0.00    -0.077 S 
BRANCH  20  21
ATOM     21  C   UNL     1       2.013 -11.109   5.360  0.00  0.00    +0.192 A 
ATOM     22  N   UNL     1       2.430 -10.290   6.296  0.00  0.00    -0.122 NA
ATOM     23  N   UNL     1       2.845 -10.956   7.314  0.00  0.00    -0.128 NA
ATOM     24  C   UNL     1       2.717 -12.243   7.090  0.00  0.00    +0.168 A 
ATOM     25  N   UNL     1       2.176 -12.382   5.833  0.00  0.00    -0.305 N 
ATOM     26  C   UNL     1       1.845 -13.632   5.145  0.00  0.00    +0.153 C 
BRANCH  24  27
ATOM     27  C   UNL     1       3.083 -13.337   8.015  0.00  0.00    +0.060 A 
ATOM     28  C   UNL     1       3.839 -14.554   7.694  0.00  0.00    +0.053 A 
ATOM     29  C   UNL     1       3.926 -15.249   8.840  0.00  0.00    +0.196 A 
ATOM     30  O   UNL     1       3.299 -14.571   9.813  0.00  0.00    -0.467 OA
ATOM     31  C   UNL     1       2.793 -13.422   9.342  0.00  0.00    +0.112 A 
ATOM     32  C   UNL     1       2.030 -12.400  10.144  0.00  0.00    +0.087 C 
ENDBRANCH  24  27
ENDBRANCH  20  21
ENDBRANCH  19  20
ENDBRANCH   2  19
TORSDOF 7
