REMARK  Name = ZINC00052201
REMARK  4 active torsions:
REMARK  status: ('A' for Active; 'I' for Inactive)
REMARK    1  A    between atoms: C_1  and  C_2
REMARK    2  A    between atoms: C_5  and  C_8
REMARK    3  A    between atoms: C_21  and  N_25
REMARK    4  A    between atoms: C_22  and  C_23
REMARK                            x       y       z     vdW  Elec       q    Type
REMARK                         _______ _______ _______ _____ _____    ______ ____
ROOT
ATOM      1  C   UNL     1      -1.319   2.115   0.032  0.00  0.00    +0.098 C 
ATOM      2  C   UNL     1      -0.016   1.360   0.009  0.00  0.00    +0.015 A 
ATOM      3  C   UNL     1       1.195   2.074   0.002  0.00  0.00    -0.010 A 
ATOM      4  C   UNL     1       1.210   3.480   0.007  0.00  0.00    +0.009 A 
ATOM      5  C   UNL     1       2.399   4.141   0.002  0.00  0.00    +0.001 A 
ATOM      6  C   UNL     1       3.607   3.445  -0.009  0.00  0.00    +0.001 A 
ATOM      7  C   UNL     1       3.631   2.084  -0.016  0.00  0.00    +0.008 A 
ATOM      8  C   UNL     1       2.423   1.367  -0.012  0.00  0.00    -0.017 A 
ATOM      9  C   UNL     1       2.408  -0.039  -0.020  0.00  0.00    +0.012 A 
ATOM     10  C   UNL     1       1.221  -0.699  -0.013  0.00  0.00    +0.047 A 
ATOM     11  C   UNL     1       0.002  -0.004   0.002  0.00  0.00    +0.135 A 
ATOM     12  O   UNL     1      -1.154  -0.715   0.010  0.00  0.00    -0.441 OA
ATOM     13  C   UNL     1      -2.304  -0.134  -0.368  0.00  0.00    +0.199 C 
ATOM     14  C   UNL     1      -2.449   1.213  -0.383  0.00  0.00    +0.098 C 
ENDROOT
BRANCH   1  19
ATOM     15  C   UNL     1      -2.279   4.116   5.368  0.00  0.00    +0.044 C 
ATOM     16  C   UNL     1      -2.028   3.594   3.977  0.00  0.00    -0.050 A 
ATOM     17  C   UNL     1      -1.924   4.475   2.917  0.00  0.00    +0.003 A 
ATOM     18  C   UNL     1      -1.694   3.997   1.640  0.00  0.00    +0.005 A 
ATOM     19  C   UNL     1      -1.569   2.637   1.424  0.00  0.00    -0.035 A 
ATOM     20  C   UNL     1      -1.678   1.756   2.483  0.00  0.00    +0.005 A 
ATOM     21  C   UNL     1      -1.903   2.234   3.760  0.00  0.00    +0.003 A 
ENDBRANCH   1  19
BRANCH  13  22
ATOM     22  N   UNL     1      -3.360  -0.925  -0.749  0.00  0.00    -0.328 N 
ATOM     23  H   UNL     1      -3.269  -1.891  -0.743  0.00  0.00    +0.145 HD
ATOM     24  H   UNL     1      -4.196  -0.518  -1.024  0.00  0.00    +0.145 HD
ENDBRANCH  13  22
BRANCH  14  25
ATOM     25  C   UNL     1      -3.695   1.785  -0.795  0.00  0.00    +0.101 C 
ATOM     26  N   UNL     1      -4.684   2.239  -1.121  0.00  0.00    -0.191 NA
ENDBRANCH  14  25
TORSDOF 3
