REMARK  Name = ZINC06077121
REMARK  6 active torsions:
REMARK  status: ('A' for Active; 'I' for Inactive)
REMARK    1  A    between atoms: C_3  and  S_23
REMARK    2  A    between atoms: C_6  and  C_7
REMARK    3  A    between atoms: C_7  and  N_41
REMARK    4  A    between atoms: C_8  and  N_41
REMARK    5  A    between atoms: N_13  and  C_16
REMARK    6  A    between atoms: S_23  and  N_26
REMARK                            x       y       z     vdW  Elec       q    Type
REMARK                         _______ _______ _______ _____ _____    ______ ____
ROOT
ATOM      1  N   UNL     1      -2.441   2.703  -6.052  0.00  0.00    +0.390 N 
ATOM      2  H   UNL     1      -2.331   1.683  -6.079  0.00  0.00    -0.084 HD
ATOM      3  H   UNL     1      -1.516   3.147  -6.085  0.00  0.00    -0.084 HD
ENDROOT
BRANCH   1   4
ATOM      4  C   UNL     1      -3.232   3.139  -7.217  0.00  0.00    +0.026 C 
ATOM      5  C   UNL     1      -2.912   2.258  -8.442  0.00  0.00    +0.090 C 
ATOM      6  C   UNL     1      -2.344   3.238  -9.445  0.00  0.00    +0.225 C 
ATOM      7  O   UNL     1      -1.959   2.958 -10.560  0.00  0.00    -0.275 OA
ATOM      8  N   UNL     1      -2.334   4.464  -8.907  0.00  0.00    -0.212 N 
ATOM      9  C   UNL     1      -2.812   4.525  -7.658  0.00  0.00    +0.213 C 
ATOM     10  O   UNL     1      -2.894   5.530  -6.986  0.00  0.00    -0.277 OA
BRANCH   8  11
ATOM     11  C   UNL     1      -1.863   5.591  -9.595  0.00  0.00    +0.044 A 
ATOM     12  C   UNL     1      -0.514   5.705  -9.902  0.00  0.00    +0.025 A 
ATOM     13  C   UNL     1      -0.053   6.814 -10.585  0.00  0.00    +0.017 A 
ATOM     14  C   UNL     1      -0.933   7.816 -10.953  0.00  0.00    +0.018 A 
ATOM     15  C   UNL     1      -2.277   7.708 -10.643  0.00  0.00    +0.017 A 
ATOM     16  C   UNL     1      -2.744   6.598  -9.966  0.00  0.00    +0.025 A 
ATOM     17 BR   UNL     1      -0.298   9.336 -11.880  0.00  0.00    -0.050 Br
ENDBRANCH   8  11
ENDBRANCH   1   4
BRANCH   1  18
ATOM     18  C   UNL     1      -3.120   3.086  -4.799  0.00  0.00    -0.046 C 
BRANCH  18  24
ATOM     19  C   UNL     1      -1.327   3.464  -3.094  0.00  0.00    +0.003 A 
ATOM     20  C   UNL     1      -0.566   3.044  -2.019  0.00  0.00    +0.029 A 
ATOM     21  C   UNL     1      -0.767   1.788  -1.478  0.00  0.00    +0.105 A 
ATOM     22  C   UNL     1      -1.727   0.950  -2.015  0.00  0.00    +0.029 A 
ATOM     23  C   UNL     1      -2.492   1.372  -3.086  0.00  0.00    +0.003 A 
ATOM     24  C   UNL     1      -2.290   2.628  -3.628  0.00  0.00    -0.064 A 
BRANCH  21  25
ATOM     25  S   UNL     1       0.203   1.252  -0.109  0.00  0.00    +0.056 S 
ATOM     26  O   UNL     1       0.195  -0.169  -0.136  0.00  0.00    -0.153 OA
ATOM     27  O   UNL     1       1.407   2.007  -0.144  0.00  0.00    -0.153 OA
BRANCH  25  28
ATOM     28  N   UNL     1      -0.600   1.705   1.267  0.00  0.00    -0.204 NA
ATOM     29  H   UNL     1      -0.426   2.571   1.667  0.00  0.00    +0.144 HD
ATOM     30  H   UNL     1      -1.244   1.103   1.673  0.00  0.00    +0.144 HD
ENDBRANCH  25  28
ENDBRANCH  21  25
ENDBRANCH  18  24
ENDBRANCH   1  18
TORSDOF 6
