REMARK  Name = ZINC08904562
REMARK  4 active torsions:
REMARK  status: ('A' for Active; 'I' for Inactive)
REMARK    1  A    between atoms: C_8  and  C_12
REMARK    2  A    between atoms: C_16  and  C_18
REMARK    3  A    between atoms: N_20  and  C_21
REMARK    4  A    between atoms: C_22  and  C_31
REMARK                            x       y       z     vdW  Elec       q    Type
REMARK                         _______ _______ _______ _____ _____    ______ ____
ROOT
ATOM      1  C   UNL     1       6.606  -2.402   1.591  0.00  0.00    +0.249 C 
ATOM      2  O   UNL     1       6.903  -1.598   0.729  0.00  0.00    -0.270 OA
ATOM      3  N   UNL     1       5.328  -2.501   2.008  0.00  0.00    -0.275 N 
ATOM      4  H   UNL     1       5.090  -3.142   2.696  0.00  0.00    +0.156 HD
ENDROOT
BRANCH   3   5
ATOM      5  C   UNL     1       4.353  -1.687   1.453  0.00  0.00    +0.085 A 
ATOM      6  C   UNL     1       2.999  -1.642   1.746  0.00  0.00    +0.068 A 
ATOM      7  C   UNL     1       2.179  -0.684   1.016  0.00  0.00    -0.023 A 
ATOM      8  C   UNL     1       2.846   0.061   0.110  0.00  0.00    -0.004 A 
ATOM      9  S   UNL     1       4.530  -0.479   0.225  0.00  0.00    -0.077 S 
ATOM     10  C   UNL     1       2.288   1.105  -0.807  0.00  0.00    +0.043 C 
ATOM     11  C   UNL     1       1.406   2.068  -0.000  0.00  0.00    +0.005 C 
ATOM     12  C   UNL     1      -0.019   1.523   0.010  0.00  0.00    +0.001 C 
ATOM     13  C   UNL     1       0.002  -0.004   0.002  0.00  0.00    +0.005 C 
ATOM     14  C   UNL     1       0.682  -0.535   1.259  0.00  0.00    +0.037 C 
BRANCH   6  15
ATOM     15  C   UNL     1       2.412  -2.526   2.757  0.00  0.00    +0.244 C 
ATOM     16  O   UNL     1       1.983  -3.619   2.435  0.00  0.00    -0.270 OA
ATOM     17  N   UNL     1       2.347  -2.130   4.044  0.00  0.00    -0.325 N 
ATOM     18  H   UNL     1       2.689  -1.260   4.301  0.00  0.00    +0.145 HD
ATOM     19  H   UNL     1       1.959  -2.716   4.713  0.00  0.00    +0.145 HD
ENDBRANCH   6  15
ENDBRANCH   3   5
BRANCH   1  24
ATOM     20  C   UNL     1       9.941  -3.989   2.317  0.00  0.00    -0.010 A 
ATOM     21  C   UNL     1       9.588  -4.908   3.307  0.00  0.00    +0.009 A 
ATOM     22  C   UNL     1       8.276  -5.003   3.729  0.00  0.00    +0.001 A 
ATOM     23  C   UNL     1       7.306  -4.189   3.178  0.00  0.00    +0.013 A 
ATOM     24  C   UNL     1       7.645  -3.270   2.183  0.00  0.00    +0.038 A 
ATOM     25  C   UNL     1       8.968  -3.168   1.754  0.00  0.00    +0.021 A 
BRANCH  20  33
ATOM     26  C   UNL     1      16.084  -3.452   2.683  0.00  0.00    +0.001 A 
ATOM     27  C   UNL     1      16.323  -3.489   1.317  0.00  0.00    +0.004 A 
ATOM     28  C   UNL     1      15.279  -3.615   0.424  0.00  0.00    +0.047 A 
ATOM     29  C   UNL     1      13.973  -3.706   0.891  0.00  0.00    +0.139 A 
ATOM     30  C   UNL     1      13.735  -3.669   2.276  0.00  0.00    +0.018 A 
ATOM     31  C   UNL     1      14.809  -3.540   3.166  0.00  0.00    +0.011 A 
ATOM     32  C   UNL     1      12.363  -3.764   2.776  0.00  0.00    +0.027 A 
ATOM     33  C   UNL     1      11.348  -3.889   1.865  0.00  0.00    +0.067 A 
ATOM     34  C   UNL     1      11.676  -3.927   0.438  0.00  0.00    +0.345 A 
ATOM     35  O   UNL     1      10.783  -4.042  -0.381  0.00  0.00    -0.245 OA
ATOM     36  O   UNL     1      12.948  -3.829   0.021  0.00  0.00    -0.422 OA
ENDBRANCH  20  33
ENDBRANCH   1  24
TORSDOF 4
