REMARK  Name = ZINC38671169
REMARK  8 active torsions:
REMARK  status: ('A' for Active; 'I' for Inactive)
REMARK    1  A    between atoms: C_1  and  C_2
REMARK    2  A    between atoms: C_9  and  S_12
REMARK    3  A    between atoms: S_12  and  N_15
REMARK    4  A    between atoms: N_15  and  C_16
REMARK    5  A    between atoms: C_16  and  C_17
REMARK    6  A    between atoms: C_17  and  C_19
REMARK    7  A    between atoms: C_17  and  N_30
REMARK    8  A    between atoms: N_28  and  C_29
REMARK                            x       y       z     vdW  Elec       q    Type
REMARK                         _______ _______ _______ _____ _____    ______ ____
ROOT
ATOM      1  C   UNL     1       2.964   0.716   3.415  0.00  0.00    -0.022 C 
ENDROOT
BRANCH   1   2
ATOM      2  C   UNL     1       2.850   1.936   2.537  0.00  0.00    -0.059 A 
ATOM      3  C   UNL     1       1.936   2.926   2.848  0.00  0.00    +0.004 A 
ATOM      4  C   UNL     1       1.830   4.043   2.043  0.00  0.00    +0.023 A 
ATOM      5  C   UNL     1       2.642   4.171   0.921  0.00  0.00    +0.033 A 
ATOM      6  C   UNL     1       3.560   3.180   0.612  0.00  0.00    -0.026 A 
ATOM      7  C   UNL     1       3.661   2.065   1.427  0.00  0.00    +0.007 A 
ATOM      8  C   UNL     1       4.462   3.290  -0.588  0.00  0.00    +0.038 C 
ATOM      9  C   UNL     1       3.887   4.279  -1.601  0.00  0.00    +0.024 C 
ATOM     10  C   UNL     1       3.557   5.593  -0.880  0.00  0.00    +0.105 C 
ATOM     11  N   UNL     1       2.515   5.308   0.116  0.00  0.00    -0.333 N 
ATOM     12  C   UNL     1       1.362   6.200   0.263  0.00  0.00    +0.129 C 
ENDBRANCH   1   2
BRANCH   1  13
ATOM     13  N   UNL     1       2.848   1.115   4.824  0.00  0.00    +0.385 N 
ATOM     14  C   UNL     1       3.943   2.030   5.164  0.00  0.00    -0.078 C 
ATOM     15  C   UNL     1       3.781   2.512   6.607  0.00  0.00    -0.019 C 
ATOM     16  C   UNL     1       3.812   1.305   7.549  0.00  0.00    -0.004 C 
ATOM     17  C   UNL     1       2.712   0.321   7.138  0.00  0.00    -0.019 C 
ATOM     18  C   UNL     1       2.914  -0.079   5.675  0.00  0.00    -0.078 C 
ATOM     19  H   UNL     1       1.965   1.581   4.969  0.00  0.00    -0.081 HD
ENDBRANCH   1  13
BRANCH   1  20
ATOM     20  C   UNL     1       1.845  -0.268   3.069  0.00  0.00    +0.095 C 
BRANCH  20  21
ATOM     21  N   UNL     1       0.550   0.323   3.416  0.00  0.00    -0.191 NA
ATOM     22  H   UNL     1       0.510   1.084   4.016  0.00  0.00    +0.148 HD
BRANCH  21  23
ATOM     23  S   UNL     1      -0.844  -0.309   2.785  0.00  0.00    +0.060 S 
ATOM     24  O   UNL     1      -0.632  -0.444   1.387  0.00  0.00    -0.153 OA
ATOM     25  O   UNL     1      -1.915   0.453   3.324  0.00  0.00    -0.153 OA
BRANCH  23  34
ATOM     26  C   UNL     1       2.975  -3.225   1.054  0.00  0.00    +0.065 C 
ATOM     27  C   UNL     1       1.831  -3.584   1.967  0.00  0.00    +0.039 A 
ATOM     28  C   UNL     1       1.734  -4.887   2.452  0.00  0.00    +0.023 A 
ATOM     29  C   UNL     1       0.705  -5.231   3.281  0.00  0.00    +0.012 A 
ATOM     30  C   UNL     1      -0.235  -4.238   3.620  0.00  0.00    +0.002 A 
ATOM     31  C   UNL     1      -1.320  -4.517   4.467  0.00  0.00    +0.010 A 
ATOM     32  C   UNL     1      -2.207  -3.530   4.771  0.00  0.00    +0.003 A 
ATOM     33  C   UNL     1      -2.053  -2.246   4.252  0.00  0.00    +0.031 A 
ATOM     34  C   UNL     1      -1.014  -1.941   3.428  0.00  0.00    +0.131 A 
ATOM     35  C   UNL     1      -0.076  -2.933   3.091  0.00  0.00    +0.098 A 
ATOM     36  N   UNL     1       0.958  -2.662   2.289  0.00  0.00    -0.250 NA
ENDBRANCH  23  34
ENDBRANCH  21  23
ENDBRANCH  20  21
ENDBRANCH   1  20
TORSDOF 6
