REMARK  Name = ZINC01365547
REMARK  4 active torsions:
REMARK  status: ('A' for Active; 'I' for Inactive)
REMARK    1  A    between atoms: C_1  and  C_2
REMARK    2  A    between atoms: C_2  and  C_3
REMARK    3  A    between atoms: C_9  and  C_11
REMARK    4  A    between atoms: N_19  and  C_20
REMARK                            x       y       z     vdW  Elec       q    Type
REMARK                         _______ _______ _______ _____ _____    ______ ____
ROOT
ATOM      1  C   UNL     1       3.277  -2.529  -6.655  0.00  0.00    +0.078 C 
ATOM      2  C   UNL     1       2.860  -1.435  -7.641  0.00  0.00    +0.032 C 
ATOM      3  C   UNL     1       3.099  -1.926  -9.072  0.00  0.00    +0.110 C 
ATOM      4  N   UNL     1       4.499  -2.351  -9.199  0.00  0.00    -0.286 N 
ATOM      5  C   UNL     1       5.029  -3.332  -8.243  0.00  0.00    +0.110 C 
ATOM      6  C   UNL     1       4.769  -2.826  -6.821  0.00  0.00    +0.032 C 
ATOM      7  C   UNL     1       5.283  -1.849 -10.175  0.00  0.00    +0.302 C 
ATOM      8  O   UNL     1       4.809  -1.109 -11.015  0.00  0.00    -0.253 OA
ATOM      9  N   UNL     1       6.592  -2.169 -10.219  0.00  0.00    -0.296 N 
ATOM     10  H   UNL     1       6.954  -2.817  -9.594  0.00  0.00    +0.151 HD
ENDROOT
BRANCH   1  17
ATOM     11  C   UNL     1       0.713  -0.479  -1.237  0.00  0.00    +0.103 A 
ATOM     12  N   UNL     1       1.988  -0.749  -1.434  0.00  0.00    -0.145 NA
ATOM     13  N   UNL     1       2.362  -1.152  -2.571  0.00  0.00    -0.126 NA
ATOM     14  C   UNL     1       1.514  -1.311  -3.568  0.00  0.00    +0.188 A 
ATOM     15  S   UNL     1       0.054  -0.863  -2.853  0.00  0.00    -0.035 S 
ATOM     16  N   UNL     1       1.759  -1.742  -4.868  0.00  0.00    -0.263 N 
ATOM     17  C   UNL     1       3.012  -2.063  -5.247  0.00  0.00    +0.222 C 
ATOM     18  O   UNL     1       3.926  -1.976  -4.454  0.00  0.00    -0.275 OA
ATOM     19  H   UNL     1       1.028  -1.810  -5.501  0.00  0.00    +0.157 HD
BRANCH  11  21
ATOM     20  C   UNL     1      -0.012   1.538   0.010  0.00  0.00    +0.011 C 
ATOM     21  C   UNL     1       0.009   0.008   0.003  0.00  0.00    +0.061 C 
ENDBRANCH  11  21
ENDBRANCH   1  17
BRANCH   9  22
ATOM     22  C   UNL     1       7.467  -1.539 -11.210  0.00  0.00    +0.074 C 
ATOM     23  C   UNL     1       7.963  -0.196 -10.671  0.00  0.00    +0.022 C 
ATOM     24  C   UNL     1       8.877   0.463 -11.706  0.00  0.00    +0.002 C 
ATOM     25  C   UNL     1      10.074  -0.449 -11.984  0.00  0.00    +0.000 C 
ATOM     26  C   UNL     1       9.577  -1.792 -12.523  0.00  0.00    +0.002 C 
ATOM     27  C   UNL     1       8.663  -2.451 -11.488  0.00  0.00    +0.022 C 
ENDBRANCH   9  22
TORSDOF 3
