REMARK  Name = ZINC01636959
REMARK  15 active torsions:
REMARK  status: ('A' for Active; 'I' for Inactive)
REMARK    1  A    between atoms: C_1  and  C_2
REMARK    2  A    between atoms: C_2  and  C_3
REMARK    3  A    between atoms: C_2  and  C_4
REMARK    4  A    between atoms: C_2  and  N_74
REMARK    5  A    between atoms: C_4  and  C_5
REMARK    6  A    between atoms: C_5  and  C_6
REMARK    7  A    between atoms: C_6  and  C_7
REMARK    8  A    between atoms: C_7  and  C_8
REMARK    9  A    between atoms: C_8  and  C_9
REMARK   10  A    between atoms: C_8  and  C_10
REMARK   11  A    between atoms: C_8  and  N_71
REMARK   12  A    between atoms: C_11  and  C_12
REMARK   13  A    between atoms: C_11  and  N_71
REMARK   14  A    between atoms: C_23  and  C_24
REMARK   15  A    between atoms: C_23  and  N_74
REMARK                            x       y       z     vdW  Elec       q    Type
REMARK                         _______ _______ _______ _____ _____    ______ ____
ROOT
ATOM      1  C   UNL     1      -0.729   1.579   1.267  0.00  0.00    -0.001 C 
ENDROOT
BRANCH   1   2
ATOM      2  C   UNL     1      -0.013   1.086   0.008  0.00  0.00    -0.013 C 
BRANCH   2   4
ATOM      3  C   UNL     1      -2.188   1.063  -1.221  0.00  0.00    -0.010 C 
ATOM      4  C   UNL     1      -0.753   1.593  -1.232  0.00  0.00    -0.074 C 
ATOM      5  C   UNL     1      -0.773   3.123  -1.223  0.00  0.00    -0.010 C 
BRANCH   4   6
ATOM      6  N   UNL     1      -0.056   1.113  -2.440  0.00  0.00    +0.385 N 
ATOM      7  H   UNL     1      -0.042   0.086  -2.438  0.00  0.00    -0.085 HD
ATOM      8  H   UNL     1       0.907   1.468  -2.439  0.00  0.00    -0.085 HD
BRANCH   6   9
ATOM      9  C   UNL     1      -0.749   1.587  -3.653  0.00  0.00    -0.033 C 
BRANCH   9  10
ATOM     10  C   UNL     1      -0.006   1.075  -4.888  0.00  0.00    +0.194 C 
ATOM     11  C   UNL     1      -0.699   1.586  -6.158  0.00  0.00    +0.271 C 
ATOM     12  O   UNL     1       0.029   1.101  -7.292  0.00  0.00    -0.485 OA
ATOM     13  C   UNL     1       1.383   1.224  -7.247  0.00  0.00    +0.162 A 
ATOM     14  C   UNL     1       2.115   1.117  -8.421  0.00  0.00    +0.049 A 
ATOM     15  C   UNL     1       3.492   1.236  -8.391  0.00  0.00    +0.004 A 
ATOM     16  C   UNL     1       4.143   1.463  -7.193  0.00  0.00    +0.004 A 
ATOM     17  C   UNL     1       3.420   1.572  -6.021  0.00  0.00    +0.049 A 
ATOM     18  C   UNL     1       2.038   1.454  -6.043  0.00  0.00    +0.162 A 
ATOM     19  O   UNL     1       1.339   1.568  -4.881  0.00  0.00    -0.484 OA
ENDBRANCH   9  10
ENDBRANCH   6   9
ENDBRANCH   4   6
ENDBRANCH   2   4
ENDBRANCH   1   2
BRANCH   1  20
ATOM     20  C   UNL     1       0.011   1.072   2.506  0.00  0.00    -0.001 C 
BRANCH  20  21
ATOM     21  C   UNL     1      -0.705   1.566   3.765  0.00  0.00    -0.013 C 
BRANCH  21  22
ATOM     22  C   UNL     1       0.035   1.059   5.005  0.00  0.00    -0.074 C 
ATOM     23  C   UNL     1       0.056  -0.471   4.996  0.00  0.00    -0.010 C 
ATOM     24  C   UNL     1       1.470   1.589   4.994  0.00  0.00    -0.010 C 
BRANCH  22  25
ATOM     25  N   UNL     1      -0.661   1.539   6.213  0.00  0.00    +0.385 N 
ATOM     26  H   UNL     1      -1.625   1.183   6.213  0.00  0.00    -0.085 HD
ATOM     27  H   UNL     1      -0.675   2.565   6.211  0.00  0.00    -0.085 HD
BRANCH  25  28
ATOM     28  C   UNL     1       0.032   1.064   7.426  0.00  0.00    -0.033 C 
BRANCH  28  29
ATOM     29  C   UNL     1      -0.712   1.577   8.661  0.00  0.00    +0.194 C 
ATOM     30  C   UNL     1       0.015   1.115   9.931  0.00  0.00    +0.271 C 
ATOM     31  O   UNL     1      -0.698   1.622  11.065  0.00  0.00    -0.485 OA
ATOM     32  C   UNL     1      -1.069   2.930  11.019  0.00  0.00    +0.162 A 
ATOM     33  C   UNL     1      -1.431   3.577  12.191  0.00  0.00    +0.049 A 
ATOM     34  C   UNL     1      -1.813   4.904  12.160  0.00  0.00    +0.004 A 
ATOM     35  C   UNL     1      -1.837   5.592  10.961  0.00  0.00    +0.004 A 
ATOM     36  C   UNL     1      -1.476   4.954   9.789  0.00  0.00    +0.049 A 
ATOM     37  C   UNL     1      -1.090   3.622   9.814  0.00  0.00    +0.162 A 
ATOM     38  O   UNL     1      -0.735   3.008   8.652  0.00  0.00    -0.484 OA
ENDBRANCH  28  29
ENDBRANCH  25  28
ENDBRANCH  22  25
ENDBRANCH  21  22
ENDBRANCH  20  21
ENDBRANCH   1  20
TORSDOF 11
