REMARK  Name = ZINC24506980
REMARK  8 active torsions:
REMARK  status: ('A' for Active; 'I' for Inactive)
REMARK    1  A    between atoms: C_1  and  C_2
REMARK    2  A    between atoms: C_9  and  N_14
REMARK    3  A    between atoms: C_10  and  C_11
REMARK    4  A    between atoms: C_15  and  C_17
REMARK    5  A    between atoms: C_17  and  S_18
REMARK    6  A    between atoms: S_18  and  C_19
REMARK    7  A    between atoms: N_24  and  C_25
REMARK    8  A    between atoms: C_25  and  C_26
REMARK                            x       y       z     vdW  Elec       q    Type
REMARK                         _______ _______ _______ _____ _____    ______ ____
ROOT
ATOM      1  N   UNL     1      -1.073  -0.880   0.007  0.00  0.00    -0.279 N 
ATOM      2  C   UNL     1      -2.332  -0.402   0.022  0.00  0.00    +0.228 C 
ATOM      3  O   UNL     1      -2.526   0.795   0.031  0.00  0.00    -0.275 OA
ATOM      4  H   UNL     1      -0.897  -1.966  -0.001  0.00  0.00    +0.155 HD
ENDROOT
BRANCH   1  12
ATOM      5  C   UNL     1       4.705   4.392  -0.115  0.00  0.00    +0.008 C 
ATOM      6  C   UNL     1       3.891   3.127  -0.398  0.00  0.00    -0.009 C 
ATOM      7  C   UNL     1       4.445   1.962   0.428  0.00  0.00    +0.008 C 
ATOM      8  C   UNL     1       3.805   0.650  -0.029  0.00  0.00    +0.037 C 
ATOM      9  C   UNL     1       2.290   0.813  -0.015  0.00  0.00    -0.023 A 
ATOM     10  C   UNL     1       1.722   2.038  -0.003  0.00  0.00    -0.004 A 
ATOM     11  S   UNL     1      -0.021   1.728   0.011  0.00  0.00    -0.077 S 
ATOM     12  C   UNL     1       0.002  -0.004   0.002  0.00  0.00    +0.084 A 
ATOM     13  C   UNL     1       1.357  -0.302  -0.012  0.00  0.00    +0.068 A 
ATOM     14  C   UNL     1       2.425   3.360  -0.004  0.00  0.00    +0.046 C 
BRANCH  13  15
ATOM     15  C   UNL     1       1.831  -1.689  -0.025  0.00  0.00    +0.244 C 
ATOM     16  O   UNL     1       2.017  -2.259  -1.084  0.00  0.00    -0.270 OA
ATOM     17  N   UNL     1       2.060  -2.334   1.137  0.00  0.00    -0.325 N 
ATOM     18  H   UNL     1       2.415  -3.375   1.127  0.00  0.00    +0.145 HD
ATOM     19  H   UNL     1       1.892  -1.819   2.094  0.00  0.00    +0.145 HD
ENDBRANCH  13  15
ENDBRANCH   1  12
BRANCH   2  20
ATOM     20  C   UNL     1      -3.500  -1.354   0.028  0.00  0.00    +0.172 C 
BRANCH  20  21
ATOM     21  S   UNL     1      -5.050  -0.411   0.049  0.00  0.00    -0.088 S 
BRANCH  21  22
ATOM     22  C   UNL     1      -6.303  -1.649   0.054  0.00  0.00    +0.160 A 
ATOM     23  N   UNL     1      -6.180  -2.963   0.045  0.00  0.00    -0.133 NA
ATOM     24  N   UNL     1      -7.305  -3.755   0.052  0.00  0.00    -0.125 NA
ATOM     25  C   UNL     1      -8.500  -3.199   0.067  0.00  0.00    +0.182 A 
ATOM     26  S   UNL     1      -8.079  -1.462   0.079  0.00  0.00    -0.025 S 
ATOM     27  N   UNL     1      -9.752  -3.801   0.077  0.00  0.00    -0.320 N 
ATOM     28  H   UNL     1     -10.661  -3.182   0.089  0.00  0.00    +0.148 HD
BRANCH  27  29
ATOM     29  C   UNL     1      -9.862  -5.262   0.069  0.00  0.00    +0.135 C 
BRANCH  29  30
ATOM     30  C   UNL     1     -11.339  -5.663   0.082  0.00  0.00    +0.135 C 
ATOM     31  C   UNL     1     -11.465  -7.199   0.082  0.00  0.00    +0.035 C 
ATOM     32  C   UNL     1     -12.265  -7.513   1.370  0.00  0.00    +0.031 C 
ATOM     33  C   UNL     1     -12.960  -6.158   1.659  0.00  0.00    +0.160 C 
ATOM     34  O   UNL     1     -11.966  -5.179   1.282  0.00  0.00    -0.375 OA
ENDBRANCH  29  30
ENDBRANCH  27  29
ENDBRANCH  21  22
ENDBRANCH  20  21
ENDBRANCH   2  20
TORSDOF 7
