REMARK  Name = ZINC23524377
REMARK  12 active torsions:
REMARK  status: ('A' for Active; 'I' for Inactive)
REMARK    1  A    between atoms: C_1  and  C_2
REMARK    2  A    between atoms: C_4  and  C_34
REMARK    3  A    between atoms: C_5  and  N_9
REMARK    4  A    between atoms: C_6  and  C_8
REMARK    5  A    between atoms: C_10  and  C_12
REMARK    6  A    between atoms: C_12  and  N_13
REMARK    7  A    between atoms: N_13  and  C_14
REMARK    8  A    between atoms: C_15  and  C_17
REMARK    9  A    between atoms: C_17  and  N_18
REMARK   10  A    between atoms: C_23  and  C_30
REMARK   11  A    between atoms: C_26  and  C_28
REMARK   12  A    between atoms: C_26  and  C_29
REMARK                            x       y       z     vdW  Elec       q    Type
REMARK                         _______ _______ _______ _____ _____    ______ ____
ROOT
ATOM      1  N   UNL     1      -0.376  -1.798  -0.245  0.00  0.00    -0.294 N 
ATOM      2  C   UNL     1      -0.900  -3.111  -0.630  0.00  0.00    +0.132 C 
ATOM      3  C   UNL     1      -1.226  -0.794   0.049  0.00  0.00    +0.234 C 
ATOM      4  O   UNL     1      -0.792   0.293   0.368  0.00  0.00    -0.274 OA
ENDROOT
BRANCH   1   5
ATOM      5  C   UNL     1       1.071  -1.577  -0.179  0.00  0.00    +0.203 C 
BRANCH   5   7
ATOM      6  N   UNL     1       2.874  -1.770   1.503  0.00  0.00    -0.284 N 
ATOM      7  C   UNL     1       1.566  -1.901   1.207  0.00  0.00    +0.235 C 
ATOM      8  O   UNL     1       0.787  -2.279   2.056  0.00  0.00    -0.274 OA
ATOM      9  H   UNL     1       3.593  -1.504   0.713  0.00  0.00    +0.155 HD
BRANCH   6  14
ATOM     10  C   UNL     1       4.676  -2.586   6.820  0.00  0.00    +0.044 C 
ATOM     11  C   UNL     1       4.197  -2.369   5.407  0.00  0.00    -0.050 A 
ATOM     12  C   UNL     1       4.812  -3.032   4.361  0.00  0.00    +0.008 A 
ATOM     13  C   UNL     1       4.375  -2.836   3.066  0.00  0.00    -0.029 A 
ATOM     14  C   UNL     1       3.318  -1.971   2.814  0.00  0.00    +0.039 A 
ATOM     15  C   UNL     1       2.707  -1.302   3.866  0.00  0.00    -0.029 A 
ATOM     16  C   UNL     1       3.145  -1.506   5.160  0.00  0.00    +0.008 A 
ATOM     17  C   UNL     1       1.564  -0.358   3.598  0.00  0.00    +0.045 C 
ATOM     18  C   UNL     1       5.045  -3.559   1.926  0.00  0.00    +0.045 C 
ENDBRANCH   6  14
ENDBRANCH   5   7
ENDBRANCH   1   5
BRANCH   3  19
ATOM     19  C   UNL     1      -2.714  -1.020  -0.025  0.00  0.00    +0.213 C 
BRANCH  19  20
ATOM     20  N   UNL     1      -3.414   0.215   0.338  0.00  0.00    -0.215 N 
ATOM     21  C   UNL     1      -3.771   1.171  -0.544  0.00  0.00    +0.247 C 
ATOM     22  O   UNL     1      -3.582   1.172  -1.742  0.00  0.00    -0.273 OA
ATOM     23  C   UNL     1      -4.458   2.239   0.275  0.00  0.00    +0.113 C 
ATOM     24  C   UNL     1      -3.700   3.558   0.171  0.00  0.00    +0.038 C 
ATOM     25  C   UNL     1      -4.394   4.619   1.029  0.00  0.00    -0.011 C 
ATOM     26  C   UNL     1      -5.835   4.800   0.546  0.00  0.00    +0.009 C 
ATOM     27  C   UNL     1      -6.589   3.476   0.679  0.00  0.00    -0.032 C 
ATOM     28  C   UNL     1      -5.904   2.410  -0.180  0.00  0.00    +0.041 C 
ATOM     29  C   UNL     1      -8.033   3.661   0.207  0.00  0.00    +0.011 C 
ATOM     30  C   UNL     1      -6.585   3.031   2.143  0.00  0.00    +0.011 C 
ATOM     31  C   UNL     1      -3.644   5.946   0.906  0.00  0.00    +0.007 C 
ATOM     32  N   UNL     1      -4.408   1.723   1.649  0.00  0.00    -0.285 N 
ATOM     33  C   UNL     1      -3.783   0.532   1.585  0.00  0.00    +0.310 C 
ATOM     34  O   UNL     1      -3.575  -0.175   2.552  0.00  0.00    -0.252 OA
ATOM     35  H   UNL     1      -4.840   2.309   2.473  0.00  0.00    +0.151 HD
ENDBRANCH  19  20
ENDBRANCH   3  19
TORSDOF 5
