REMARK  Name = ZINC63473172
REMARK  7 active torsions:
REMARK  status: ('A' for Active; 'I' for Inactive)
REMARK    1  A    between atoms: C_1  and  C_2
REMARK    2  A    between atoms: C_2  and  O_3
REMARK    3  A    between atoms: O_3  and  C_4
REMARK    4  A    between atoms: C_6  and  C_11
REMARK    5  A    between atoms: C_9  and  O_10
REMARK    6  A    between atoms: C_15  and  C_22
REMARK    7  A    between atoms: C_25  and  C_28
REMARK                            x       y       z     vdW  Elec       q    Type
REMARK                         _______ _______ _______ _____ _____    ______ ____
ROOT
ATOM      1  C   UNL     1      -0.217  -4.963  -0.535  0.00  0.00    +0.119 C 
ATOM      2  C   UNL     1      -1.538  -5.576  -0.039  0.00  0.00    +0.120 C 
ATOM      3  C   UNL     1      -2.296  -4.735   0.948  0.00  0.00    +0.082 C 
ATOM      4  N   UNL     1      -2.304  -5.449   2.055  0.00  0.00    -0.153 NA
ATOM      5  N   UNL     1      -1.605  -6.520   1.990  0.00  0.00    -0.148 NA
ATOM      6  C   UNL     1      -0.950  -6.672   0.869  0.00  0.00    +0.136 C 
ATOM      7  C   UNL     1       0.157  -7.179   0.053  0.00  0.00    +0.261 C 
ATOM      8  O   UNL     1       0.581  -8.320   0.066  0.00  0.00    -0.269 OA
ATOM      9  N   UNL     1       0.632  -6.167  -0.720  0.00  0.00    -0.302 N 
ATOM     10  H   UNL     1       1.405  -6.223  -1.302  0.00  0.00    +0.150 HD
ENDROOT
BRANCH   3  11
ATOM     11  C   UNL     1      -2.894  -3.412   0.728  0.00  0.00    -0.001 A 
ATOM     12  C   UNL     1      -2.795  -2.794  -0.525  0.00  0.00    +0.010 A 
ATOM     13  C   UNL     1      -3.359  -1.552  -0.723  0.00  0.00    +0.004 A 
ATOM     14  C   UNL     1      -4.022  -0.916   0.313  0.00  0.00    -0.050 A 
ATOM     15  C   UNL     1      -4.125  -1.520   1.555  0.00  0.00    +0.004 A 
ATOM     16  C   UNL     1      -3.572  -2.764   1.768  0.00  0.00    +0.010 A 
ATOM     17  C   UNL     1      -4.636   0.442   0.087  0.00  0.00    +0.044 C 
ENDBRANCH   3  11
BRANCH   1  20
ATOM     18  C   UNL     1       0.802  -1.825   1.306  0.00  0.00    +0.162 A 
ATOM     19  C   UNL     1       0.261  -2.673   0.353  0.00  0.00    +0.055 A 
ATOM     20  C   UNL     1       0.372  -4.043   0.502  0.00  0.00    -0.023 A 
ATOM     21  C   UNL     1       1.024  -4.570   1.602  0.00  0.00    +0.009 A 
ATOM     22  C   UNL     1       1.566  -3.730   2.557  0.00  0.00    +0.049 A 
ATOM     23  C   UNL     1       1.462  -2.356   2.410  0.00  0.00    +0.158 A 
BRANCH  23  24
ATOM     24  O   UNL     1       2.000  -1.528   3.345  0.00  0.00    -0.503 OA
ATOM     25  H   UNL     1       1.395  -1.301   4.064  0.00  0.00    +0.292 HD
ENDBRANCH  23  24
BRANCH  18  26
ATOM     26  O   UNL     1       0.693  -0.477   1.160  0.00  0.00    -0.489 OA
BRANCH  26  28
ATOM     27  C   UNL     1      -0.019   1.526   0.010  0.00  0.00    +0.048 C 
ATOM     28  C   UNL     1       0.002  -0.004   0.002  0.00  0.00    +0.226 C 
ENDBRANCH  26  28
ENDBRANCH  18  26
ENDBRANCH   1  20
TORSDOF 5
