REMARK  Name = ZINC39663788
REMARK  11 active torsions:
REMARK  status: ('A' for Active; 'I' for Inactive)
REMARK    1  A    between atoms: C_1  and  C_2
REMARK    2  A    between atoms: C_5  and  C_9
REMARK    3  A    between atoms: C_13  and  C_22
REMARK    4  A    between atoms: N_24  and  C_25
REMARK    5  A    between atoms: C_25  and  C_26
REMARK    6  A    between atoms: C_26  and  C_28
REMARK    7  A    between atoms: C_26  and  N_36
REMARK    8  A    between atoms: C_31  and  O_34
REMARK    9  A    between atoms: O_34  and  C_35
REMARK   10  A    between atoms: N_36  and  C_37
REMARK   11  A    between atoms: N_36  and  C_38
REMARK                            x       y       z     vdW  Elec       q    Type
REMARK                         _______ _______ _______ _____ _____    ______ ____
ROOT
ATOM      1  C   UNL     1       0.213  -4.448   0.107  0.00  0.00    +0.247 C 
ATOM      2  O   UNL     1       0.175  -5.136  -0.895  0.00  0.00    -0.270 OA
ATOM      3  N   UNL     1       0.325  -5.028   1.319  0.00  0.00    -0.296 N 
ATOM      4  C   UNL     1       0.260  -4.375   2.647  0.00  0.00    +0.121 C 
ATOM      5  C   UNL     1      -0.533  -5.364   3.530  0.00  0.00    +0.100 C 
ATOM      6  C   UNL     1      -0.345  -6.732   2.854  0.00  0.00    -0.004 C 
ATOM      7  C   UNL     1       0.533  -6.463   1.623  0.00  0.00    +0.115 C 
ATOM      8  C   UNL     1      -1.693  -7.297   2.419  0.00  0.00    -0.010 C 
ATOM      9  C   UNL     1      -1.486  -8.683   1.801  0.00  0.00    -0.082 C 
ATOM     10  N   UNL     1      -0.855  -9.570   2.786  0.00  0.00    +0.379 N 
ATOM     11  C   UNL     1       0.481  -9.068   3.130  0.00  0.00    -0.082 C 
ATOM     12  C   UNL     1       0.356  -7.699   3.804  0.00  0.00    -0.010 C 
ATOM     13  H   UNL     1      -1.424  -9.604   3.619  0.00  0.00    -0.086 HD
ATOM     14  H   UNL     1      -0.775 -10.498   2.398  0.00  0.00    -0.086 HD
ENDROOT
BRANCH   1  19
ATOM     15  C   UNL     1      -0.080   1.285  -0.321  0.00  0.00    +0.047 C 
ATOM     16  C   UNL     1      -0.004  -0.216  -0.210  0.00  0.00    -0.015 A 
ATOM     17  C   UNL     1       0.530  -0.796   0.927  0.00  0.00    +0.007 A 
ATOM     18  C   UNL     1       0.603  -2.170   1.036  0.00  0.00    +0.013 A 
ATOM     19  C   UNL     1       0.137  -2.976  -0.004  0.00  0.00    +0.040 A 
ATOM     20  C   UNL     1      -0.401  -2.386  -1.149  0.00  0.00    +0.051 A 
ATOM     21  C   UNL     1      -0.474  -1.010  -1.244  0.00  0.00    +0.127 A 
ATOM     22  F   UNL     1      -0.999  -0.436  -2.349  0.00  0.00    -0.205 F 
ENDBRANCH   1  19
BRANCH   5  23
ATOM     23  C   UNL     1      -1.992  -4.987   3.559  0.00  0.00    +0.218 C 
ATOM     24  O   UNL     1      -2.511  -4.494   2.580  0.00  0.00    -0.275 OA
ATOM     25  N   UNL     1      -2.721  -5.197   4.673  0.00  0.00    -0.316 N 
ATOM     26  H   UNL     1      -2.306  -5.591   5.457  0.00  0.00    +0.149 HD
BRANCH  25  27
ATOM     27  C   UNL     1      -4.139  -4.831   4.702  0.00  0.00    +0.093 C 
BRANCH  27  28
ATOM     28  C   UNL     1      -4.755  -5.280   6.028  0.00  0.00    -0.021 C 
BRANCH  28  29
ATOM     29  C   UNL     1      -4.128  -4.508   7.160  0.00  0.00    -0.059 A 
ATOM     30  C   UNL     1      -4.556  -3.224   7.441  0.00  0.00    +0.005 A 
ATOM     31  C   UNL     1      -3.982  -2.515   8.478  0.00  0.00    +0.046 A 
ATOM     32  C   UNL     1      -2.975  -3.092   9.239  0.00  0.00    +0.120 A 
ATOM     33  C   UNL     1      -2.548  -4.381   8.955  0.00  0.00    +0.046 A 
ATOM     34  C   UNL     1      -3.128  -5.088   7.920  0.00  0.00    +0.005 A 
BRANCH  32  35
ATOM     35  O   UNL     1      -2.409  -2.396  10.259  0.00  0.00    -0.495 OA
ATOM     36  C   UNL     1      -1.378  -3.053  10.999  0.00  0.00    +0.277 C 
ENDBRANCH  32  35
ENDBRANCH  28  29
BRANCH  28  37
ATOM     37  N   UNL     1      -6.202  -5.027   6.006  0.00  0.00    +0.382 N 
ATOM     38  C   UNL     1      -6.828  -5.853   4.964  0.00  0.00    -0.096 C 
ATOM     39  C   UNL     1      -6.779  -5.368   7.313  0.00  0.00    -0.096 C 
ATOM     40  H   UNL     1      -6.370  -4.052   5.808  0.00  0.00    -0.082 HD
ENDBRANCH  28  37
ENDBRANCH  27  28
ENDBRANCH  25  27
ENDBRANCH   5  23
TORSDOF 7
