REMARK  Name = ZINC57721827
REMARK  3 active torsions:
REMARK  status: ('A' for Active; 'I' for Inactive)
REMARK    1  A    between atoms: C_1  and  C_2
REMARK    2  A    between atoms: N_7  and  S_8
REMARK    3  A    between atoms: S_8  and  C_11
REMARK                            x       y       z     vdW  Elec       q    Type
REMARK                         _______ _______ _______ _____ _____    ______ ____
ROOT
ATOM      1  S   UNL     1      -0.096  -5.153  -0.024  0.00  0.00    +0.102 S 
ATOM      2  O   UNL     1      -0.774  -5.121   1.224  0.00  0.00    -0.146 OA
ATOM      3  O   UNL     1      -0.785  -5.108  -1.266  0.00  0.00    -0.146 OA
ENDROOT
BRANCH   1  10
ATOM      4  C   UNL     1      -0.018   1.503   0.010  0.00  0.00    +0.053 C 
ATOM      5  C   UNL     1       0.002  -0.004   0.002  0.00  0.00    +0.006 A 
ATOM      6  C   UNL     1      -1.023  -0.856   0.002  0.00  0.00    +0.095 A 
ATOM      7  N   UNL     1      -0.798  -2.201  -0.006  0.00  0.00    -0.339 N 
ATOM      8  C   UNL     1       0.505  -2.649  -0.014  0.00  0.00    +0.192 A 
ATOM      9  S   UNL     1       1.406  -1.107  -0.018  0.00  0.00    -0.054 S 
ATOM     10  N   UNL     1       0.961  -3.878  -0.022  0.00  0.00    -0.103 NA
ATOM     11  H   UNL     1      -1.538  -2.828  -0.006  0.00  0.00    +0.167 HD
ENDBRANCH   1  10
BRANCH   1  12
ATOM     12  C   UNL     1       0.868  -6.628  -0.036  0.00  0.00    +0.132 A 
ATOM     13  C   UNL     1       0.823  -7.492   1.043  0.00  0.00    +0.030 A 
ATOM     14  C   UNL     1       1.578  -8.649   1.034  0.00  0.00    +0.003 A 
ATOM     15  C   UNL     1       2.381  -8.944  -0.052  0.00  0.00    +0.021 A 
ATOM     16  C   UNL     1       2.427  -8.081  -1.132  0.00  0.00    +0.061 A 
ATOM     17  C   UNL     1       1.665  -6.925  -1.127  0.00  0.00    +0.086 A 
ATOM     18 CL   UNL     1       1.716  -5.844  -2.484  0.00  0.00    -0.080 Cl
ATOM     19 CL   UNL     1       3.434  -8.451  -2.497  0.00  0.00    -0.082 Cl
ENDBRANCH   1  12
TORSDOF 2
