REMARK  Name = ZINC40581702
REMARK  6 active torsions:
REMARK  status: ('A' for Active; 'I' for Inactive)
REMARK    1  A    between atoms: C_1  and  C_2
REMARK    2  A    between atoms: C_2  and  C_3
REMARK    3  A    between atoms: C_2  and  C_4
REMARK    4  A    between atoms: C_2  and  N_5
REMARK    5  A    between atoms: C_7  and  N_22
REMARK    6  A    between atoms: C_8  and  N_12
REMARK                            x       y       z     vdW  Elec       q    Type
REMARK                         _______ _______ _______ _____ _____    ______ ____
ROOT
ATOM      1  N   UNL     1       0.684  -0.450  -1.185  0.00  0.00    -0.322 N 
ATOM      2  C   UNL     1       2.006  -0.109  -1.424  0.00  0.00    +0.155 A 
ATOM      3  C   UNL     1       2.620  -0.462  -2.622  0.00  0.00    +0.205 A 
ATOM      4  C   UNL     1       3.949  -0.096  -2.814  0.00  0.00    +0.157 A 
ATOM      5  N   UNL     1       4.581   0.573  -1.852  0.00  0.00    -0.218 NA
ATOM      6  C   UNL     1       3.964   0.889  -0.731  0.00  0.00    +0.225 A 
ATOM      7  N   UNL     1       2.706   0.565  -0.513  0.00  0.00    -0.218 NA
ATOM      8  H   UNL     1       0.181  -0.941  -1.853  0.00  0.00    +0.148 HD
ENDROOT
BRANCH   4   9
ATOM      9  N   UNL     1       4.606  -0.424  -3.990  0.00  0.00    -0.309 N 
ATOM     10  C   UNL     1       4.589   0.478  -5.154  0.00  0.00    +0.111 C 
ATOM     11  C   UNL     1       6.022   0.943  -5.408  0.00  0.00    +0.054 C 
ATOM     12  C   UNL     1       6.975  -0.223  -5.389  0.00  0.00    -0.041 A 
ATOM     13  C   UNL     1       8.209  -0.057  -6.008  0.00  0.00    +0.004 A 
ATOM     14  C   UNL     1       9.132  -1.081  -6.019  0.00  0.00    +0.000 A 
ATOM     15  C   UNL     1       8.831  -2.284  -5.408  0.00  0.00    +0.000 A 
ATOM     16  C   UNL     1       7.606  -2.453  -4.795  0.00  0.00    +0.005 A 
ATOM     17  C   UNL     1       6.674  -1.425  -4.789  0.00  0.00    -0.027 A 
ATOM     18  C   UNL     1       5.350  -1.681  -4.123  0.00  0.00    +0.142 C 
ENDBRANCH   4   9
BRANCH   1  20
ATOM     19  C   UNL     1       0.067   1.455   0.219  0.00  0.00    +0.031 C 
ATOM     20  C   UNL     1       0.046  -0.068   0.078  0.00  0.00    +0.025 C 
ATOM     21  C   UNL     1       0.808  -0.699   1.245  0.00  0.00    +0.031 C 
ATOM     22  C   UNL     1      -1.402  -0.562   0.088  0.00  0.00    +0.031 C 
ENDBRANCH   1  20
BRANCH   3  23
ATOM     23  N   UNL     1       1.879  -1.207  -3.665  0.00  0.00    +0.063 N 
ATOM     24  O   UNL     1       1.266  -0.607  -4.516  0.00  0.00    -0.126 OA
ATOM     25  O   UNL     1       1.888  -2.416  -3.665  0.00  0.00    -0.126 OA
ENDBRANCH   3  23
TORSDOF 3
