REMARK  Name = ZINC48750861
REMARK  3 active torsions:
REMARK  status: ('A' for Active; 'I' for Inactive)
REMARK    1  A    between atoms: C_5  and  C_6
REMARK    2  A    between atoms: C_8  and  N_12
REMARK    3  A    between atoms: C_13  and  C_15
REMARK                            x       y       z     vdW  Elec       q    Type
REMARK                         _______ _______ _______ _____ _____    ______ ____
ROOT
ATOM      1  C   UNL     1      -1.134  -0.951   0.008  0.00  0.00    +0.101 A 
ATOM      2  C   UNL     1      -1.038  -2.357   0.005  0.00  0.00    +0.074 A 
ATOM      3  C   UNL     1      -2.301  -2.859   0.013  0.00  0.00    +0.121 A 
ATOM      4  N   UNL     1      -3.164  -1.809   0.020  0.00  0.00    -0.263 N 
ATOM      5  H   UNL     1      -4.132  -1.867   0.027  0.00  0.00    +0.190 HD
ATOM      6  N   UNL     1      -2.411  -0.628   0.022  0.00  0.00    -0.172 NA
ENDROOT
BRANCH   1  11
ATOM      7  C   UNL     1      -0.017   1.364   0.009  0.00  0.00    +0.019 A 
ATOM      8  C   UNL     1       1.183   2.043   0.002  0.00  0.00    +0.023 A 
ATOM      9  C   UNL     1       2.343   1.337  -0.013  0.00  0.00    +0.056 A 
ATOM     10  S   UNL     1       1.754  -0.348  -0.017  0.00  0.00    -0.080 S 
ATOM     11  C   UNL     1       0.002  -0.004   0.002  0.00  0.00    +0.040 A 
ATOM     12 BR   UNL     1       4.123   1.974  -0.028  0.00  0.00    -0.043 Br
ENDBRANCH   1  11
BRANCH   3  13
ATOM     13  N   UNL     1      -2.649  -4.209   0.013  0.00  0.00    -0.271 N 
ATOM     14  C   UNL     1      -1.687  -5.153   0.004  0.00  0.00    +0.222 C 
ATOM     15  O   UNL     1      -0.519  -4.828  -0.003  0.00  0.00    -0.275 OA
ATOM     16  H   UNL     1      -3.584  -4.469   0.019  0.00  0.00    +0.156 HD
BRANCH  14  17
ATOM     17  C   UNL     1      -2.064  -6.612   0.004  0.00  0.00    +0.079 C 
ATOM     18  C   UNL     1      -0.794  -7.473   0.004  0.00  0.00    +0.017 C 
ATOM     19  C   UNL     1      -1.200  -8.937  -0.176  0.00  0.00    +0.027 C 
ATOM     20  C   UNL     1      -2.293  -9.292   0.789  0.00  0.00    -0.031 C 
ATOM     21  C   UNL     1      -3.022  -8.422   1.413  0.00  0.00    -0.030 C 
ATOM     22  C   UNL     1      -2.872  -6.935   1.262  0.00  0.00    +0.039 C 
ENDBRANCH  14  17
ENDBRANCH   3  13
TORSDOF 3
