REMARK  Name = ZINC46702752
REMARK  2 active torsions:
REMARK  status: ('A' for Active; 'I' for Inactive)
REMARK    1  A    between atoms: C_8  and  C_10
REMARK    2  A    between atoms: C_10  and  C_11
REMARK                            x       y       z     vdW  Elec       q    Type
REMARK                         _______ _______ _______ _____ _____    ______ ____
ROOT
ATOM      1  C   UNL     1       3.200  -4.448  -1.474  0.00  0.00    +0.117 A 
ATOM      2  N   UNL     1       3.555  -5.735  -1.719  0.00  0.00    -0.310 N 
ATOM      3  H   UNL     1       3.726  -6.331  -0.973  0.00  0.00    +0.170 HD
ATOM      4  C   UNL     1       3.676  -6.202  -2.976  0.00  0.00    +0.260 A 
ATOM      5  O   UNL     1       3.995  -7.360  -3.179  0.00  0.00    -0.267 OA
ATOM      6  C   UNL     1       3.422  -5.313  -4.072  0.00  0.00    +0.075 A 
ATOM      7  C   UNL     1       3.492  -5.595  -5.505  0.00  0.00    -0.023 A 
ATOM      8  C   UNL     1       3.204  -4.577  -6.344  0.00  0.00    -0.004 A 
ATOM      9  S   UNL     1       2.828  -3.204  -5.288  0.00  0.00    -0.073 S 
ATOM     10  C   UNL     1       3.062  -4.003  -3.720  0.00  0.00    +0.116 A 
ATOM     11  N   UNL     1       2.958  -3.616  -2.452  0.00  0.00    -0.226 NA
ATOM     12  C   UNL     1       3.204  -4.608  -7.842  0.00  0.00    +0.043 C 
ATOM     13  C   UNL     1       3.944  -5.873  -8.300  0.00  0.00    +0.005 C 
ATOM     14  C   UNL     1       3.412  -7.068  -7.504  0.00  0.00    +0.005 C 
ATOM     15  C   UNL     1       3.871  -6.970  -6.049  0.00  0.00    +0.037 C 
ENDROOT
BRANCH   1  16
ATOM     16  C   UNL     1       3.078  -3.972  -0.050  0.00  0.00    +0.137 C 
BRANCH  16  24
ATOM     17  C   UNL     1      -0.016   1.357   0.009  0.00  0.00    +0.002 A 
ATOM     18  C   UNL     1       1.156   2.100   0.002  0.00  0.00    +0.001 A 
ATOM     19  C   UNL     1       2.375   1.449  -0.013  0.00  0.00    +0.017 A 
ATOM     20  C   UNL     1       2.404   0.076  -0.021  0.00  0.00    +0.039 A 
ATOM     21  C   UNL     1       1.226  -0.705  -0.013  0.00  0.00    +0.078 A 
ATOM     22  C   UNL     1       0.002  -0.004   0.002  0.00  0.00    +0.029 A 
ATOM     23  N   UNL     1       1.464  -2.033  -0.023  0.00  0.00    -0.244 NA
ATOM     24  C   UNL     1       2.669  -2.521  -0.038  0.00  0.00    +0.087 A 
ATOM     25  S   UNL     1       3.669  -1.167  -0.040  0.00  0.00    -0.072 S 
ENDBRANCH  16  24
ENDBRANCH   1  16
TORSDOF 2
