REMARK  Name = ZINC35697590
REMARK  10 active torsions:
REMARK  status: ('A' for Active; 'I' for Inactive)
REMARK    1  A    between atoms: C_1  and  C_2
REMARK    2  A    between atoms: C_5  and  C_8
REMARK    3  A    between atoms: C_10  and  C_30
REMARK    4  A    between atoms: C_11  and  C_29
REMARK    5  A    between atoms: C_15  and  C_18
REMARK    6  A    between atoms: C_19  and  N_21
REMARK    7  A    between atoms: N_21  and  C_22
REMARK    8  A    between atoms: C_22  and  C_23
REMARK    9  A    between atoms: C_30  and  O_32
REMARK   10  A    between atoms: O_32  and  C_33
REMARK                            x       y       z     vdW  Elec       q    Type
REMARK                         _______ _______ _______ _____ _____    ______ ____
ROOT
ATOM      1  C   UNL     1       0.315  -4.344  -0.221  0.00  0.00    +0.150 C 
ATOM      2  C   UNL     1      -1.141  -4.668   0.030  0.00  0.00    +0.082 C 
ATOM      3  C   UNL     1      -1.474  -5.232   1.247  0.00  0.00    +0.053 C 
ATOM      4  N   UNL     1      -0.541  -5.476   2.152  0.00  0.00    -0.230 NA
ATOM      5  C   UNL     1       0.742  -5.218   1.996  0.00  0.00    +0.166 C 
ATOM      6  N   UNL     1       1.276  -4.662   0.869  0.00  0.00    -0.267 N 
ATOM      7  C   UNL     1       2.641  -4.453   0.861  0.00  0.00    +0.048 C 
ATOM      8  C   UNL     1       3.337  -4.814   1.961  0.00  0.00    +0.072 C 
ATOM      9  S   UNL     1       2.054  -5.453   3.016  0.00  0.00    -0.060 S 
ATOM     10  C   UNL     1      -2.912  -5.573   1.544  0.00  0.00    +0.066 C 
ENDROOT
BRANCH   1  15
ATOM     11  C   UNL     1       0.708   1.309  -1.352  0.00  0.00    +0.044 C 
ATOM     12  C   UNL     1       0.606  -0.165  -1.057  0.00  0.00    -0.050 A 
ATOM     13  C   UNL     1       0.620  -1.080  -2.093  0.00  0.00    +0.004 A 
ATOM     14  C   UNL     1       0.526  -2.433  -1.823  0.00  0.00    +0.006 A 
ATOM     15  C   UNL     1       0.419  -2.870  -0.516  0.00  0.00    -0.022 A 
ATOM     16  C   UNL     1       0.405  -1.955   0.520  0.00  0.00    +0.006 A 
ATOM     17  C   UNL     1       0.503  -0.603   0.250  0.00  0.00    +0.004 A 
ENDBRANCH   1  15
BRANCH   7  18
ATOM     18  C   UNL     1       3.313  -3.860  -0.304  0.00  0.00    +0.091 C 
ATOM     19  C   UNL     1       4.616  -3.527  -0.233  0.00  0.00    +0.239 C 
ATOM     20  O   UNL     1       5.337  -3.843   0.870  0.00  0.00    -0.271 OA
BRANCH  19  21
ATOM     21  N   UNL     1       5.220  -2.862  -1.287  0.00  0.00    -0.309 N 
ATOM     22  H   UNL     1       4.688  -2.570  -2.044  0.00  0.00    +0.149 HD
BRANCH  21  23
ATOM     23  C   UNL     1       6.661  -2.599  -1.259  0.00  0.00    +0.136 C 
BRANCH  23  24
ATOM     24  C   UNL     1       7.048  -1.750  -2.471  0.00  0.00    +0.135 C 
ATOM     25  C   UNL     1       8.581  -1.570  -2.516  0.00  0.00    +0.035 C 
ATOM     26  C   UNL     1       8.726  -0.093  -2.974  0.00  0.00    +0.031 C 
ATOM     27  C   UNL     1       7.493   0.549  -2.289  0.00  0.00    +0.160 C 
ATOM     28  O   UNL     1       6.460  -0.449  -2.361  0.00  0.00    -0.375 OA
ENDBRANCH  23  24
ENDBRANCH  21  23
ENDBRANCH  19  21
ENDBRANCH   7  18
BRANCH   2  29
ATOM     29  C   UNL     1      -2.118  -4.404  -0.937  0.00  0.00    +0.339 C 
ATOM     30  O   UNL     1      -3.287  -4.661  -0.708  0.00  0.00    -0.245 OA
BRANCH  29  31
ATOM     31  O   UNL     1      -1.764  -3.864  -2.124  0.00  0.00    -0.465 OA
ATOM     32  C   UNL     1      -2.813  -3.621  -3.064  0.00  0.00    +0.280 C 
ENDBRANCH  29  31
ENDBRANCH   2  29
TORSDOF 7
