REMARK  Name = ZINC63985650
REMARK  9 active torsions:
REMARK  status: ('A' for Active; 'I' for Inactive)
REMARK    1  A    between atoms: C_1  and  C_2
REMARK    2  A    between atoms: C_7  and  C_12
REMARK    3  A    between atoms: C_19  and  C_32
REMARK    4  A    between atoms: N_21  and  C_22
REMARK    5  A    between atoms: C_22  and  C_23
REMARK    6  A    between atoms: C_23  and  C_24
REMARK    7  A    between atoms: C_27  and  O_30
REMARK    8  A    between atoms: O_30  and  C_31
REMARK    9  A    between atoms: N_34  and  C_35
REMARK                            x       y       z     vdW  Elec       q    Type
REMARK                         _______ _______ _______ _____ _____    ______ ____
ROOT
ATOM      1  C   UNL     1      -1.156  -5.200   1.853  0.00  0.00    +0.242 C 
ATOM      2  O   UNL     1      -2.119  -5.224   1.115  0.00  0.00    -0.273 OA
ATOM      3  N   UNL     1      -1.181  -5.883   3.014  0.00  0.00    -0.295 N 
ATOM      4  C   UNL     1      -0.026  -5.863   3.925  0.00  0.00    +0.114 C 
ATOM      5  C   UNL     1      -0.430  -5.187   5.241  0.00  0.00    +0.074 C 
ATOM      6  C   UNL     1      -1.764  -5.734   5.678  0.00  0.00    +0.046 A 
ATOM      7  C   UNL     1      -2.626  -6.388   4.860  0.00  0.00    +0.023 A 
ATOM      8  C   UNL     1      -3.737  -6.720   5.651  0.00  0.00    +0.152 A 
ATOM      9  N   UNL     1      -3.487  -6.262   6.866  0.00  0.00    -0.166 NA
ATOM     10  N   UNL     1      -2.335  -5.685   6.894  0.00  0.00    -0.267 N 
ATOM     11  C   UNL     1      -2.368  -6.665   3.407  0.00  0.00    +0.147 C 
ENDROOT
BRANCH   1  18
ATOM     12  C   UNL     1      -0.018   1.503   0.010  0.00  0.00    +0.044 C 
ATOM     13  C   UNL     1       0.002  -0.004   0.002  0.00  0.00    -0.050 A 
ATOM     14  C   UNL     1       0.005  -0.680  -1.226  0.00  0.00    +0.005 A 
ATOM     15  C   UNL     1       0.023  -2.026  -1.317  0.00  0.00    +0.026 A 
ATOM     16  C   UNL     1       0.039  -2.826  -0.141  0.00  0.00    +0.043 A 
ATOM     17  N   UNL     1       0.057  -4.126   0.030  0.00  0.00    -0.370 N 
ATOM     18  C   UNL     1       0.067  -4.408   1.470  0.00  0.00    +0.190 C 
ATOM     19  C   UNL     1       0.052  -3.060   2.156  0.00  0.00    +0.016 C 
ATOM     20  C   UNL     1       0.036  -2.137   1.168  0.00  0.00    -0.003 A 
ATOM     21  C   UNL     1       0.022  -0.669   1.180  0.00  0.00    +0.013 A 
ATOM     22  H   UNL     1       0.062  -4.790  -0.677  0.00  0.00    +0.161 HD
ENDBRANCH   1  18
BRANCH   8  23
ATOM     23  C   UNL     1      -4.950  -7.440   5.211  0.00  0.00    +0.265 C 
ATOM     24  O   UNL     1      -5.054  -7.808   4.058  0.00  0.00    -0.268 OA
ATOM     25  N   UNL     1      -5.942  -7.688   6.090  0.00  0.00    -0.307 N 
ATOM     26  H   UNL     1      -5.859  -7.394   7.011  0.00  0.00    +0.149 HD
BRANCH  25  27
ATOM     27  C   UNL     1      -7.144  -8.402   5.654  0.00  0.00    +0.073 C 
ATOM     28  C   UNL     1      -8.496  -7.863   6.128  0.00  0.00    +0.024 C 
ATOM     29  C   UNL     1      -7.940  -9.161   6.718  0.00  0.00    +0.024 C 
ENDBRANCH  25  27
ENDBRANCH   8  23
BRANCH  10  30
ATOM     30  C   UNL     1      -1.735  -5.065   8.078  0.00  0.00    +0.148 C 
BRANCH  30  31
ATOM     31  C   UNL     1      -2.148  -3.594   8.148  0.00  0.00    +0.058 C 
BRANCH  31  32
ATOM     32  C   UNL     1      -1.530  -2.957   9.366  0.00  0.00    -0.045 A 
ATOM     33  C   UNL     1      -2.209  -2.970  10.571  0.00  0.00    +0.007 A 
ATOM     34  C   UNL     1      -1.646  -2.387  11.689  0.00  0.00    +0.046 A 
ATOM     35  C   UNL     1      -0.398  -1.787  11.603  0.00  0.00    +0.120 A 
ATOM     36  C   UNL     1       0.281  -1.775  10.393  0.00  0.00    +0.046 A 
ATOM     37  C   UNL     1      -0.284  -2.364   9.279  0.00  0.00    +0.007 A 
BRANCH  35  38
ATOM     38  O   UNL     1       0.158  -1.212  12.701  0.00  0.00    -0.495 OA
ATOM     39  C   UNL     1       1.445  -0.613  12.539  0.00  0.00    +0.277 C 
ENDBRANCH  35  38
ENDBRANCH  31  32
ENDBRANCH  30  31
ENDBRANCH  10  30
TORSDOF 7
