REMARK  Name = ZINC06754891
REMARK  6 active torsions:
REMARK  status: ('A' for Active; 'I' for Inactive)
REMARK    1  A    between atoms: C_1  and  C_2
REMARK    2  A    between atoms: C_7  and  C_9
REMARK    3  A    between atoms: C_7  and  C_10
REMARK    4  A    between atoms: C_13  and  C_15
REMARK    5  A    between atoms: C_15  and  S_16
REMARK    6  A    between atoms: S_16  and  C_17
REMARK                            x       y       z     vdW  Elec       q    Type
REMARK                         _______ _______ _______ _____ _____    ______ ____
ROOT
ATOM      1  S   UNL     1      -4.786  -3.795  -1.127  0.00  0.00    -0.075 S 
ENDROOT
BRANCH   1   2
ATOM      2  C   UNL     1      -6.359  -3.316  -0.496  0.00  0.00    +0.212 A 
ATOM      3  N   UNL     1      -7.409  -4.102  -0.700  0.00  0.00    -0.201 NA
ATOM      4  C   UNL     1      -8.595  -3.739  -0.223  0.00  0.00    +0.162 A 
ATOM      5  C   UNL     1      -8.688  -2.524   0.487  0.00  0.00    +0.137 A 
ATOM      6  C   UNL     1     -10.099  -2.387   0.888  0.00  0.00    +0.029 A 
ATOM      7  C   UNL     1     -10.806  -1.419   1.599  0.00  0.00    +0.012 A 
ATOM      8  C   UNL     1     -12.158  -1.580   1.816  0.00  0.00    +0.001 A 
ATOM      9  C   UNL     1     -12.814  -2.700   1.331  0.00  0.00    +0.002 A 
ATOM     10  C   UNL     1     -12.127  -3.665   0.627  0.00  0.00    +0.026 A 
ATOM     11  C   UNL     1     -10.763  -3.521   0.397  0.00  0.00    +0.050 A 
ATOM     12  N   UNL     1      -9.840  -4.316  -0.264  0.00  0.00    -0.338 N 
ATOM     13  H   UNL     1     -10.046  -5.160  -0.696  0.00  0.00    +0.167 HD
ATOM     14  N   UNL     1      -7.603  -1.785   0.658  0.00  0.00    -0.143 NA
ATOM     15  N   UNL     1      -6.471  -2.178   0.181  0.00  0.00    -0.122 NA
ENDBRANCH   1   2
BRANCH   1  16
ATOM     16  C   UNL     1      -3.679  -2.453  -0.611  0.00  0.00    +0.173 C 
BRANCH  16  28
ATOM     17  C   UNL     1      -0.019   1.532   0.011  0.00  0.00    +0.013 C 
ATOM     18  C   UNL     1       0.002  -0.004   0.002  0.00  0.00    -0.014 C 
ATOM     19  C   UNL     1       0.685  -0.578  -1.269  0.00  0.00    +0.030 C 
ATOM     20  C   UNL     1       0.129  -2.024  -1.231  0.00  0.00    +0.077 C 
ATOM     21  C   UNL     1       0.888  -2.772  -0.139  0.00  0.00    +0.029 C 
ATOM     22  C   UNL     1       0.823  -2.105   1.223  0.00  0.00    -0.033 C 
ATOM     23  C   UNL     1       0.726  -0.591   1.212  0.00  0.00    +0.014 C 
ATOM     24  C   UNL     1       2.126  -2.474   1.975  0.00  0.00    +0.011 C 
ATOM     25  C   UNL     1      -0.332  -2.701   2.040  0.00  0.00    +0.011 C 
ATOM     26  N   UNL     1      -1.283  -1.875  -0.825  0.00  0.00    -0.297 N 
ATOM     27  C   UNL     1      -1.417  -0.610  -0.086  0.00  0.00    +0.114 C 
ATOM     28  C   UNL     1      -2.281  -2.741  -1.094  0.00  0.00    +0.226 C 
ATOM     29  O   UNL     1      -2.053  -3.752  -1.724  0.00  0.00    -0.275 OA
ENDBRANCH  16  28
ENDBRANCH   1  16
TORSDOF 3
