REMARK  Name = ZINC39711237
REMARK  10 active torsions:
REMARK  status: ('A' for Active; 'I' for Inactive)
REMARK    1  A    between atoms: C_1  and  C_2
REMARK    2  A    between atoms: C_6  and  C_15
REMARK    3  A    between atoms: C_13  and  C_14
REMARK    4  A    between atoms: C_15  and  C_17
REMARK    5  A    between atoms: C_15  and  N_28
REMARK    6  A    between atoms: N_22  and  C_23
REMARK    7  A    between atoms: N_28  and  C_29
REMARK    8  A    between atoms: N_28  and  C_36
REMARK    9  A    between atoms: C_29  and  C_30
REMARK   10  A    between atoms: C_36  and  C_37
REMARK                            x       y       z     vdW  Elec       q    Type
REMARK                         _______ _______ _______ _____ _____    ______ ____
ROOT
ATOM      1  C   UNL     1      -1.127  -4.816  -3.198  0.00  0.00    -0.009 C 
ENDROOT
BRANCH   1   7
ATOM      2  C   UNL     1      -0.792   2.038  -1.216  0.00  0.00    +0.044 C 
ATOM      3  C   UNL     1      -0.706   0.555  -0.957  0.00  0.00    -0.047 A 
ATOM      4  C   UNL     1      -0.463  -0.288  -1.993  0.00  0.00    +0.013 A 
ATOM      5  C   UNL     1      -0.382  -1.725  -1.729  0.00  0.00    -0.007 A 
ATOM      6  C   UNL     1      -0.139  -2.608  -2.738  0.00  0.00    -0.006 C 
ATOM      7  C   UNL     1      -0.070  -4.079  -2.373  0.00  0.00    +0.088 C 
ATOM      8  C   UNL     1      -0.277  -4.445  -0.921  0.00  0.00    +0.223 C 
ATOM      9  O   UNL     1      -0.233  -5.609  -0.573  0.00  0.00    -0.275 OA
ATOM     10  N   UNL     1      -0.506  -3.494  -0.031  0.00  0.00    -0.285 N 
ATOM     11  C   UNL     1      -0.567  -2.200  -0.347  0.00  0.00    +0.041 A 
ATOM     12  C   UNL     1      -0.815  -1.243   0.653  0.00  0.00    +0.027 A 
ATOM     13  C   UNL     1      -0.873   0.079   0.344  0.00  0.00    -0.046 A 
ATOM     14  C   UNL     1      -1.134   1.070   1.449  0.00  0.00    +0.044 C 
ATOM     15  H   UNL     1      -0.637  -3.749   0.896  0.00  0.00    +0.155 HD
ENDBRANCH   1   7
BRANCH   1  16
ATOM     16  C   UNL     1      -2.522  -4.358  -2.767  0.00  0.00    +0.205 C 
ATOM     17  N   UNL     1      -2.653  -2.902  -2.920  0.00  0.00    -0.152 NA
ATOM     18  N   UNL     1      -2.877  -2.404  -1.815  0.00  0.00    -0.070 NA
ATOM     19  N   UNL     1      -2.935  -3.352  -0.794  0.00  0.00    -0.179 N 
ATOM     20  N   UNL     1      -2.721  -4.601  -1.323  0.00  0.00    -0.185 NA
ATOM     21  H   UNL     1      -3.100  -3.159   0.143  0.00  0.00    +0.191 HD
BRANCH  20  22
ATOM     22  C   UNL     1      -3.877  -5.477  -1.091  0.00  0.00    +0.080 C 
ATOM     23  C   UNL     1      -5.180  -4.748  -1.478  0.00  0.00    +0.021 C 
ATOM     24  C   UNL     1      -6.207  -5.217  -0.418  0.00  0.00    +0.002 C 
ATOM     25  C   UNL     1      -5.359  -5.279   0.876  0.00  0.00    +0.002 C 
ATOM     26  C   UNL     1      -3.991  -5.815   0.406  0.00  0.00    +0.021 C 
ENDBRANCH  20  22
ENDBRANCH   1  16
BRANCH   1  27
ATOM     27  N   UNL     1      -0.998  -6.263  -2.978  0.00  0.00    +0.392 N 
ATOM     28  H   UNL     1      -1.164  -6.471  -2.005  0.00  0.00    -0.080 HD
BRANCH  27  29
ATOM     29  C   UNL     1       0.357  -6.695  -3.347  0.00  0.00    -0.042 C 
BRANCH  29  30
ATOM     30  C   UNL     1       0.632  -6.316  -4.779  0.00  0.00    -0.064 A 
ATOM     31  C   UNL     1       0.232  -7.153  -5.804  0.00  0.00    +0.002 A 
ATOM     32  C   UNL     1       0.485  -6.806  -7.118  0.00  0.00    +0.000 A 
ATOM     33  C   UNL     1       1.137  -5.622  -7.407  0.00  0.00    +0.000 A 
ATOM     34  C   UNL     1       1.537  -4.785  -6.382  0.00  0.00    +0.000 A 
ATOM     35  C   UNL     1       1.280  -5.130  -5.068  0.00  0.00    +0.002 A 
ENDBRANCH  29  30
ENDBRANCH  27  29
BRANCH  27  36
ATOM     36  C   UNL     1      -1.981  -6.974  -3.806  0.00  0.00    -0.002 C 
BRANCH  36  37
ATOM     37  C   UNL     1      -1.951  -8.443  -3.472  0.00  0.00    +0.089 A 
ATOM     38  C   UNL     1      -2.761  -9.068  -2.599  0.00  0.00    +0.042 A 
ATOM     39  C   UNL     1      -2.386 -10.431  -2.596  0.00  0.00    +0.041 A 
ATOM     40  C   UNL     1      -1.370 -10.558  -3.468  0.00  0.00    +0.195 A 
ATOM     41  O   UNL     1      -1.114  -9.351  -3.999  0.00  0.00    -0.470 OA
ENDBRANCH  36  37
ENDBRANCH  27  36
ENDBRANCH   1  27
TORSDOF 8
