REMARK  Name = ZINC13019680
REMARK  7 active torsions:
REMARK  status: ('A' for Active; 'I' for Inactive)
REMARK    1  A    between atoms: C_1  and  C_2
REMARK    2  A    between atoms: C_2  and  C_4
REMARK    3  A    between atoms: C_2  and  S_17
REMARK    4  A    between atoms: S_17  and  C_18
REMARK    5  A    between atoms: C_21  and  C_26
REMARK    6  A    between atoms: N_22  and  C_23
REMARK    7  A    between atoms: C_23  and  C_24
REMARK                            x       y       z     vdW  Elec       q    Type
REMARK                         _______ _______ _______ _____ _____    ______ ____
ROOT
ATOM      1  C   UNL     1       0.793   4.491   4.166  0.00  0.00    +0.029 C 
ATOM      2  C   UNL     1       0.433   5.133   2.824  0.00  0.00    +0.137 C 
ENDROOT
BRANCH   2   3
ATOM      3  C   UNL     1       1.284   6.358   2.608  0.00  0.00    +0.233 C 
ATOM      4  O   UNL     1       2.260   6.299   1.891  0.00  0.00    -0.274 OA
ATOM      5  N   UNL     1       0.959   7.518   3.212  0.00  0.00    -0.260 N 
ATOM      6  C   UNL     1      -0.220   7.615   4.086  0.00  0.00    +0.209 C 
ATOM      7  C   UNL     1      -0.935   8.911   3.804  0.00  0.00    +0.235 C 
ATOM      8  O   UNL     1      -2.134   8.983   3.975  0.00  0.00    -0.274 OA
ATOM      9  N   UNL     1      -0.261   9.990   3.364  0.00  0.00    -0.283 N 
ATOM     10  C   UNL     1       1.113   9.920   3.110  0.00  0.00    +0.055 A 
ATOM     11  C   UNL     1       1.739   8.671   3.032  0.00  0.00    +0.058 A 
ATOM     12  C   UNL     1       3.092   8.588   2.770  0.00  0.00    +0.025 A 
ATOM     13  C   UNL     1       3.832   9.745   2.598  0.00  0.00    +0.002 A 
ATOM     14  C   UNL     1       3.218  10.981   2.682  0.00  0.00    +0.002 A 
ATOM     15  C   UNL     1       1.862  11.073   2.938  0.00  0.00    +0.025 A 
ATOM     16  H   UNL     1      -0.733  10.826   3.221  0.00  0.00    +0.155 HD
ENDBRANCH   2   3
BRANCH   2  17
ATOM     17  S   UNL     1       0.732   3.948   1.489  0.00  0.00    -0.073 S 
BRANCH  17  18
ATOM     18  C   UNL     1      -0.465   2.720   1.896  0.00  0.00    +0.193 A 
ATOM     19  N   UNL     1      -1.300   2.752   2.909  0.00  0.00    -0.122 NA
ATOM     20  N   UNL     1      -2.030   1.694   2.914  0.00  0.00    -0.128 NA
ATOM     21  C   UNL     1      -1.709   0.922   1.899  0.00  0.00    +0.172 A 
ATOM     22  N   UNL     1      -0.698   1.558   1.213  0.00  0.00    -0.291 N 
BRANCH  21  23
ATOM     23  C   UNL     1      -2.316  -0.375   1.561  0.00  0.00    +0.056 A 
ATOM     24  C   UNL     1      -3.106  -1.188   2.333  0.00  0.00    +0.019 A 
ATOM     25  C   UNL     1      -3.567  -2.368   1.794  0.00  0.00    +0.008 A 
ATOM     26  C   UNL     1      -3.217  -2.696   0.523  0.00  0.00    +0.046 A 
ATOM     27  S   UNL     1      -2.208  -1.305   0.040  0.00  0.00    -0.094 S 
ENDBRANCH  21  23
BRANCH  22  28
ATOM     28  C   UNL     1      -0.013   1.086   0.008  0.00  0.00    +0.250 C 
BRANCH  28  29
ATOM     29  C   UNL     1      -0.742   1.585  -1.213  0.00  0.00    +0.375 C 
ATOM     30  O   UNL     1      -1.732   2.266  -1.089  0.00  0.00    -0.244 OA
ATOM     31  O   UNL     1      -0.290   1.274  -2.438  0.00  0.00    -0.244 OA
ENDBRANCH  28  29
ENDBRANCH  22  28
ENDBRANCH  17  18
ENDBRANCH   2  17
TORSDOF 6
