REMARK  Name = ZINC14476220
REMARK  8 active torsions:
REMARK  status: ('A' for Active; 'I' for Inactive)
REMARK    1  A    between atoms: C_1  and  C_2
REMARK    2  A    between atoms: C_2  and  C_3
REMARK    3  A    between atoms: C_2  and  C_4
REMARK    4  A    between atoms: C_2  and  N_5
REMARK    5  A    between atoms: C_6  and  C_8
REMARK    6  A    between atoms: C_21  and  C_24
REMARK    7  A    between atoms: C_26  and  N_31
REMARK    8  A    between atoms: C_29  and  O_30
REMARK                            x       y       z     vdW  Elec       q    Type
REMARK                         _______ _______ _______ _____ _____    ______ ____
ROOT
ATOM      1  C   UNL     1       2.662  -0.608  -2.641  0.00  0.00    +0.037 A 
ATOM      2  C   UNL     1       1.986  -1.411  -3.564  0.00  0.00    +0.015 A 
ATOM      3  C   UNL     1       2.631  -1.847  -4.697  0.00  0.00    +0.024 A 
ATOM      4  C   UNL     1       3.958  -1.498  -4.936  0.00  0.00    +0.031 A 
ATOM      5  C   UNL     1       4.639  -0.702  -4.002  0.00  0.00    -0.019 A 
ATOM      6  C   UNL     1       3.993  -0.253  -2.876  0.00  0.00    +0.019 A 
ATOM      7  C   UNL     1       6.058  -0.389  -4.279  0.00  0.00    +0.049 C 
ATOM      8  C   UNL     1       6.707   0.842  -3.758  0.00  0.00    -0.023 C 
ATOM      9  C   UNL     1       7.640   1.226  -4.621  0.00  0.00    -0.030 C 
ATOM     10  C   UNL     1       7.662   0.281  -5.824  0.00  0.00    +0.033 C 
ATOM     11  C   UNL     1       6.218  -0.228  -5.820  0.00  0.00    +0.029 C 
ATOM     12  C   UNL     1       5.989  -1.613  -6.398  0.00  0.00    +0.108 C 
ATOM     13  N   UNL     1       4.576  -1.938  -6.105  0.00  0.00    -0.336 N 
ATOM     14  H   UNL     1       4.070  -2.470  -6.739  0.00  0.00    +0.147 HD
ENDROOT
BRANCH  12  15
ATOM     15  C   UNL     1       6.226  -1.602  -7.886  0.00  0.00    +0.017 A 
ATOM     16  C   UNL     1       5.165  -1.427  -8.754  0.00  0.00    +0.041 A 
ATOM     17  C   UNL     1       5.381  -1.417 -10.119  0.00  0.00    +0.127 A 
ATOM     18  C   UNL     1       6.660  -1.582 -10.620  0.00  0.00    +0.036 A 
ATOM     19  C   UNL     1       7.724  -1.756  -9.757  0.00  0.00    +0.048 A 
ATOM     20  C   UNL     1       7.510  -1.761  -8.386  0.00  0.00    +0.122 A 
BRANCH  17  21
ATOM     21  N   UNL     1       4.243  -1.231 -11.046  0.00  0.00    +0.056 N 
ATOM     22  O   UNL     1       3.124  -1.088 -10.609  0.00  0.00    -0.126 OA
ATOM     23  O   UNL     1       4.431  -1.222 -12.240  0.00  0.00    -0.126 OA
ENDBRANCH  17  21
BRANCH  20  24
ATOM     24  O   UNL     1       8.556  -1.927  -7.534  0.00  0.00    -0.506 OA
ATOM     25  H   UNL     1       8.740  -2.851  -7.313  0.00  0.00    +0.292 HD
ENDBRANCH  20  24
ENDBRANCH  12  15
BRANCH   1  27
ATOM     26  N   UNL     1       0.688  -0.476  -1.203  0.00  0.00    -0.307 N 
ATOM     27  C   UNL     1       1.972  -0.132  -1.427  0.00  0.00    +0.244 C 
ATOM     28  O   UNL     1       2.561   0.571  -0.628  0.00  0.00    -0.270 OA
ATOM     29  H   UNL     1       0.218  -1.037  -1.840  0.00  0.00    +0.150 HD
BRANCH  26  31
ATOM     30  C   UNL     1      -0.019   1.526   0.010  0.00  0.00    +0.031 C 
ATOM     31  C   UNL     1       0.002  -0.004   0.002  0.00  0.00    +0.026 C 
ATOM     32  C   UNL     1       0.742  -0.511   1.242  0.00  0.00    +0.031 C 
ATOM     33  C   UNL     1      -1.433  -0.534   0.013  0.00  0.00    +0.031 C 
ENDBRANCH  26  31
ENDBRANCH   1  27
TORSDOF 5
