REMARK  Name = ZINC09836199
REMARK  6 active torsions:
REMARK  status: ('A' for Active; 'I' for Inactive)
REMARK    1  A    between atoms: C_1  and  C_2
REMARK    2  A    between atoms: C_7  and  N_12
REMARK    3  A    between atoms: C_9  and  C_11
REMARK    4  A    between atoms: C_13  and  C_15
REMARK    5  A    between atoms: C_15  and  O_33
REMARK    6  A    between atoms: N_25  and  C_26
REMARK                            x       y       z     vdW  Elec       q    Type
REMARK                         _______ _______ _______ _____ _____    ______ ____
ROOT
ATOM      1  C   UNL     1      -1.192  -2.189  -0.115  0.00  0.00    +0.247 C 
ATOM      2  C   UNL     1      -2.534  -2.884  -0.091  0.00  0.00    +0.034 A 
ATOM      3  C   UNL     1      -2.633  -4.252  -0.195  0.00  0.00    +0.025 A 
ATOM      4  C   UNL     1      -3.880  -4.854  -0.175  0.00  0.00    +0.018 A 
ATOM      5  C   UNL     1      -5.020  -4.080  -0.050  0.00  0.00    +0.017 A 
ATOM      6  C   UNL     1      -4.923  -2.707   0.055  0.00  0.00    +0.025 A 
ATOM      7  C   UNL     1      -3.675  -2.099   0.035  0.00  0.00    +0.043 A 
ATOM      8  N   UNL     1      -3.556  -0.712   0.140  0.00  0.00    -0.269 N 
ATOM      9  C   UNL     1      -2.376  -0.079   0.126  0.00  0.00    +0.314 C 
ATOM     10  O   UNL     1      -2.367   1.133   0.224  0.00  0.00    -0.252 OA
ATOM     11  N   UNL     1      -1.199  -0.722   0.010  0.00  0.00    -0.214 N 
ATOM     12 BR   UNL     1      -4.025  -6.734  -0.319  0.00  0.00    -0.050 Br
ATOM     13  H   UNL     1      -4.364  -0.183   0.227  0.00  0.00    +0.156 HD
ENDROOT
BRANCH  11  14
ATOM     14  C   UNL     1       0.002  -0.004   0.002  0.00  0.00    +0.041 A 
ATOM     15  C   UNL     1       0.459   0.575  -1.175  0.00  0.00    +0.024 A 
ATOM     16  C   UNL     1       1.645   1.283  -1.179  0.00  0.00    +0.002 A 
ATOM     17  C   UNL     1       2.377   1.415  -0.014  0.00  0.00    +0.000 A 
ATOM     18  C   UNL     1       1.925   0.840   1.160  0.00  0.00    +0.002 A 
ATOM     19  C   UNL     1       0.740   0.131   1.171  0.00  0.00    +0.024 A 
ENDBRANCH  11  14
BRANCH   1  21
ATOM     20  N   UNL     1      -0.939  -2.015  -2.569  0.00  0.00    -0.308 N 
ATOM     21  C   UNL     1      -0.504  -2.542  -1.408  0.00  0.00    +0.269 C 
ATOM     22  O   UNL     1       0.443  -3.301  -1.403  0.00  0.00    -0.270 OA
ATOM     23  H   UNL     1      -1.696  -1.409  -2.573  0.00  0.00    +0.149 HD
BRANCH  20  29
ATOM     24  C   UNL     1      -1.528  -2.366  -7.465  0.00  0.00    +0.008 C 
ATOM     25  C   UNL     1      -0.549  -2.542  -6.302  0.00  0.00    -0.009 C 
ATOM     26  C   UNL     1       0.656  -1.621  -6.506  0.00  0.00    +0.003 C 
ATOM     27  C   UNL     1       1.634  -1.797  -5.343  0.00  0.00    +0.002 C 
ATOM     28  C   UNL     1       0.935  -1.438  -4.030  0.00  0.00    +0.022 C 
ATOM     29  C   UNL     1      -0.270  -2.358  -3.826  0.00  0.00    +0.076 C 
ATOM     30  C   UNL     1      -1.248  -2.183  -4.989  0.00  0.00    +0.009 C 
ATOM     31  C   UNL     1      -2.454  -3.104  -4.785  0.00  0.00    +0.009 C 
ENDBRANCH  20  29
ENDBRANCH   1  21
BRANCH   1  32
ATOM     32  O   UNL     1      -0.407  -2.719   0.956  0.00  0.00    -0.360 OA
ATOM     33  H   UNL     1      -0.344  -3.683   0.957  0.00  0.00    +0.213 HD
ENDBRANCH   1  32
TORSDOF 4
