REMARK  Name = ZINC12319952
REMARK  8 active torsions:
REMARK  status: ('A' for Active; 'I' for Inactive)
REMARK    1  A    between atoms: C_1  and  N_2
REMARK    2  A    between atoms: C_4  and  C_19
REMARK    3  A    between atoms: C_5  and  C_7
REMARK    4  A    between atoms: C_10  and  C_13
REMARK    5  A    between atoms: C_19  and  N_69
REMARK    6  A    between atoms: C_22  and  C_25
REMARK    7  A    between atoms: C_25  and  C_27
REMARK    8  A    between atoms: C_25  and  O_33
REMARK                            x       y       z     vdW  Elec       q    Type
REMARK                         _______ _______ _______ _____ _____    ______ ____
ROOT
ATOM      1  C   UNL     1       0.719   6.319  -8.642  0.00  0.00    +0.172 C 
ATOM      2  N   UNL     1      -0.354   6.392  -7.647  0.00  0.00    -0.274 N 
ATOM      3  C   UNL     1      -0.688   7.480  -6.919  0.00  0.00    +0.110 A 
ATOM      4  C   UNL     1      -1.723   7.145  -6.119  0.00  0.00    -0.019 A 
ATOM      5  C   UNL     1      -2.036   5.793  -6.361  0.00  0.00    +0.094 A 
ATOM      6  N   UNL     1      -1.213   5.346  -7.285  0.00  0.00    -0.171 NA
ENDROOT
BRANCH   5   7
ATOM      7  C   UNL     1      -3.108   5.012  -5.694  0.00  0.00    +0.002 A 
ATOM      8  C   UNL     1      -3.298   5.120  -4.318  0.00  0.00    +0.010 A 
ATOM      9  C   UNL     1      -4.300   4.396  -3.704  0.00  0.00    +0.004 A 
ATOM     10  C   UNL     1      -5.107   3.556  -4.450  0.00  0.00    -0.044 A 
ATOM     11  C   UNL     1      -4.918   3.441  -5.816  0.00  0.00    +0.004 A 
ATOM     12  C   UNL     1      -3.923   4.165  -6.441  0.00  0.00    +0.010 A 
BRANCH  10  13
ATOM     13  C   UNL     1      -6.195   2.763  -3.773  0.00  0.00    +0.019 C 
ATOM     14  C   UNL     1      -7.179   3.721  -3.099  0.00  0.00    +0.008 C 
ATOM     15  C   UNL     1      -8.284   2.917  -2.412  0.00  0.00    +0.001 C 
ATOM     16  C   UNL     1      -7.665   1.996  -1.358  0.00  0.00    +0.000 C 
ATOM     17  C   UNL     1      -6.681   1.038  -2.033  0.00  0.00    +0.001 C 
ATOM     18  C   UNL     1      -5.576   1.843  -2.720  0.00  0.00    +0.008 C 
ENDBRANCH  10  13
ENDBRANCH   5   7
BRANCH   4  19
ATOM     19  C   UNL     1      -2.416   8.054  -5.137  0.00  0.00    -0.039 C 
BRANCH  19  25
ATOM     20  C   UNL     1      -4.397   9.399  -4.780  0.00  0.00    -0.078 C 
ATOM     21  C   UNL     1      -5.817   9.662  -5.285  0.00  0.00    -0.012 C 
ATOM     22  C   UNL     1      -5.752  10.216  -6.711  0.00  0.00    +0.020 C 
ATOM     23  C   UNL     1      -5.011   9.217  -7.604  0.00  0.00    -0.012 C 
ATOM     24  C   UNL     1      -3.614   8.966  -7.032  0.00  0.00    -0.078 C 
ATOM     25  N   UNL     1      -3.747   8.412  -5.668  0.00  0.00    +0.382 N 
ATOM     26  H   UNL     1      -4.328   7.566  -5.707  0.00  0.00    -0.081 HD
BRANCH  22  27
ATOM     27  C   UNL     1      -7.171  10.425  -7.244  0.00  0.00    +0.166 C 
BRANCH  27  28
ATOM     28  C   UNL     1      -7.105  10.969  -8.648  0.00  0.00    +0.070 A 
ATOM     29  C   UNL     1      -7.765  10.310  -9.668  0.00  0.00    +0.026 A 
ATOM     30  C   UNL     1      -7.698  10.820 -10.956  0.00  0.00    +0.003 A 
ATOM     31  C   UNL     1      -6.966  11.978 -11.170  0.00  0.00    +0.020 A 
ATOM     32  C   UNL     1      -6.328  12.579 -10.101  0.00  0.00    +0.111 A 
ATOM     33  N   UNL     1      -6.418  12.069  -8.888  0.00  0.00    -0.257 NA
ENDBRANCH  27  28
BRANCH  27  34
ATOM     34  O   UNL     1      -7.863  11.351  -6.405  0.00  0.00    -0.385 OA
ATOM     35  H   UNL     1      -7.447  12.223  -6.354  0.00  0.00    +0.210 HD
ENDBRANCH  27  34
ENDBRANCH  22  27
ENDBRANCH  19  25
ENDBRANCH   4  19
TORSDOF 7
