REMARK  Name = ZINC29355106
REMARK  9 active torsions:
REMARK  status: ('A' for Active; 'I' for Inactive)
REMARK    1  A    between atoms: C_1  and  C_2
REMARK    2  A    between atoms: C_6  and  N_8
REMARK    3  A    between atoms: C_9  and  C_34
REMARK    4  A    between atoms: C_11  and  C_14
REMARK    5  A    between atoms: C_12  and  C_13
REMARK    6  A    between atoms: C_14  and  O_16
REMARK    7  A    between atoms: O_16  and  C_17
REMARK    8  A    between atoms: C_17  and  C_18
REMARK    9  A    between atoms: C_22  and  C_31
REMARK                            x       y       z     vdW  Elec       q    Type
REMARK                         _______ _______ _______ _____ _____    ______ ____
ROOT
ATOM      1  C   UNL     1      -4.188   0.193   2.237  0.00  0.00    +0.328 C 
ENDROOT
BRANCH   1   2
ATOM      2  C   UNL     1      -2.736   0.592   2.301  0.00  0.00    +0.258 C 
ATOM      3  O   UNL     1      -2.119   0.472   3.338  0.00  0.00    -0.272 OA
ATOM      4  N   UNL     1      -2.124   1.083   1.205  0.00  0.00    -0.261 N 
ATOM      5  C   UNL     1      -2.825   1.155  -0.092  0.00  0.00    +0.168 C 
ATOM      6  C   UNL     1      -2.474   2.507  -0.730  0.00  0.00    +0.276 C 
ATOM      7  O   UNL     1      -1.054   2.596  -0.875  0.00  0.00    -0.476 OA
ATOM      8  C   UNL     1      -0.287   2.302   0.207  0.00  0.00    +0.143 A 
ATOM      9  C   UNL     1      -0.798   1.545   1.259  0.00  0.00    +0.078 A 
ATOM     10  C   UNL     1      -0.003   1.249   2.354  0.00  0.00    +0.027 A 
ATOM     11  C   UNL     1       1.301   1.709   2.404  0.00  0.00    +0.002 A 
ATOM     12  C   UNL     1       1.809   2.462   1.363  0.00  0.00    +0.004 A 
ATOM     13  C   UNL     1       1.021   2.760   0.267  0.00  0.00    +0.047 A 
BRANCH   6  14
ATOM     14  C   UNL     1      -3.127   2.611  -2.083  0.00  0.00    +0.253 C 
ATOM     15  O   UNL     1      -2.444   2.663  -3.084  0.00  0.00    -0.272 OA
ATOM     16  N   UNL     1      -4.471   2.648  -2.182  0.00  0.00    -0.326 N 
ATOM     17  H   UNL     1      -4.948   2.724  -3.170  0.00  0.00    +0.145 HD
ATOM     18  H   UNL     1      -5.090   2.601  -1.274  0.00  0.00    +0.145 HD
ENDBRANCH   6  14
ENDBRANCH   1   2
BRANCH   1  19
ATOM     19  O   UNL     1      -4.643  -0.191   3.562  0.00  0.00    -0.452 OA
BRANCH  19  20
ATOM     20  C   UNL     1      -5.929  -0.578   3.679  0.00  0.00    +0.341 C 
ATOM     21  O   UNL     1      -6.650  -0.594   2.701  0.00  0.00    -0.245 OA
BRANCH  20  25
ATOM     22  N   UNL     1      -7.813  -1.672   6.593  0.00  0.00    -0.317 N 
ATOM     23  C   UNL     1      -6.606  -1.445   7.191  0.00  0.00    +0.022 A 
ATOM     24  C   UNL     1      -5.728  -1.024   6.263  0.00  0.00    +0.038 A 
ATOM     25  C   UNL     1      -6.459  -0.980   4.991  0.00  0.00    +0.080 A 
ATOM     26  C   UNL     1      -7.741  -1.398   5.275  0.00  0.00    +0.035 A 
ATOM     27  C   UNL     1      -8.868  -1.528   4.283  0.00  0.00    +0.065 C 
ATOM     28  C   UNL     1      -6.304  -1.641   8.655  0.00  0.00    +0.064 C 
BRANCH  22  34
ATOM     29  C   UNL     1     -10.140  -5.210   9.095  0.00  0.00    +0.044 C 
ATOM     30  C   UNL     1     -10.117  -3.835   8.477  0.00  0.00    -0.048 A 
ATOM     31  C   UNL     1     -11.230  -3.019   8.565  0.00  0.00    +0.003 A 
ATOM     32  C   UNL     1     -11.212  -1.758   8.000  0.00  0.00    +0.002 A 
ATOM     33  C   UNL     1     -10.079  -1.306   7.350  0.00  0.00    +0.026 A 
ATOM     34  C   UNL     1      -8.962  -2.125   7.256  0.00  0.00    +0.047 A 
ATOM     35  C   UNL     1      -8.983  -3.392   7.825  0.00  0.00    +0.029 A 
ENDBRANCH  22  34
ENDBRANCH  20  25
ENDBRANCH  19  20
ENDBRANCH   1  19
TORSDOF 6
