REMARK  Name = ZINC63557545
REMARK  9 active torsions:
REMARK  status: ('A' for Active; 'I' for Inactive)
REMARK    1  A    between atoms: C_3  and  S_31
REMARK    2  A    between atoms: C_6  and  C_7
REMARK    3  A    between atoms: C_7  and  C_8
REMARK    4  A    between atoms: C_8  and  N_9
REMARK    5  A    between atoms: C_10  and  C_12
REMARK    6  A    between atoms: N_17  and  C_19
REMARK    7  A    between atoms: C_19  and  C_20
REMARK    8  A    between atoms: C_20  and  C_21
REMARK    9  A    between atoms: S_31  and  N_34
REMARK                            x       y       z     vdW  Elec       q    Type
REMARK                         _______ _______ _______ _____ _____    ______ ____
ROOT
ATOM      1  C   UNL     1      -4.889  -2.888  -2.575  0.00  0.00    +0.101 C 
ATOM      2  C   UNL     1      -4.691  -4.294  -1.963  0.00  0.00    +0.110 C 
ATOM      3  C   UNL     1      -5.591  -5.188  -2.788  0.00  0.00    +0.216 C 
ATOM      4  O   UNL     1      -5.944  -6.303  -2.468  0.00  0.00    -0.276 OA
ATOM      5  N   UNL     1      -5.941  -4.566  -3.927  0.00  0.00    -0.300 N 
ATOM      6  C   UNL     1      -5.338  -3.230  -4.013  0.00  0.00    +0.121 C 
ENDROOT
BRANCH   1   8
ATOM      7  N   UNL     1      -3.004  -1.778  -1.420  0.00  0.00    -0.315 N 
ATOM      8  C   UNL     1      -3.594  -2.117  -2.584  0.00  0.00    +0.218 C 
ATOM      9  O   UNL     1      -3.084  -1.801  -3.637  0.00  0.00    -0.275 OA
ATOM     10  H   UNL     1      -3.412  -2.031  -0.578  0.00  0.00    +0.149 HD
BRANCH   7  11
ATOM     11  C   UNL     1      -1.745  -1.028  -1.429  0.00  0.00    +0.109 C 
BRANCH  11  12
ATOM     12  C   UNL     1      -1.293  -0.775   0.011  0.00  0.00    +0.054 C 
BRANCH  12  18
ATOM     13  C   UNL     1      -0.017   1.378   0.010  0.00  0.00    +0.005 A 
ATOM     14  C   UNL     1       1.171   2.086   0.002  0.00  0.00    +0.029 A 
ATOM     15  C   UNL     1       2.377   1.411  -0.013  0.00  0.00    +0.105 A 
ATOM     16  C   UNL     1       2.396   0.029  -0.020  0.00  0.00    +0.029 A 
ATOM     17  C   UNL     1       1.208  -0.679  -0.012  0.00  0.00    +0.005 A 
ATOM     18  C   UNL     1       0.002  -0.004   0.002  0.00  0.00    -0.046 A 
BRANCH  15  19
ATOM     19  S   UNL     1       3.891   2.312  -0.024  0.00  0.00    +0.056 S 
ATOM     20  O   UNL     1       4.872   1.453  -0.588  0.00  0.00    -0.153 OA
ATOM     21  O   UNL     1       3.597   3.593  -0.566  0.00  0.00    -0.153 OA
BRANCH  19  22
ATOM     22  N   UNL     1       4.327   2.556   1.555  0.00  0.00    -0.204 NA
ATOM     23  H   UNL     1       3.768   2.215   2.271  0.00  0.00    +0.144 HD
ATOM     24  H   UNL     1       5.142   3.039   1.764  0.00  0.00    +0.144 HD
ENDBRANCH  19  22
ENDBRANCH  15  19
ENDBRANCH  12  18
ENDBRANCH  11  12
ENDBRANCH   7  11
ENDBRANCH   1   8
BRANCH   5  25
ATOM     25  C   UNL     1      -6.814  -5.146  -4.950  0.00  0.00    +0.112 C 
BRANCH  25  26
ATOM     26  C   UNL     1      -8.269  -4.784  -4.645  0.00  0.00    +0.052 C 
BRANCH  26  27
ATOM     27  C   UNL     1      -9.167  -5.381  -5.698  0.00  0.00    -0.040 C 
ATOM     28  C   UNL     1      -9.829  -6.558  -5.630  0.00  0.00    +0.002 A 
ATOM     29  C   UNL     1      -9.909  -7.595  -4.594  0.00  0.00    +0.048 A 
ATOM     30  C   UNL     1     -10.673  -8.690  -4.819  0.00  0.00    +0.124 A 
ATOM     31  C   UNL     1     -11.389  -8.856  -6.015  0.00  0.00    +0.040 A 
ATOM     32  C   UNL     1     -11.365  -7.946  -7.011  0.00  0.00    +0.029 A 
ATOM     33  C   UNL     1     -10.595  -6.758  -6.881  0.00  0.00    +0.043 A 
ATOM     34  N   UNL     1     -10.412  -5.743  -7.691  0.00  0.00    -0.380 N 
ATOM     35  C   UNL     1      -9.515  -4.781  -7.042  0.00  0.00    +0.144 C 
ATOM     36  F   UNL     1     -10.748  -9.647  -3.868  0.00  0.00    -0.205 F 
ATOM     37  H   UNL     1     -10.808  -5.644  -8.572  0.00  0.00    +0.160 HD
ENDBRANCH  26  27
ENDBRANCH  25  26
ENDBRANCH   5  25
TORSDOF 9
