REMARK  Name = ZINC18056788
REMARK  8 active torsions:
REMARK  status: ('A' for Active; 'I' for Inactive)
REMARK    1  A    between atoms: C_1  and  C_2
REMARK    2  A    between atoms: C_5  and  C_40
REMARK    3  A    between atoms: N_8  and  S_10
REMARK    4  A    between atoms: S_10  and  C_13
REMARK    5  A    between atoms: C_25  and  S_27
REMARK    6  A    between atoms: S_27  and  N_30
REMARK    7  A    between atoms: C_32  and  C_39
REMARK    8  A    between atoms: C_35  and  C_38
REMARK                            x       y       z     vdW  Elec       q    Type
REMARK                         _______ _______ _______ _____ _____    ______ ____
ROOT
ATOM      1  C   UNL     1       2.547  -3.268  -0.217  0.00  0.00    +0.106 A 
ATOM      2  C   UNL     1       2.078  -4.390  -0.872  0.00  0.00    +0.029 A 
ATOM      3  C   UNL     1       2.502  -4.680  -2.160  0.00  0.00    +0.011 A 
ATOM      4  C   UNL     1       3.403  -3.841  -2.800  0.00  0.00    -0.006 A 
ATOM      5  C   UNL     1       3.879  -2.699  -2.133  0.00  0.00    +0.032 A 
ATOM      6  C   UNL     1       3.442  -2.417  -0.844  0.00  0.00    +0.040 A 
ATOM      7  C   UNL     1       4.814  -1.999  -3.045  0.00  0.00    +0.194 C 
ATOM      8  O   UNL     1       5.420  -0.973  -2.808  0.00  0.00    -0.287 OA
ATOM      9  C   UNL     1       4.872  -2.787  -4.299  0.00  0.00    +0.032 A 
ATOM     10  C   UNL     1       4.022  -3.895  -4.150  0.00  0.00    -0.006 A 
ATOM     11  C   UNL     1       3.893  -4.802  -5.192  0.00  0.00    +0.011 A 
ATOM     12  C   UNL     1       4.600  -4.612  -6.369  0.00  0.00    +0.029 A 
ATOM     13  C   UNL     1       5.437  -3.522  -6.514  0.00  0.00    +0.106 A 
ATOM     14  C   UNL     1       5.576  -2.607  -5.484  0.00  0.00    +0.040 A 
ENDROOT
BRANCH   1  15
ATOM     15  S   UNL     1       1.999  -2.914   1.419  0.00  0.00    +0.061 S 
ATOM     16  O   UNL     1       2.998  -2.098   2.015  0.00  0.00    -0.153 OA
ATOM     17  O   UNL     1       1.587  -4.150   1.986  0.00  0.00    -0.153 OA
BRANCH  15  23
ATOM     18  C   UNL     1      -0.019   1.526   0.010  0.00  0.00    +0.009 C 
ATOM     19  C   UNL     1       0.002  -0.004   0.002  0.00  0.00    +0.002 C 
ATOM     20  C   UNL     1      -1.433  -0.534   0.015  0.00  0.00    +0.009 C 
ATOM     21  C   UNL     1      -1.414  -2.064  -0.027  0.00  0.00    +0.002 C 
ATOM     22  C   UNL     1      -0.692  -2.596   1.215  0.00  0.00    +0.112 C 
ATOM     23  N   UNL     1       0.639  -1.977   1.288  0.00  0.00    -0.176 NA
ATOM     24  C   UNL     1       0.742  -0.512   1.244  0.00  0.00    +0.112 C 
ATOM     25  C   UNL     1      -2.850  -2.592  -0.049  0.00  0.00    +0.009 C 
ENDBRANCH  15  23
ENDBRANCH   1  15
BRANCH  13  26
ATOM     26  S   UNL     1       6.330  -3.296  -8.016  0.00  0.00    +0.061 S 
ATOM     27  O   UNL     1       7.461  -2.496  -7.699  0.00  0.00    -0.153 OA
ATOM     28  O   UNL     1       6.447  -4.578  -8.616  0.00  0.00    -0.153 OA
BRANCH  26  29
ATOM     29  N   UNL     1       5.376  -2.389  -9.021  0.00  0.00    -0.176 NA
ATOM     30  C   UNL     1       4.426  -3.035  -9.937  0.00  0.00    +0.112 C 
ATOM     31  C   UNL     1       3.035  -2.435  -9.709  0.00  0.00    +0.002 C 
ATOM     32  C   UNL     1       3.111  -0.913  -9.853  0.00  0.00    +0.009 C 
ATOM     33  C   UNL     1       4.061  -0.345  -8.797  0.00  0.00    +0.002 C 
ATOM     34  C   UNL     1       5.460  -0.922  -9.010  0.00  0.00    +0.112 C 
ATOM     35  C   UNL     1       4.111   1.179  -8.920  0.00  0.00    +0.009 C 
ATOM     36  C   UNL     1       2.549  -2.791  -8.303  0.00  0.00    +0.009 C 
ENDBRANCH  26  29
ENDBRANCH  13  26
TORSDOF 4
