REMARK  Name = ZINC20693958
REMARK  6 active torsions:
REMARK  status: ('A' for Active; 'I' for Inactive)
REMARK    1  A    between atoms: C_1  and  C_2
REMARK    2  A    between atoms: C_4  and  N_27
REMARK    3  A    between atoms: C_9  and  C_18
REMARK    4  A    between atoms: C_22  and  O_25
REMARK    5  A    between atoms: C_23  and  O_24
REMARK    6  A    between atoms: O_25  and  C_26
REMARK                            x       y       z     vdW  Elec       q    Type
REMARK                         _______ _______ _______ _____ _____    ______ ____
ROOT
ATOM      1  C   UNL     1       4.046   2.780   0.153  0.00  0.00    +0.046 C 
ATOM      2  C   UNL     1       3.384   2.439  -1.157  0.00  0.00    -0.027 A 
ATOM      3  C   UNL     1       4.109   2.514  -2.325  0.00  0.00    +0.038 A 
ATOM      4  C   UNL     1       3.513   2.207  -3.535  0.00  0.00    +0.127 A 
ATOM      5  C   UNL     1       2.188   1.815  -3.564  0.00  0.00    +0.038 A 
ATOM      6  C   UNL     1       1.458   1.727  -2.398  0.00  0.00    -0.017 A 
ATOM      7  C   UNL     1       2.043   2.052  -1.171  0.00  0.00    +0.034 A 
ATOM      8  N   UNL     1       1.369   2.019   0.048  0.00  0.00    -0.336 N 
ATOM      9  C   UNL     1      -0.009   1.503   0.029  0.00  0.00    +0.109 C 
ATOM     10  C   UNL     1      -0.664   2.027  -1.232  0.00  0.00    +0.029 C 
ATOM     11  C   UNL     1       0.052   1.269  -2.393  0.00  0.00    +0.049 C 
ATOM     12  C   UNL     1      -0.863   1.471  -3.542  0.00  0.00    -0.023 C 
ATOM     13  C   UNL     1      -2.099   1.619  -3.077  0.00  0.00    -0.030 C 
ATOM     14  C   UNL     1      -2.091   1.562  -1.548  0.00  0.00    +0.033 C 
ATOM     15  H   UNL     1       1.817   2.354   0.995  0.00  0.00    +0.147 HD
ENDROOT
BRANCH   9  16
ATOM     16  C   UNL     1       0.006  -0.004   0.011  0.00  0.00    +0.018 A 
ATOM     17  C   UNL     1       1.096  -0.678  -0.509  0.00  0.00    +0.009 A 
ATOM     18  C   UNL     1       1.116  -2.060  -0.522  0.00  0.00    +0.004 A 
ATOM     19  C   UNL     1       0.042  -2.775  -0.025  0.00  0.00    +0.049 A 
ATOM     20  C   UNL     1      -1.055  -2.106   0.492  0.00  0.00    +0.162 A 
ATOM     21  C   UNL     1      -1.073  -0.714   0.510  0.00  0.00    +0.163 A 
BRANCH  21  22
ATOM     22  O   UNL     1      -2.148  -0.053   1.018  0.00  0.00    -0.503 OA
ATOM     23  H   UNL     1      -3.005  -0.618   1.414  0.00  0.00    +0.292 HD
ENDBRANCH  21  22
BRANCH  20  24
ATOM     24  O   UNL     1      -2.113  -2.807   0.981  0.00  0.00    -0.491 OA
ATOM     25  C   UNL     1      -2.025  -4.233   0.930  0.00  0.00    +0.277 C 
ENDBRANCH  20  24
ENDBRANCH   9  16
BRANCH   4  26
ATOM     26  N   UNL     1       4.290   2.297  -4.791  0.00  0.00    +0.056 N 
ATOM     27  O   UNL     1       3.762   2.026  -5.855  0.00  0.00    -0.126 OA
ATOM     28  O   UNL     1       5.458   2.643  -4.761  0.00  0.00    -0.126 OA
ENDBRANCH   4  26
TORSDOF 4
