REMARK  Name = ZINC39532051
REMARK  10 active torsions:
REMARK  status: ('A' for Active; 'I' for Inactive)
REMARK    1  A    between atoms: C_1  and  C_2
REMARK    2  A    between atoms: C_2  and  C_3
REMARK    3  A    between atoms: C_6  and  C_9
REMARK    4  A    between atoms: C_9  and  C_11
REMARK    5  A    between atoms: C_9  and  N_20
REMARK    6  A    between atoms: C_11  and  N_12
REMARK    7  A    between atoms: N_12  and  C_13
REMARK    8  A    between atoms: C_18  and  O_19
REMARK    9  A    between atoms: C_24  and  C_27
REMARK   10  A    between atoms: C_27  and  C_28
REMARK                            x       y       z     vdW  Elec       q    Type
REMARK                         _______ _______ _______ _____ _____    ______ ____
ROOT
ATOM      1  C   UNL     1      -5.366  -2.018   0.053  0.00  0.00    -0.021 C 
ENDROOT
BRANCH   1   2
ATOM      2  N   UNL     1      -5.415  -2.940  -1.090  0.00  0.00    +0.383 N 
ATOM      3  C   UNL     1      -6.797  -3.396  -1.292  0.00  0.00    -0.097 C 
ATOM      4  C   UNL     1      -6.848  -4.357  -2.482  0.00  0.00    -0.101 C 
ATOM      5  N   UNL     1      -5.984  -5.514  -2.214  0.00  0.00    +0.379 N 
ATOM      6  C   UNL     1      -4.602  -5.058  -2.012  0.00  0.00    -0.085 C 
ATOM      7  C   UNL     1      -4.551  -4.097  -0.822  0.00  0.00    -0.094 C 
ATOM      8  H   UNL     1      -6.306  -5.989  -1.384  0.00  0.00    -0.086 HD
ATOM      9  H   UNL     1      -6.018  -6.147  -2.999  0.00  0.00    -0.086 HD
ATOM     10  H   UNL     1      -5.094  -2.464  -1.919  0.00  0.00    -0.081 HD
BRANCH   6  11
ATOM     11  C   UNL     1      -3.702  -6.263  -1.734  0.00  0.00    +0.017 C 
BRANCH  11  12
ATOM     12  C   UNL     1      -3.656  -7.147  -2.953  0.00  0.00    -0.049 A 
ATOM     13  C   UNL     1      -4.583  -8.161  -3.108  0.00  0.00    +0.003 A 
ATOM     14  C   UNL     1      -4.540  -8.972  -4.226  0.00  0.00    +0.000 A 
ATOM     15  C   UNL     1      -3.571  -8.770  -5.190  0.00  0.00    +0.000 A 
ATOM     16  C   UNL     1      -2.644  -7.756  -5.036  0.00  0.00    +0.000 A 
ATOM     17  C   UNL     1      -2.689  -6.942  -3.920  0.00  0.00    +0.003 A 
ENDBRANCH  11  12
ENDBRANCH   6  11
ENDBRANCH   1   2
BRANCH   1  21
ATOM     18  C   UNL     1      -1.331  -0.781   0.710  0.00  0.00    -0.048 A 
ATOM     19  C   UNL     1      -2.152  -1.059   1.786  0.00  0.00    +0.004 A 
ATOM     20  C   UNL     1      -3.458  -1.459   1.574  0.00  0.00    +0.002 A 
ATOM     21  C   UNL     1      -3.943  -1.581   0.285  0.00  0.00    -0.059 A 
ATOM     22  C   UNL     1      -3.121  -1.302  -0.791  0.00  0.00    +0.002 A 
ATOM     23  C   UNL     1      -1.817  -0.897  -0.579  0.00  0.00    +0.004 A 
BRANCH  18  25
ATOM     24  C   UNL     1       0.147   1.180   1.058  0.00  0.00    +0.009 C 
ATOM     25  C   UNL     1       0.093  -0.345   0.942  0.00  0.00    +0.032 C 
ENDBRANCH  18  25
ENDBRANCH   1  21
BRANCH   1  26
ATOM     26  C   UNL     1      -6.234  -0.793  -0.242  0.00  0.00    +0.091 C 
BRANCH  26  27
ATOM     27  N   UNL     1      -6.252   0.087   0.929  0.00  0.00    -0.342 N 
ATOM     28  H   UNL     1      -5.710  -0.127   1.704  0.00  0.00    +0.146 HD
BRANCH  27  29
ATOM     29  C   UNL     1      -7.050   1.236   0.928  0.00  0.00    +0.069 A 
ATOM     30  C   UNL     1      -7.830   1.541  -0.178  0.00  0.00    +0.026 A 
ATOM     31  C   UNL     1      -8.618   2.677  -0.175  0.00  0.00    +0.002 A 
ATOM     32  C   UNL     1      -8.632   3.511   0.927  0.00  0.00    +0.004 A 
ATOM     33  C   UNL     1      -7.857   3.213   2.033  0.00  0.00    +0.047 A 
ATOM     34  C   UNL     1      -7.069   2.075   2.041  0.00  0.00    +0.138 A 
BRANCH  34  35
ATOM     35  O   UNL     1      -6.310   1.778   3.131  0.00  0.00    -0.505 OA
ATOM     36  H   UNL     1      -5.421   2.158   3.106  0.00  0.00    +0.292 HD
ENDBRANCH  34  35
ENDBRANCH  27  29
ENDBRANCH  26  27
ENDBRANCH   1  26
TORSDOF 9
