REMARK  Name = ZINC64188193
REMARK  4 active torsions:
REMARK  status: ('A' for Active; 'I' for Inactive)
REMARK    1  A    between atoms: C_4  and  C_7
REMARK    2  A    between atoms: C_7  and  C_9
REMARK    3  A    between atoms: C_7  and  N_19
REMARK    4  A    between atoms: C_20  and  C_22
REMARK                            x       y       z     vdW  Elec       q    Type
REMARK                         _______ _______ _______ _____ _____    ______ ____
ROOT
ATOM      1  C   UNL     1       3.711  -0.707  -0.038  0.00  0.00    +0.134 C 
ENDROOT
BRANCH   1   2
ATOM      2  C   UNL     1       4.014  -1.161  -1.442  0.00  0.00    -0.021 A 
ATOM      3  C   UNL     1       3.401  -2.300  -1.944  0.00  0.00    +0.008 A 
ATOM      4  C   UNL     1       3.666  -2.729  -3.227  0.00  0.00    +0.028 A 
ATOM      5  C   UNL     1       4.554  -2.016  -4.021  0.00  0.00    +0.066 A 
ATOM      6  C   UNL     1       5.175  -0.862  -3.513  0.00  0.00    +0.089 A 
ATOM      7  C   UNL     1       4.886  -0.443  -2.211  0.00  0.00    +0.035 A 
ATOM      8  N   UNL     1       5.978  -0.380  -4.496  0.00  0.00    -0.236 NA
ATOM      9  C   UNL     1       5.891  -1.143  -5.545  0.00  0.00    +0.197 A 
ATOM     10  N   UNL     1       5.027  -2.167  -5.309  0.00  0.00    -0.344 N 
ATOM     11  H   UNL     1       4.788  -2.873  -5.930  0.00  0.00    +0.167 HD
ENDBRANCH   1   2
BRANCH   1  15
ATOM     12  C   UNL     1      -0.017   1.378   0.010  0.00  0.00    +0.000 A 
ATOM     13  C   UNL     1       1.171   2.086   0.002  0.00  0.00    +0.000 A 
ATOM     14  C   UNL     1       2.377   1.411  -0.013  0.00  0.00    +0.006 A 
ATOM     15  C   UNL     1       2.396   0.029  -0.020  0.00  0.00    -0.023 A 
ATOM     16  C   UNL     1       1.208  -0.679  -0.012  0.00  0.00    +0.006 A 
ATOM     17  C   UNL     1       0.002  -0.004   0.002  0.00  0.00    +0.000 A 
ENDBRANCH   1  15
BRANCH   1  18
ATOM     18  N   UNL     1       3.630  -1.873   0.845  0.00  0.00    -0.301 N 
ATOM     19  C   UNL     1       3.871  -1.738   2.164  0.00  0.00    +0.239 C 
ATOM     20  O   UNL     1       4.156  -0.646   2.623  0.00  0.00    -0.271 OA
ATOM     21  H   UNL     1       3.403  -2.743   0.480  0.00  0.00    +0.150 HD
BRANCH  19  22
ATOM     22  C   UNL     1       3.793  -2.864   3.017  0.00  0.00    +0.087 C 
ATOM     23  C   UNL     1       4.034  -2.728   4.337  0.00  0.00    +0.028 C 
ATOM     24  N   UNL     1       4.359  -1.560   4.991  0.00  0.00    -0.319 N 
ATOM     25  C   UNL     1       3.920  -1.740   6.375  0.00  0.00    +0.223 C 
ATOM     26  N   UNL     1       4.221  -3.174   6.674  0.00  0.00    -0.303 N 
ATOM     27  C   UNL     1       3.990  -3.831   5.374  0.00  0.00    +0.157 C 
ATOM     28  C   UNL     1       4.665  -3.367   7.973  0.00  0.00    +0.080 C 
ATOM     29  C   UNL     1       5.234  -2.377   8.657  0.00  0.00    +0.059 C 
ATOM     30  S   UNL     1       5.093  -0.950   7.549  0.00  0.00    -0.090 S 
ATOM     31  H   UNL     1       4.790  -0.779   4.611  0.00  0.00    +0.148 HD
ENDBRANCH  19  22
ENDBRANCH   1  18
TORSDOF 4
