REMARK  Name = ZINC00731185
REMARK  6 active torsions:
REMARK  status: ('A' for Active; 'I' for Inactive)
REMARK    1  A    between atoms: C_3  and  C_9
REMARK    2  A    between atoms: C_4  and  O_8
REMARK    3  A    between atoms: C_6  and  O_7
REMARK    4  A    between atoms: N_11  and  N_12
REMARK    5  A    between atoms: C_13  and  C_14
REMARK    6  A    between atoms: C_19  and  O_20
REMARK                            x       y       z     vdW  Elec       q    Type
REMARK                         _______ _______ _______ _____ _____    ______ ____
ROOT
ATOM      1  C   UNL     1      -1.193   2.055   0.019  0.00  0.00    +0.267 C 
ATOM      2  O   UNL     1      -2.238   1.432   0.020  0.00  0.00    -0.268 OA
ATOM      3  N   UNL     1      -0.017   1.397   0.010  0.00  0.00    -0.203 N 
ATOM      4  H   UNL     1       0.816   1.893   0.004  0.00  0.00    +0.178 HD
ENDROOT
BRANCH   1   7
ATOM      5  C   UNL     1      -0.036   5.621   0.033  0.00  0.00    +0.046 A 
ATOM      6  C   UNL     1      -0.013   4.246   0.025  0.00  0.00    +0.020 A 
ATOM      7  C   UNL     1      -1.213   3.527   0.027  0.00  0.00    +0.080 A 
ATOM      8  C   UNL     1      -2.436   4.215   0.031  0.00  0.00    +0.132 A 
ATOM      9  C   UNL     1      -2.446   5.599   0.044  0.00  0.00    +0.091 A 
ATOM     10  C   UNL     1      -1.250   6.302   0.042  0.00  0.00    +0.120 A 
BRANCH  10  11
ATOM     11  O   UNL     1      -1.263   7.659   0.049  0.00  0.00    -0.507 OA
ATOM     12  H   UNL     1      -1.272   8.057  -0.832  0.00  0.00    +0.292 HD
ENDBRANCH  10  11
BRANCH   8  13
ATOM     13  O   UNL     1      -3.605   3.526   0.026  0.00  0.00    -0.506 OA
ATOM     14  H   UNL     1      -3.944   3.321   0.908  0.00  0.00    +0.292 HD
ENDBRANCH   8  13
ENDBRANCH   1   7
BRANCH   3  15
ATOM     15  N   UNL     1       0.002  -0.004   0.002  0.00  0.00    -0.187 NA
ATOM     16  C   UNL     1       1.135  -0.638  -0.012  0.00  0.00    +0.142 C 
BRANCH  16  17
ATOM     17  C   UNL     1       1.155  -2.111  -0.020  0.00  0.00    +0.037 A 
ATOM     18  C   UNL     1       2.372  -2.797  -0.036  0.00  0.00    +0.028 A 
ATOM     19  C   UNL     1       2.383  -4.177  -0.043  0.00  0.00    +0.019 A 
ATOM     20  C   UNL     1       1.193  -4.885  -0.035  0.00  0.00    +0.019 A 
ATOM     21  C   UNL     1      -0.017  -4.217  -0.019  0.00  0.00    +0.047 A 
ATOM     22  C   UNL     1      -0.047  -2.832  -0.007  0.00  0.00    +0.126 A 
ATOM     23 BR   UNL     1       4.031  -5.105  -0.063  0.00  0.00    -0.050 Br
BRANCH  22  24
ATOM     24  O   UNL     1      -1.236  -2.176   0.014  0.00  0.00    -0.506 OA
ATOM     25  H   UNL     1      -1.593  -1.981  -0.864  0.00  0.00    +0.292 HD
ENDBRANCH  22  24
ENDBRANCH  16  17
ENDBRANCH   3  15
TORSDOF 6
