REMARK  Name = ZINC09504971
REMARK  7 active torsions:
REMARK  status: ('A' for Active; 'I' for Inactive)
REMARK    1  A    between atoms: C_1  and  O_2
REMARK    2  A    between atoms: O_2  and  C_3
REMARK    3  A    between atoms: C_6  and  C_8
REMARK    4  A    between atoms: C_12  and  N_13
REMARK    5  A    between atoms: C_14  and  C_16
REMARK    6  A    between atoms: N_19  and  S_22
REMARK    7  A    between atoms: S_22  and  C_25
REMARK                            x       y       z     vdW  Elec       q    Type
REMARK                         _______ _______ _______ _____ _____    ______ ____
ROOT
ATOM      1  C   UNL     1      -2.025   8.004   3.701  0.00  0.00    +0.069 A 
ATOM      2  C   UNL     1      -1.792   8.848   4.866  0.00  0.00    -0.023 A 
ATOM      3  C   UNL     1      -0.645   8.595   5.531  0.00  0.00    -0.004 A 
ATOM      4  S   UNL     1       0.107   7.252   4.652  0.00  0.00    -0.077 S 
ATOM      5  C   UNL     1      -1.074   7.040   3.402  0.00  0.00    +0.084 A 
ATOM      6  C   UNL     1      -0.118   9.292   6.747  0.00  0.00    +0.043 C 
ATOM      7  C   UNL     1      -1.231   9.384   7.799  0.00  0.00    +0.005 C 
ATOM      8  C   UNL     1      -2.006  10.678   7.572  0.00  0.00    +0.001 C 
ATOM      9  C   UNL     1      -2.044  11.013   6.082  0.00  0.00    +0.005 C 
ATOM     10  C   UNL     1      -2.777   9.923   5.308  0.00  0.00    +0.037 C 
ENDROOT
BRANCH   1  14
ATOM     11  C   UNL     1      -4.311   9.163   1.065  0.00  0.00    +0.407 C 
ATOM     12  O   UNL     1      -5.319   8.537   1.326  0.00  0.00    -0.226 OA
ATOM     13  N   UNL     1      -3.208   9.012   1.825  0.00  0.00    -0.217 N 
ATOM     14  C   UNL     1      -3.224   8.168   2.875  0.00  0.00    +0.255 C 
ATOM     15  O   UNL     1      -4.234   7.542   3.137  0.00  0.00    -0.270 OA
ATOM     16  H   UNL     1      -2.403   9.511   1.616  0.00  0.00    +0.161 HD
BRANCH  11  18
ATOM     17  C   UNL     1      -5.518  10.118  -0.759  0.00  0.00    +0.282 C 
ATOM     18  O   UNL     1      -4.295  10.006   0.015  0.00  0.00    -0.453 OA
ENDBRANCH  11  18
ENDBRANCH   1  14
BRANCH   5  19
ATOM     19  N   UNL     1      -1.071   6.127   2.360  0.00  0.00    -0.279 N 
ATOM     20  C   UNL     1      -0.049   5.258   2.229  0.00  0.00    +0.221 C 
ATOM     21  O   UNL     1       0.868   5.276   3.022  0.00  0.00    -0.275 OA
ATOM     22  H   UNL     1      -1.804   6.112   1.726  0.00  0.00    +0.155 HD
BRANCH  20  23
ATOM     23  C   UNL     1      -0.046   4.264   1.096  0.00  0.00    +0.078 C 
ATOM     24  C   UNL     1       1.217   3.403   1.176  0.00  0.00    +0.030 C 
ATOM     25  C   UNL     1       1.234   2.417   0.003  0.00  0.00    +0.110 C 
ATOM     26  N   UNL     1      -0.020   1.652   0.011  0.00  0.00    -0.176 NA
ATOM     27  C   UNL     1      -1.295   2.383   0.021  0.00  0.00    +0.110 C 
ATOM     28  C   UNL     1      -1.283   3.369   1.199  0.00  0.00    +0.030 C 
BRANCH  26  29
ATOM     29  S   UNL     1       0.002  -0.004   0.002  0.00  0.00    +0.067 S 
ATOM     30  O   UNL     1      -1.243  -0.424  -0.539  0.00  0.00    -0.152 OA
ATOM     31  O   UNL     1       1.248  -0.390  -0.563  0.00  0.00    -0.152 OA
BRANCH  29  32
ATOM     32  C   UNL     1       0.025  -0.534   1.682  0.00  0.00    +0.143 A 
ATOM     33  C   UNL     1      -1.016  -0.800   2.508  0.00  0.00    +0.036 A 
ATOM     34  C   UNL     1      -0.758  -1.211   3.802  0.00  0.00    +0.010 A 
ATOM     35  C   UNL     1       0.529  -1.326   4.211  0.00  0.00    +0.047 A 
ATOM     36  S   UNL     1       1.427  -0.853   2.741  0.00  0.00    -0.077 S 
ENDBRANCH  29  32
ENDBRANCH  26  29
ENDBRANCH  20  23
ENDBRANCH   5  19
TORSDOF 6
