REMARK  Name = ZINC03634271
REMARK  4 active torsions:
REMARK  status: ('A' for Active; 'I' for Inactive)
REMARK    1  A    between atoms: C_8  and  C_12
REMARK    2  A    between atoms: N_14  and  C_15
REMARK    3  A    between atoms: C_18  and  S_21
REMARK    4  A    between atoms: S_21  and  N_24
REMARK                            x       y       z     vdW  Elec       q    Type
REMARK                         _______ _______ _______ _____ _____    ______ ____
ROOT
ATOM      1  C   UNL     1       4.286   3.055  -0.020  0.00  0.00    +0.034 A 
ATOM      2  C   UNL     1       3.663   2.679  -1.204  0.00  0.00    +0.025 A 
ATOM      3  C   UNL     1       2.348   2.259  -1.187  0.00  0.00    +0.030 A 
ATOM      4  C   UNL     1       1.651   2.211   0.006  0.00  0.00    +0.109 A 
ATOM      5  C   UNL     1       2.265   2.589   1.185  0.00  0.00    +0.030 A 
ATOM      6  C   UNL     1       3.582   3.006   1.177  0.00  0.00    +0.025 A 
ENDROOT
BRANCH   1   9
ATOM      7  C   UNL     1       6.420   3.215   1.016  0.00  0.00    +0.284 C 
ATOM      8  O   UNL     1       6.016   2.522   1.931  0.00  0.00    -0.266 OA
ATOM      9  N   UNL     1       5.617   3.481  -0.033  0.00  0.00    -0.279 N 
ATOM     10  H   UNL     1       5.963   3.969  -0.797  0.00  0.00    +0.155 HD
BRANCH   7  18
ATOM     11  C   UNL     1      12.063   4.296   3.231  0.00  0.00    +0.001 A 
ATOM     12  C   UNL     1      12.494   5.082   2.171  0.00  0.00    +0.001 A 
ATOM     13  C   UNL     1      11.661   5.346   1.104  0.00  0.00    +0.015 A 
ATOM     14  C   UNL     1      10.373   4.818   1.092  0.00  0.00    +0.067 A 
ATOM     15  C   UNL     1       9.933   4.016   2.171  0.00  0.00    -0.007 A 
ATOM     16  C   UNL     1      10.792   3.761   3.239  0.00  0.00    +0.009 A 
ATOM     17  C   UNL     1       8.572   3.478   2.122  0.00  0.00    +0.060 A 
ATOM     18  C   UNL     1       7.787   3.762   1.055  0.00  0.00    +0.194 A 
ATOM     19  O   UNL     1       8.210   4.521   0.026  0.00  0.00    -0.417 OA
ATOM     20  C   UNL     1       9.439   5.064  -0.017  0.00  0.00    +0.345 A 
ATOM     21  O   UNL     1       9.777   5.747  -0.964  0.00  0.00    -0.245 OA
ENDBRANCH   7  18
ENDBRANCH   1   9
BRANCH   4  22
ATOM     22  S   UNL     1      -0.027   1.673   0.022  0.00  0.00    +0.074 S 
ATOM     23  O   UNL     1      -0.539   1.900  -1.284  0.00  0.00    -0.150 OA
ATOM     24  O   UNL     1      -0.623   2.237   1.182  0.00  0.00    -0.150 OA
BRANCH  22  25
ATOM     25  N   UNL     1      -0.014   0.033   0.247  0.00  0.00    -0.194 N 
ATOM     26  C   UNL     1       0.462  -0.500   1.435  0.00  0.00    +0.177 A 
ATOM     27  N   UNL     1       0.946   0.128   2.490  0.00  0.00    -0.232 NA
ATOM     28  C   UNL     1       1.357  -0.539   3.553  0.00  0.00    +0.120 A 
ATOM     29  C   UNL     1       1.282  -1.891   3.535  0.00  0.00    +0.068 A 
ATOM     30  S   UNL     1       0.582  -2.165   1.914  0.00  0.00    -0.059 S 
ATOM     31  H   UNL     1      -0.339  -0.556  -0.452  0.00  0.00    +0.176 HD
ENDBRANCH  22  25
ENDBRANCH   4  22
TORSDOF 4
