REMARK  Name = ZINC40216705
REMARK  8 active torsions:
REMARK  status: ('A' for Active; 'I' for Inactive)
REMARK    1  A    between atoms: C_1  and  C_2
REMARK    2  A    between atoms: C_2  and  C_3
REMARK    3  A    between atoms: C_3  and  C_4
REMARK    4  A    between atoms: C_4  and  N_5
REMARK    5  A    between atoms: N_5  and  C_6
REMARK    6  A    between atoms: C_8  and  C_23
REMARK    7  A    between atoms: C_13  and  C_16
REMARK    8  A    between atoms: C_14  and  C_15
REMARK                            x       y       z     vdW  Elec       q    Type
REMARK                         _______ _______ _______ _____ _____    ______ ____
ROOT
ATOM      1  C   UNL     1       1.443  -3.847  -2.776  0.00  0.00    +0.124 A 
ATOM      2  C   UNL     1       1.011  -4.746  -1.838  0.00  0.00    +0.066 A 
ATOM      3  C   UNL     1       1.301  -6.100  -2.005  0.00  0.00    +0.044 A 
ATOM      4  N   UNL     1       1.981  -6.511  -3.052  0.00  0.00    -0.233 NA
ATOM      5  C   UNL     1       2.412  -5.643  -3.981  0.00  0.00    +0.161 A 
ATOM      6  N   UNL     1       2.146  -4.303  -3.859  0.00  0.00    -0.200 N 
ATOM      7  N   UNL     1       2.704  -3.652  -4.964  0.00  0.00    -0.163 NA
ATOM      8  C   UNL     1       3.287  -4.550  -5.738  0.00  0.00    +0.098 A 
ATOM      9  C   UNL     1       3.133  -5.811  -5.153  0.00  0.00    +0.021 A 
ATOM     10  C   UNL     1       3.644  -7.117  -5.704  0.00  0.00    +0.050 C 
ATOM     11  C   UNL     1       0.831  -7.098  -0.979  0.00  0.00    +0.066 C 
ENDROOT
BRANCH   8  12
ATOM     12  C   UNL     1       3.996  -4.268  -7.011  0.00  0.00    +0.004 A 
ATOM     13  C   UNL     1       3.832  -5.114  -8.105  0.00  0.00    +0.010 A 
ATOM     14  C   UNL     1       4.493  -4.847  -9.287  0.00  0.00    +0.002 A 
ATOM     15  C   UNL     1       5.318  -3.741  -9.386  0.00  0.00    +0.020 A 
ATOM     16  C   UNL     1       5.485  -2.897  -8.302  0.00  0.00    +0.042 A 
ATOM     17  C   UNL     1       4.823  -3.152  -7.117  0.00  0.00    +0.030 A 
ATOM     18 CL   UNL     1       6.522  -1.511  -8.435  0.00  0.00    -0.084 Cl
ENDBRANCH   8  12
BRANCH   1  19
ATOM     19  N   UNL     1       1.170  -2.503  -2.635  0.00  0.00    -0.329 N 
ATOM     20  H   UNL     1       1.476  -1.873  -3.305  0.00  0.00    +0.147 HD
BRANCH  19  21
ATOM     21  C   UNL     1       0.418  -2.027  -1.471  0.00  0.00    +0.103 C 
BRANCH  21  22
ATOM     22  C   UNL     1       0.253  -0.508  -1.557  0.00  0.00    +0.018 C 
BRANCH  22  24
ATOM     23  C   UNL     1      -0.697   1.508  -0.427  0.00  0.00    +0.004 C 
ATOM     24  C   UNL     1      -0.532  -0.011  -0.342  0.00  0.00    -0.002 C 
ENDBRANCH  22  24
ENDBRANCH  21  22
ENDBRANCH  19  21
ENDBRANCH   1  19
TORSDOF 5
