REMARK  Name = ZINC09085872
REMARK  13 active torsions:
REMARK  status: ('A' for Active; 'I' for Inactive)
REMARK    1  A    between atoms: C_1  and  C_2
REMARK    2  A    between atoms: C_5  and  S_8
REMARK    3  A    between atoms: S_8  and  C_9
REMARK    4  A    between atoms: C_9  and  C_10
REMARK    5  A    between atoms: C_17  and  N_35
REMARK    6  A    between atoms: C_18  and  C_33
REMARK    7  A    between atoms: C_19  and  C_21
REMARK    8  A    between atoms: C_24  and  O_31
REMARK    9  A    between atoms: C_25  and  O_29
REMARK   10  A    between atoms: C_26  and  O_27
REMARK   11  A    between atoms: O_27  and  C_28
REMARK   12  A    between atoms: O_29  and  C_30
REMARK   13  A    between atoms: O_31  and  C_32
REMARK                            x       y       z     vdW  Elec       q    Type
REMARK                         _______ _______ _______ _____ _____    ______ ____
ROOT
ATOM      1  C   UNL     1       0.097  -6.482   1.870  0.00  0.00    +0.081 A 
ATOM      2  C   UNL     1      -1.016  -7.309   1.944  0.00  0.00    +0.050 A 
ATOM      3  C   UNL     1      -0.579  -8.599   2.060  0.00  0.00    +0.223 A 
ATOM      4  N   UNL     1       0.764  -8.573   2.060  0.00  0.00    -0.246 N 
ATOM      5  H   UNL     1       1.350  -9.343   2.131  0.00  0.00    +0.192 HD
ATOM      6  N   UNL     1       1.169  -7.235   1.933  0.00  0.00    -0.175 NA
ATOM      7  O   UNL     1      -1.426  -9.654   2.151  0.00  0.00    -0.423 OA
ATOM      8  C   UNL     1      -2.723  -9.441   1.850  0.00  0.00    +0.200 C 
ATOM      9  C   UNL     1      -3.274  -8.214   1.722  0.00  0.00    +0.098 C 
ATOM     10  C   UNL     1      -2.478  -6.946   1.911  0.00  0.00    +0.105 C 
ENDROOT
BRANCH  10  11
ATOM     11  C   UNL     1      -2.869  -6.289   3.209  0.00  0.00    +0.011 A 
ATOM     12  C   UNL     1      -2.720  -6.973   4.401  0.00  0.00    +0.012 A 
ATOM     13  C   UNL     1      -3.076  -6.375   5.595  0.00  0.00    +0.050 A 
ATOM     14  C   UNL     1      -3.586  -5.085   5.602  0.00  0.00    +0.165 A 
ATOM     15  C   UNL     1      -3.736  -4.394   4.406  0.00  0.00    +0.204 A 
ATOM     16  C   UNL     1      -3.372  -4.997   3.208  0.00  0.00    +0.169 A 
BRANCH  16  17
ATOM     17  O   UNL     1      -3.513  -4.322   2.035  0.00  0.00    -0.491 OA
ATOM     18  C   UNL     1      -4.761  -4.460   1.353  0.00  0.00    +0.277 C 
ENDBRANCH  16  17
BRANCH  15  19
ATOM     19  O   UNL     1      -4.236  -3.128   4.408  0.00  0.00    -0.488 OA
ATOM     20  C   UNL     1      -3.294  -2.059   4.529  0.00  0.00    +0.277 C 
ENDBRANCH  15  19
BRANCH  14  21
ATOM     21  O   UNL     1      -3.937  -4.498   6.777  0.00  0.00    -0.491 OA
ATOM     22  C   UNL     1      -3.755  -5.268   7.967  0.00  0.00    +0.277 C 
ENDBRANCH  14  21
ENDBRANCH  10  11
BRANCH   8  23
ATOM     23  N   UNL     1      -3.531 -10.535   1.664  0.00  0.00    -0.328 N 
ATOM     24  H   UNL     1      -3.164 -11.429   1.749  0.00  0.00    +0.145 HD
ATOM     25  H   UNL     1      -4.469 -10.414   1.446  0.00  0.00    +0.145 HD
ENDBRANCH   8  23
BRANCH   9  26
ATOM     26  C   UNL     1      -4.664  -8.113   1.394  0.00  0.00    +0.101 C 
ATOM     27  N   UNL     1      -5.767  -8.033   1.135  0.00  0.00    -0.191 NA
ENDBRANCH   9  26
BRANCH   1  28
ATOM     28  C   UNL     1       0.077  -4.981   1.735  0.00  0.00    +0.132 C 
BRANCH  28  29
ATOM     29  S   UNL     1       0.062  -4.533  -0.023  0.00  0.00    -0.119 S 
BRANCH  29  34
ATOM     30  C   UNL     1      -0.018   1.503   0.010  0.00  0.00    +0.044 C 
ATOM     31  C   UNL     1       0.002  -0.004   0.002  0.00  0.00    -0.050 A 
ATOM     32  C   UNL     1       0.006  -0.687  -1.200  0.00  0.00    +0.004 A 
ATOM     33  C   UNL     1       0.024  -2.068  -1.212  0.00  0.00    +0.015 A 
ATOM     34  C   UNL     1       0.039  -2.771  -0.013  0.00  0.00    +0.008 A 
ATOM     35  C   UNL     1       0.036  -2.081   1.193  0.00  0.00    +0.015 A 
ATOM     36  C   UNL     1       0.023  -0.700   1.197  0.00  0.00    +0.004 A 
ENDBRANCH  29  34
ENDBRANCH  28  29
ENDBRANCH   1  28
TORSDOF 9
