REMARK  Name = ZINC42869895
REMARK  8 active torsions:
REMARK  status: ('A' for Active; 'I' for Inactive)
REMARK    1  A    between atoms: C_1  and  C_2
REMARK    2  A    between atoms: C_8  and  C_10
REMARK    3  A    between atoms: C_10  and  N_11
REMARK    4  A    between atoms: N_11  and  S_12
REMARK    5  A    between atoms: S_12  and  C_15
REMARK    6  A    between atoms: C_18  and  C_20
REMARK    7  A    between atoms: C_20  and  C_21
REMARK    8  A    between atoms: C_21  and  N_22
REMARK                            x       y       z     vdW  Elec       q    Type
REMARK                         _______ _______ _______ _____ _____    ______ ____
ROOT
ATOM      1  S   UNL     1       4.498  -0.262   2.591  0.00  0.00    +0.065 S 
ATOM      2  O   UNL     1       4.839  -0.674   3.908  0.00  0.00    -0.153 OA
ATOM      3  O   UNL     1       5.028  -0.893   1.434  0.00  0.00    -0.153 OA
ENDROOT
BRANCH   1   4
ATOM      4  C   UNL     1       4.921   1.444   2.472  0.00  0.00    +0.143 A 
ATOM      5  C   UNL     1       5.052   2.362   3.461  0.00  0.00    +0.036 A 
ATOM      6  C   UNL     1       5.396   3.660   3.130  0.00  0.00    +0.013 A 
ATOM      7  C   UNL     1       5.594   3.975   1.827  0.00  0.00    -0.010 A 
ATOM      8  S   UNL     1       5.298   2.411   1.019  0.00  0.00    -0.074 S 
BRANCH   7   9
ATOM      9  C   UNL     1       5.972   5.301   1.218  0.00  0.00    +0.023 C 
BRANCH   9  10
ATOM     10  C   UNL     1       7.496   5.412   1.142  0.00  0.00    -0.081 C 
BRANCH  10  11
ATOM     11  N   UNL     1       7.864   6.704   0.548  0.00  0.00    +0.378 N 
ATOM     12  H   UNL     1       7.475   6.771  -0.380  0.00  0.00    -0.090 HD
ATOM     13  H   UNL     1       7.500   7.452   1.119  0.00  0.00    -0.090 HD
ATOM     14  H   UNL     1       8.869   6.777   0.498  0.00  0.00    -0.090 HD
ENDBRANCH  10  11
ENDBRANCH   9  10
ENDBRANCH   7   9
ENDBRANCH   1   4
BRANCH   1  15
ATOM     15  N   UNL     1       2.849  -0.367   2.474  0.00  0.00    -0.189 NA
ATOM     16  H   UNL     1       2.329  -0.683   3.229  0.00  0.00    +0.148 HD
BRANCH  15  17
ATOM     17  C   UNL     1       2.178   0.019   1.231  0.00  0.00    +0.109 C 
BRANCH  17  24
ATOM     18  C   UNL     1      -0.019   1.526   0.010  0.00  0.00    +0.008 C 
ATOM     19  C   UNL     1       0.002  -0.004   0.002  0.00  0.00    -0.010 C 
ATOM     20  C   UNL     1      -1.433  -0.534   0.013  0.00  0.00    +0.003 C 
ATOM     21  C   UNL     1      -1.413  -2.063   0.004  0.00  0.00    +0.000 C 
ATOM     22  C   UNL     1      -0.673  -2.570   1.244  0.00  0.00    +0.000 C 
ATOM     23  C   UNL     1       0.763  -2.041   1.233  0.00  0.00    +0.005 C 
ATOM     24  C   UNL     1       0.742  -0.511   1.242  0.00  0.00    +0.007 C 
ENDBRANCH  17  24
ENDBRANCH  15  17
ENDBRANCH   1  15
TORSDOF 7
