REMARK  Name = ZINC07057269
REMARK  7 active torsions:
REMARK  status: ('A' for Active; 'I' for Inactive)
REMARK    1  A    between atoms: C_1  and  C_2
REMARK    2  A    between atoms: C_5  and  C_28
REMARK    3  A    between atoms: C_10  and  C_12
REMARK    4  A    between atoms: C_12  and  C_14
REMARK    5  A    between atoms: C_12  and  O_15
REMARK    6  A    between atoms: O_15  and  C_16
REMARK    7  A    between atoms: C_16  and  C_18
REMARK                            x       y       z     vdW  Elec       q    Type
REMARK                         _______ _______ _______ _____ _____    ______ ____
ROOT
ATOM      1  C   UNL     1       5.303  -2.771   0.914  0.00  0.00    +0.340 C 
ATOM      2  O   UNL     1       5.474  -1.657   0.458  0.00  0.00    -0.245 OA
ENDROOT
BRANCH   1   3
ATOM      3  C   UNL     1       6.392  -3.761   0.869  0.00  0.00    +0.060 A 
ATOM      4  C   UNL     1       6.204  -5.050   1.387  0.00  0.00    +0.017 A 
ATOM      5  C   UNL     1       7.194  -5.976   1.357  0.00  0.00    +0.030 A 
ATOM      6  C   UNL     1       8.461  -5.675   0.797  0.00  0.00    +0.080 A 
ATOM      7  C   UNL     1       8.626  -4.366   0.281  0.00  0.00    +0.042 A 
ATOM      8  C   UNL     1       7.630  -3.431   0.304  0.00  0.00    +0.032 A 
ATOM      9  S   UNL     1      10.303  -4.400  -0.307  0.00  0.00    -0.053 S 
ATOM     10  C   UNL     1      10.667  -6.089   0.153  0.00  0.00    +0.157 A 
ATOM     11  N   UNL     1       9.534  -6.482   0.696  0.00  0.00    -0.225 NA
ATOM     12  N   UNL     1      11.835  -6.798  -0.018  0.00  0.00    -0.337 N 
ATOM     13  H   UNL     1      12.601  -6.378  -0.440  0.00  0.00    +0.144 HD
ATOM     14  H   UNL     1      11.893  -7.718   0.283  0.00  0.00    +0.144 HD
ENDBRANCH   1   3
BRANCH   1  15
ATOM     15  O   UNL     1       4.115  -3.099   1.460  0.00  0.00    -0.449 OA
BRANCH  15  16
ATOM     16  C   UNL     1       3.103  -2.090   1.470  0.00  0.00    +0.259 C 
ATOM     17  C   UNL     1       3.209  -1.274   2.760  0.00  0.00    +0.062 C 
BRANCH  16  25
ATOM     18  C   UNL     1      -0.019   1.526   0.010  0.00  0.00    +0.009 C 
ATOM     19  C   UNL     1       0.002  -0.004   0.002  0.00  0.00    +0.004 C 
ATOM     20  C   UNL     1      -1.433  -0.534   0.015  0.00  0.00    +0.009 C 
ATOM     21  C   UNL     1      -1.414  -2.064  -0.027  0.00  0.00    +0.004 C 
ATOM     22  C   UNL     1      -0.692  -2.596   1.215  0.00  0.00    +0.111 C 
ATOM     23  N   UNL     1       0.639  -1.977   1.288  0.00  0.00    -0.298 N 
ATOM     24  C   UNL     1       0.742  -0.512   1.244  0.00  0.00    +0.111 C 
ATOM     25  C   UNL     1       1.746  -2.740   1.395  0.00  0.00    +0.256 C 
ATOM     26  O   UNL     1       1.648  -3.948   1.431  0.00  0.00    -0.272 OA
ATOM     27  C   UNL     1      -2.850  -2.592  -0.049  0.00  0.00    +0.009 C 
ENDBRANCH  16  25
ENDBRANCH  15  16
ENDBRANCH   1  15
TORSDOF 4
