REMARK  Name = ZINC36133343
REMARK  5 active torsions:
REMARK  status: ('A' for Active; 'I' for Inactive)
REMARK    1  A    between atoms: C_2  and  S_10
REMARK    2  A    between atoms: C_5  and  C_6
REMARK    3  A    between atoms: S_10  and  N_13
REMARK    4  A    between atoms: C_18  and  C_20
REMARK    5  A    between atoms: C_20  and  O_21
REMARK                            x       y       z     vdW  Elec       q    Type
REMARK                         _______ _______ _______ _____ _____    ______ ____
ROOT
ATOM      1  S   UNL     1       1.382   4.247   0.393  0.00  0.00    +0.063 S 
ATOM      2  O   UNL     1       0.067   4.333   0.924  0.00  0.00    -0.153 OA
ATOM      3  O   UNL     1       1.801   3.169  -0.432  0.00  0.00    -0.153 OA
ENDROOT
BRANCH   1   5
ATOM      4  C   UNL     1       2.133   5.662  -1.813  0.00  0.00    +0.052 A 
ATOM      5  C   UNL     1       1.649   5.723  -0.531  0.00  0.00    +0.127 A 
ATOM      6  C   UNL     1       1.378   6.937   0.015  0.00  0.00    +0.082 A 
ATOM      7  S   UNL     1       1.773   8.033  -1.196  0.00  0.00    -0.073 S 
ATOM      8  C   UNL     1       2.306   6.885  -2.452  0.00  0.00    +0.103 A 
ATOM      9 BR   UNL     1       0.709   7.309   1.745  0.00  0.00    -0.041 Br
BRANCH   8  10
ATOM     10  C   UNL     1       2.782   7.150  -3.759  0.00  0.00    +0.393 C 
ATOM     11  O   UNL     1       3.108   6.224  -4.492  0.00  0.00    -0.240 OA
ATOM     12  O   UNL     1       2.869   8.306  -4.157  0.00  0.00    -0.240 OA
ENDBRANCH   8  10
ENDBRANCH   1   5
BRANCH   1  13
ATOM     13  N   UNL     1       2.417   4.285   1.685  0.00  0.00    -0.171 NA
ATOM     14  C   UNL     1       1.902   4.427   3.054  0.00  0.00    +0.110 C 
ATOM     15  C   UNL     1       2.459   3.287   3.912  0.00  0.00    +0.017 C 
ATOM     16  C   UNL     1       3.986   3.279   3.813  0.00  0.00    +0.003 C 
ATOM     17  C   UNL     1       4.404   3.039   2.360  0.00  0.00    +0.023 C 
ATOM     18  C   UNL     1       3.868   4.170   1.485  0.00  0.00    +0.105 C 
BRANCH  18  19
ATOM     19  C   UNL     1       4.161   3.862   0.016  0.00  0.00    +0.176 C 
BRANCH  19  20
ATOM     20  O   UNL     1       3.812   2.505  -0.265  0.00  0.00    -0.393 OA
ATOM     21  H   UNL     1       4.058   2.211  -1.153  0.00  0.00    +0.209 HD
ENDBRANCH  19  20
ENDBRANCH  18  19
ENDBRANCH   1  13
TORSDOF 5
