REMARK  Name = ZINC53735037
REMARK  5 active torsions:
REMARK  status: ('A' for Active; 'I' for Inactive)
REMARK    1  A    between atoms: C_1  and  C_2
REMARK    2  A    between atoms: C_5  and  N_16
REMARK    3  A    between atoms: C_7  and  N_8
REMARK    4  A    between atoms: C_12  and  C_14
REMARK    5  A    between atoms: C_14  and  O_15
REMARK                            x       y       z     vdW  Elec       q    Type
REMARK                         _______ _______ _______ _____ _____    ______ ____
ROOT
ATOM      1  C   UNL     1      -0.018   1.503   0.010  0.00  0.00    +0.045 C 
ATOM      2  C   UNL     1       0.002  -0.004   0.002  0.00  0.00    -0.029 A 
ATOM      3  C   UNL     1       0.006  -0.689  -1.198  0.00  0.00    +0.007 A 
ATOM      4  C   UNL     1       0.025  -2.071  -1.206  0.00  0.00    +0.033 A 
ATOM      5  C   UNL     1       0.040  -2.773  -0.014  0.00  0.00    +0.128 A 
ATOM      6  C   UNL     1       0.036  -2.095   1.188  0.00  0.00    +0.056 A 
ATOM      7  C   UNL     1       0.023  -0.706   1.200  0.00  0.00    +0.035 A 
ENDROOT
BRANCH   7   8
ATOM      8  N   UNL     1       0.025  -0.016   2.415  0.00  0.00    -0.324 N 
ATOM      9  C   UNL     1      -1.171   0.386   3.177  0.00  0.00    +0.105 C 
ATOM     10  C   UNL     1      -0.682   0.524   4.640  0.00  0.00    +0.021 C 
ATOM     11  C   UNL     1       0.737   1.117   4.439  0.00  0.00    +0.026 C 
ATOM     12  C   UNL     1       1.221   0.423   3.149  0.00  0.00    +0.099 C 
BRANCH  12  13
ATOM     13  C   UNL     1       2.020   1.411   2.298  0.00  0.00    +0.178 C 
BRANCH  13  14
ATOM     14  O   UNL     1       1.250   2.598   2.095  0.00  0.00    -0.393 OA
ATOM     15  H   UNL     1       1.695   3.270   1.562  0.00  0.00    +0.209 HD
ENDBRANCH  13  14
ENDBRANCH  12  13
ENDBRANCH   7   8
BRANCH   5  16
ATOM     16  N   UNL     1       0.059  -4.253  -0.028  0.00  0.00    +0.056 N 
ATOM     17  O   UNL     1       0.062  -4.848  -1.081  0.00  0.00    -0.126 OA
ATOM     18  O   UNL     1       0.072  -4.867   1.013  0.00  0.00    -0.126 OA
ENDBRANCH   5  16
TORSDOF 4
