REMARK  Name = ZINC38613012
REMARK  10 active torsions:
REMARK  status: ('A' for Active; 'I' for Inactive)
REMARK    1  A    between atoms: C_1  and  C_2
REMARK    2  A    between atoms: C_4  and  C_16
REMARK    3  A    between atoms: C_6  and  C_15
REMARK    4  A    between atoms: N_8  and  C_9
REMARK    5  A    between atoms: N_17  and  N_18
REMARK    6  A    between atoms: C_19  and  C_21
REMARK    7  A    between atoms: C_24  and  C_27
REMARK    8  A    between atoms: C_30  and  O_33
REMARK    9  A    between atoms: O_33  and  C_34
REMARK   10  A    between atoms: C_34  and  C_35
REMARK                            x       y       z     vdW  Elec       q    Type
REMARK                         _______ _______ _______ _____ _____    ______ ____
ROOT
ATOM      1  C   UNL     1      -6.200   2.927  -1.674  0.00  0.00    +0.240 C 
ATOM      2  C   UNL     1      -7.352   2.573  -0.750  0.00  0.00    +0.041 C 
ATOM      3  C   UNL     1      -8.428   2.576  -1.560  0.00  0.00    +0.092 C 
ATOM      4  N   UNL     1      -8.063   2.885  -2.832  0.00  0.00    -0.153 NA
ATOM      5  N   UNL     1      -6.854   3.095  -2.983  0.00  0.00    -0.170 NA
ENDROOT
BRANCH   3   6
ATOM      6  C   UNL     1      -9.816   2.285  -1.125  0.00  0.00    +0.002 A 
ATOM      7  C   UNL     1     -10.080   1.985   0.211  0.00  0.00    +0.013 A 
ATOM      8  C   UNL     1     -11.371   1.715   0.613  0.00  0.00    +0.046 A 
ATOM      9  C   UNL     1     -12.408   1.741  -0.311  0.00  0.00    +0.121 A 
ATOM     10  C   UNL     1     -12.147   2.040  -1.642  0.00  0.00    +0.046 A 
ATOM     11  C   UNL     1     -10.859   2.316  -2.049  0.00  0.00    +0.013 A 
BRANCH   9  12
ATOM     12  O   UNL     1     -13.679   1.474   0.088  0.00  0.00    -0.487 OA
BRANCH  12  13
ATOM     13  C   UNL     1     -14.696   1.518  -0.915  0.00  0.00    +0.264 C 
BRANCH  13  14
ATOM     14  C   UNL     1     -16.030   1.198  -0.291  0.00  0.00    -0.010 A 
ATOM     15  C   UNL     1     -16.466  -0.113  -0.228  0.00  0.00    +0.008 A 
ATOM     16  C   UNL     1     -17.689  -0.408   0.344  0.00  0.00    +0.020 A 
ATOM     17  C   UNL     1     -18.477   0.609   0.853  0.00  0.00    +0.041 A 
ATOM     18  C   UNL     1     -18.041   1.920   0.789  0.00  0.00    +0.020 A 
ATOM     19  C   UNL     1     -16.815   2.213   0.222  0.00  0.00    +0.008 A 
ATOM     20 CL   UNL     1     -20.014   0.240   1.571  0.00  0.00    -0.084 Cl
ENDBRANCH  13  14
ENDBRANCH  12  13
ENDBRANCH   9  12
ENDBRANCH   3   6
BRANCH   1  22
ATOM     21  N   UNL     1      -4.261   1.697  -0.755  0.00  0.00    -0.205 N 
ATOM     22  C   UNL     1      -5.193   1.808  -1.723  0.00  0.00    +0.263 C 
ATOM     23  O   UNL     1      -5.220   1.006  -2.632  0.00  0.00    -0.271 OA
ATOM     24  H   UNL     1      -4.239   2.339  -0.028  0.00  0.00    +0.177 HD
BRANCH  21  26
ATOM     25  C   UNL     1      -2.439   0.552   0.119  0.00  0.00    +0.114 C 
ATOM     26  N   UNL     1      -3.324   0.656  -0.800  0.00  0.00    -0.192 NA
BRANCH  25  29
ATOM     27  C   UNL     1      -0.019   1.526   0.010  0.00  0.00    +0.031 C 
ATOM     28  C   UNL     1       0.002  -0.004   0.002  0.00  0.00    +0.109 C 
ATOM     29  C   UNL     1      -1.432  -0.568   0.070  0.00  0.00    +0.099 C 
ATOM     30  C   UNL     1      -1.448  -1.357   1.360  0.00  0.00    +0.044 C 
ATOM     31  N   UNL     1      -0.311  -1.284   1.922  0.00  0.00    -0.188 NA
ATOM     32  N   UNL     1       0.631  -0.522   1.228  0.00  0.00    -0.221 N 
ATOM     33  C   UNL     1      -2.634  -2.115   1.898  0.00  0.00    +0.063 C 
BRANCH  32  34
ATOM     34  C   UNL     1       1.948  -0.288   1.628  0.00  0.00    +0.052 A 
ATOM     35  C   UNL     1       2.785   0.499   0.846  0.00  0.00    +0.025 A 
ATOM     36  C   UNL     1       4.087   0.728   1.244  0.00  0.00    +0.002 A 
ATOM     37  C   UNL     1       4.559   0.176   2.421  0.00  0.00    +0.000 A 
ATOM     38  C   UNL     1       3.729  -0.608   3.203  0.00  0.00    +0.002 A 
ATOM     39  C   UNL     1       2.424  -0.836   2.813  0.00  0.00    +0.025 A 
ENDBRANCH  32  34
ENDBRANCH  25  29
ENDBRANCH  21  26
ENDBRANCH   1  22
TORSDOF 8
