REMARK  Name = ZINC28724705
REMARK  9 active torsions:
REMARK  status: ('A' for Active; 'I' for Inactive)
REMARK    1  A    between atoms: C_1  and  C_2
REMARK    2  A    between atoms: C_3  and  C_19
REMARK    3  A    between atoms: C_4  and  C_10
REMARK    4  A    between atoms: C_13  and  O_17
REMARK    5  A    between atoms: O_17  and  C_18
REMARK    6  A    between atoms: C_19  and  O_21
REMARK    7  A    between atoms: O_21  and  C_22
REMARK    8  A    between atoms: C_22  and  C_23
REMARK    9  A    between atoms: C_22  and  C_24
REMARK                            x       y       z     vdW  Elec       q    Type
REMARK                         _______ _______ _______ _____ _____    ______ ____
ROOT
ATOM      1  C   UNL     1      -4.811   4.034   3.119  0.00  0.00    +0.061 C 
ATOM      2  C   UNL     1      -4.278   4.095   1.711  0.00  0.00    +0.019 C 
ATOM      3  C   UNL     1      -3.195   4.856   1.443  0.00  0.00    +0.078 C 
ATOM      4  C   UNL     1      -2.692   4.889   0.014  0.00  0.00    +0.141 C 
ATOM      5  N   UNL     1      -3.431   4.082  -0.971  0.00  0.00    -0.315 N 
ATOM      6  C   UNL     1      -4.496   3.372  -0.550  0.00  0.00    +0.135 C 
ATOM      7  S   UNL     1      -5.365   2.430  -1.685  0.00  0.00    -0.019 S 
ATOM      8  N   UNL     1      -4.897   3.380   0.728  0.00  0.00    -0.300 N 
ATOM      9  H   UNL     1      -3.110   4.069  -2.023  0.00  0.00    +0.149 HD
ATOM     10  H   UNL     1      -5.778   2.765   0.966  0.00  0.00    +0.154 HD
ENDROOT
BRANCH   4  11
ATOM     11  C   UNL     1      -1.259   4.423   0.015  0.00  0.00    -0.021 A 
ATOM     12  C   UNL     1      -0.232   5.349  -0.038  0.00  0.00    +0.009 A 
ATOM     13  C   UNL     1       1.083   4.925  -0.037  0.00  0.00    +0.047 A 
ATOM     14  C   UNL     1       1.373   3.570   0.018  0.00  0.00    +0.134 A 
ATOM     15  C   UNL     1       0.342   2.643   0.071  0.00  0.00    +0.060 A 
ATOM     16  C   UNL     1      -0.972   3.072   0.064  0.00  0.00    +0.024 A 
ATOM     17 BR   UNL     1       0.733   0.794   0.144  0.00  0.00    -0.047 Br
BRANCH  14  18
ATOM     18  O   UNL     1       2.666   3.150   0.019  0.00  0.00    -0.494 OA
ATOM     19  C   UNL     1       3.676   4.160  -0.037  0.00  0.00    +0.277 C 
ENDBRANCH  14  18
ENDBRANCH   4  11
BRANCH   3  20
ATOM     20  C   UNL     1      -2.552   5.598   2.462  0.00  0.00    +0.339 C 
ATOM     21  O   UNL     1      -3.038   5.648   3.576  0.00  0.00    -0.245 OA
BRANCH  20  22
ATOM     22  O   UNL     1      -1.401   6.250   2.197  0.00  0.00    -0.459 OA
BRANCH  22  23
ATOM     23  C   UNL     1      -0.806   6.980   3.273  0.00  0.00    +0.171 C 
ATOM     24  C   UNL     1       0.713   7.007   3.093  0.00  0.00    +0.052 C 
ATOM     25  C   UNL     1      -1.345   8.412   3.277  0.00  0.00    +0.052 C 
ENDBRANCH  22  23
ENDBRANCH  20  22
ENDBRANCH   3  20
TORSDOF 5
