REMARK  Name = ZINC20331609
REMARK  9 active torsions:
REMARK  status: ('A' for Active; 'I' for Inactive)
REMARK    1  A    between atoms: C_1  and  C_2
REMARK    2  A    between atoms: C_5  and  C_34
REMARK    3  A    between atoms: C_10  and  C_12
REMARK    4  A    between atoms: C_12  and  C_13
REMARK    5  A    between atoms: C_13  and  C_14
REMARK    6  A    between atoms: C_14  and  C_15
REMARK    7  A    between atoms: C_15  and  N_16
REMARK    8  A    between atoms: C_23  and  O_29
REMARK    9  A    between atoms: O_29  and  C_30
REMARK                            x       y       z     vdW  Elec       q    Type
REMARK                         _______ _______ _______ _____ _____    ______ ____
ROOT
ATOM      1  N   UNL     1       0.002  -0.004   0.002  0.00  0.00    -0.287 N 
ATOM      2  C   UNL     1       1.166  -0.684  -0.013  0.00  0.00    +0.279 A 
ATOM      3  O   UNL     1       1.165  -1.902  -0.020  0.00  0.00    -0.265 OA
ATOM      4  C   UNL     1       2.391   0.032  -0.021  0.00  0.00    +0.129 A 
ATOM      5  C   UNL     1       2.349   1.414  -0.013  0.00  0.00    +0.079 A 
ATOM      6  C   UNL     1       3.735   1.880  -0.024  0.00  0.00    +0.027 A 
ATOM      7  C   UNL     1       4.327   3.147  -0.022  0.00  0.00    +0.057 A 
ATOM      8  C   UNL     1       5.701   3.260  -0.035  0.00  0.00    +0.121 A 
ATOM      9  C   UNL     1       6.499   2.118  -0.049  0.00  0.00    +0.047 A 
ATOM     10  C   UNL     1       5.929   0.865  -0.050  0.00  0.00    +0.030 A 
ATOM     11  C   UNL     1       4.544   0.728  -0.037  0.00  0.00    +0.049 A 
ATOM     12  N   UNL     1       3.715  -0.374  -0.035  0.00  0.00    -0.349 N 
ATOM     13  H   UNL     1       3.962  -1.446  -0.043  0.00  0.00    +0.166 HD
ATOM     14  N   UNL     1       1.124   2.057   0.002  0.00  0.00    -0.333 N 
ATOM     15  C   UNL     1      -0.016   1.340   0.009  0.00  0.00    +0.161 A 
ATOM     16  S   UNL     1      -1.520   2.158   0.021  0.00  0.00    -0.013 S 
ATOM     17  H   UNL     1       1.080   3.156   0.009  0.00  0.00    +0.168 HD
ENDROOT
BRANCH   8  18
ATOM     18  O   UNL     1       6.280   4.490  -0.034  0.00  0.00    -0.495 OA
ATOM     19  C   UNL     1       7.708   4.535  -0.047  0.00  0.00    +0.277 C 
ENDBRANCH   8  18
BRANCH   1  20
ATOM     20  C   UNL     1      -1.264  -0.742   0.010  0.00  0.00    +0.127 C 
BRANCH  20  21
ATOM     21  C   UNL     1      -1.717  -0.991  -1.430  0.00  0.00    +0.022 C 
BRANCH  21  22
ATOM     22  C   UNL     1      -3.039  -1.761  -1.422  0.00  0.00    +0.011 C 
BRANCH  22  23
ATOM     23  C   UNL     1      -3.493  -2.010  -2.862  0.00  0.00    +0.096 C 
BRANCH  23  31
ATOM     24  C   UNL     1      -4.128  -3.606  -7.553  0.00  0.00    +0.009 C 
ATOM     25  C   UNL     1      -4.636  -3.992  -6.162  0.00  0.00    +0.004 C 
ATOM     26  C   UNL     1      -6.000  -4.674  -6.288  0.00  0.00    +0.009 C 
ATOM     27  C   UNL     1      -6.495  -5.090  -4.901  0.00  0.00    +0.004 C 
ATOM     28  C   UNL     1      -6.657  -3.842  -4.026  0.00  0.00    +0.111 C 
ATOM     29  N   UNL     1      -5.388  -3.103  -4.018  0.00  0.00    -0.301 N 
ATOM     30  C   UNL     1      -4.780  -2.727  -5.302  0.00  0.00    +0.111 C 
ATOM     31  C   UNL     1      -4.795  -2.769  -2.854  0.00  0.00    +0.216 C 
ATOM     32  O   UNL     1      -5.309  -3.080  -1.801  0.00  0.00    -0.276 OA
ATOM     33  C   UNL     1      -7.843  -5.801  -5.031  0.00  0.00    +0.009 C 
ENDBRANCH  23  31
ENDBRANCH  22  23
ENDBRANCH  21  22
ENDBRANCH  20  21
ENDBRANCH   1  20
TORSDOF 6
