REMARK  Name = ZINC05966329
REMARK  4 active torsions:
REMARK  status: ('A' for Active; 'I' for Inactive)
REMARK    1  A    between atoms: C_10  and  S_11
REMARK    2  A    between atoms: S_11  and  C_12
REMARK    3  A    between atoms: C_12  and  C_13
REMARK    4  A    between atoms: N_18  and  C_19
REMARK                            x       y       z     vdW  Elec       q    Type
REMARK                         _______ _______ _______ _____ _____    ______ ____
ROOT
ATOM      1  C   UNL     1      -0.289   0.166   7.177  0.00  0.00    +0.173 C 
ENDROOT
BRANCH   1   2
ATOM      2  C   UNL     1      -0.557   1.028   5.971  0.00  0.00    +0.231 C 
ATOM      3  O   UNL     1      -0.894   2.184   6.115  0.00  0.00    -0.274 OA
ATOM      4  N   UNL     1      -0.423   0.515   4.732  0.00  0.00    -0.239 N 
ATOM      5  C   UNL     1      -0.663   1.286   3.653  0.00  0.00    +0.306 C 
ATOM      6  O   UNL     1      -1.000   2.444   3.797  0.00  0.00    -0.252 OA
ATOM      7  N   UNL     1      -0.528   0.772   2.414  0.00  0.00    -0.296 N 
ATOM      8  H   UNL     1      -0.153  -0.410   4.617  0.00  0.00    +0.159 HD
ATOM      9  H   UNL     1      -0.258  -0.152   2.299  0.00  0.00    +0.151 HD
BRANCH   7  10
ATOM     10  C   UNL     1      -0.789   1.611   1.242  0.00  0.00    +0.074 C 
ATOM     11  C   UNL     1      -0.013   1.086   0.008  0.00  0.00    +0.022 C 
ATOM     12  C   UNL     1      -0.809   1.622  -1.200  0.00  0.00    +0.002 C 
ATOM     13  C   UNL     1      -2.243   1.875  -0.703  0.00  0.00    +0.002 C 
ATOM     14  C   UNL     1      -2.268   1.485   0.789  0.00  0.00    +0.022 C 
ENDBRANCH   7  10
ENDBRANCH   1   2
BRANCH   1  15
ATOM     15  S   UNL     1      -0.555   1.137   8.686  0.00  0.00    -0.076 S 
BRANCH  15  25
ATOM     16  C   UNL     1      -0.198   0.153  14.079  0.00  0.00    +0.045 A 
ATOM     17  C   UNL     1      -0.554   1.339  13.407  0.00  0.00    +0.059 A 
ATOM     18  C   UNL     1      -0.583   1.378  12.059  0.00  0.00    +0.115 A 
ATOM     19  N   UNL     1      -0.260   0.268  11.326  0.00  0.00    -0.275 N 
ATOM     20  C   UNL     1       0.087  -0.908  11.956  0.00  0.00    +0.180 A 
ATOM     21  C   UNL     1       0.120  -0.960  13.365  0.00  0.00    +0.087 A 
ATOM     22 CL   UNL     1       0.562  -2.428  14.178  0.00  0.00    -0.080 Cl
ATOM     23  N   UNL     1       0.335  -1.792  11.007  0.00  0.00    -0.127 NA
ATOM     24  N   UNL     1       0.161  -1.251   9.853  0.00  0.00    -0.122 NA
ATOM     25  C   UNL     1      -0.206   0.004   9.989  0.00  0.00    +0.196 A 
ATOM     26 CL   UNL     1      -0.959   2.758  14.320  0.00  0.00    -0.082 Cl
ENDBRANCH  15  25
ENDBRANCH   1  15
TORSDOF 4
