REMARK  Name = ZINC00908904
REMARK  10 active torsions:
REMARK  status: ('A' for Active; 'I' for Inactive)
REMARK    1  A    between atoms: C_1  and  C_2
REMARK    2  A    between atoms: C_2  and  C_3
REMARK    3  A    between atoms: C_3  and  C_4
REMARK    4  A    between atoms: C_3  and  C_5
REMARK    5  A    between atoms: C_3  and  N_6
REMARK    6  A    between atoms: C_7  and  C_11
REMARK    7  A    between atoms: C_11  and  C_13
REMARK    8  A    between atoms: C_11  and  N_62
REMARK    9  A    between atoms: C_18  and  C_25
REMARK   10  A    between atoms: C_28  and  C_31
REMARK                            x       y       z     vdW  Elec       q    Type
REMARK                         _______ _______ _______ _____ _____    ______ ____
ROOT
ATOM      1  C   UNL     1      -4.971   1.013  -0.063  0.00  0.00    +0.039 C 
ENDROOT
BRANCH   1   2
ATOM      2  C   UNL     1      -3.777   1.901  -0.304  0.00  0.00    +0.011 A 
ATOM      3  C   UNL     1      -2.551   1.351  -0.484  0.00  0.00    +0.017 A 
ATOM      4  C   UNL     1      -1.413   2.241  -0.722  0.00  0.00    -0.001 A 
ATOM      5  C   UNL     1      -0.123   1.732  -0.909  0.00  0.00    +0.010 A 
ATOM      6  C   UNL     1       0.918   2.589  -1.126  0.00  0.00    +0.004 A 
ATOM      7  C   UNL     1       0.709   3.962  -1.155  0.00  0.00    -0.048 A 
ATOM      8  C   UNL     1      -0.552   4.485  -0.969  0.00  0.00    +0.029 A 
ATOM      9  C   UNL     1      -1.628   3.632  -0.747  0.00  0.00    +0.049 A 
ATOM     10  N   UNL     1      -2.900   4.128  -0.557  0.00  0.00    -0.322 N 
ATOM     11  H   UNL     1      -3.052   5.116  -0.579  0.00  0.00    +0.169 HD
ATOM     12  C   UNL     1      -3.940   3.303  -0.344  0.00  0.00    +0.251 A 
ATOM     13  O   UNL     1      -5.051   3.776  -0.180  0.00  0.00    -0.268 OA
ATOM     14  C   UNL     1       1.873   4.888  -1.395  0.00  0.00    +0.044 C 
ENDBRANCH   1   2
BRANCH   1  21
ATOM     15  C   UNL     1      -5.494   1.229  -2.416  0.00  0.00    -0.077 C 
ATOM     16  C   UNL     1      -6.566   1.694  -3.405  0.00  0.00    -0.015 C 
ATOM     17  C   UNL     1      -7.810   0.815  -3.253  0.00  0.00    -0.018 C 
ATOM     18  C   UNL     1      -8.305   0.890  -1.807  0.00  0.00    -0.015 C 
ATOM     19  C   UNL     1      -7.184   0.447  -0.865  0.00  0.00    -0.077 C 
ATOM     20  C   UNL     1      -8.906   1.313  -4.196  0.00  0.00    +0.007 C 
ATOM     21  N   UNL     1      -6.025   1.349  -1.042  0.00  0.00    +0.389 N 
ATOM     22  H   UNL     1      -6.329   2.317  -0.885  0.00  0.00    -0.080 HD
ENDBRANCH   1  21
BRANCH   1  24
ATOM     23  N   UNL     1      -5.453   0.398   2.365  0.00  0.00    -0.225 N 
ATOM     24  C   UNL     1      -5.502   1.254   1.327  0.00  0.00    +0.143 A 
ATOM     25  N   UNL     1      -6.107   2.334   1.758  0.00  0.00    -0.115 NA
ATOM     26  N   UNL     1      -6.409   2.153   2.997  0.00  0.00    -0.023 NA
ATOM     27  N   UNL     1      -6.012   0.986   3.368  0.00  0.00    -0.043 NA
BRANCH  23  28
ATOM     28  C   UNL     1      -4.871  -0.946   2.358  0.00  0.00    +0.061 C 
ATOM     29  C   UNL     1      -5.631  -1.826   1.364  0.00  0.00    +0.036 C 
ATOM     30  C   UNL     1      -3.400  -0.863   1.944  0.00  0.00    +0.036 C 
BRANCH  28  32
ATOM     31  C   UNL     1      -4.365  -2.957   3.752  0.00  0.00    +0.006 C 
ATOM     32  C   UNL     1      -4.973  -1.553   3.759  0.00  0.00    +0.026 C 
ENDBRANCH  28  32
ENDBRANCH  23  28
ENDBRANCH   1  24
TORSDOF 5
