REMARK  Name = ZINC08583599
REMARK  11 active torsions:
REMARK  status: ('A' for Active; 'I' for Inactive)
REMARK    1  A    between atoms: C_1  and  C_2
REMARK    2  A    between atoms: C_2  and  C_3
REMARK    3  A    between atoms: C_3  and  C_5
REMARK    4  A    between atoms: C_3  and  S_12
REMARK    5  A    between atoms: N_7  and  C_8
REMARK    6  A    between atoms: N_7  and  C_10
REMARK    7  A    between atoms: C_8  and  C_9
REMARK    8  A    between atoms: C_10  and  C_11
REMARK    9  A    between atoms: S_12  and  C_13
REMARK   10  A    between atoms: C_17  and  C_21
REMARK   11  A    between atoms: N_24  and  C_25
REMARK                            x       y       z     vdW  Elec       q    Type
REMARK                         _______ _______ _______ _____ _____    ______ ____
ROOT
ATOM      1  C   UNL     1      -0.527   1.470  -2.824  0.00  0.00    +0.178 A 
ATOM      2  N   UNL     1       0.007   2.289  -1.942  0.00  0.00    -0.201 NA
ATOM      3  C   UNL     1      -0.166   3.633  -2.104  0.00  0.00    +0.187 A 
ATOM      4  C   UNL     1      -1.110   4.127  -3.136  0.00  0.00    +0.082 A 
ATOM      5  C   UNL     1      -1.095   5.479  -3.076  0.00  0.00    +0.046 A 
ATOM      6  N   UNL     1      -0.226   5.833  -2.106  0.00  0.00    -0.279 N 
ATOM      7  N   UNL     1       0.333   4.683  -1.526  0.00  0.00    -0.153 NA
ATOM      8  H   UNL     1      -0.018   6.745  -1.849  0.00  0.00    +0.189 HD
ATOM      9  C   UNL     1      -1.901   6.418  -3.935  0.00  0.00    +0.066 C 
ATOM     10  C   UNL     1      -1.825   3.135  -3.968  0.00  0.00    +0.124 A 
ATOM     11  N   UNL     1      -2.906   3.405  -4.651  0.00  0.00    -0.384 N 
ATOM     12  N   UNL     1      -1.210   1.874  -3.945  0.00  0.00    -0.273 N 
ATOM     13  H   UNL     1      -3.283   4.298  -4.630  0.00  0.00    +0.157 HD
ATOM     14  H   UNL     1      -3.332   2.712  -5.179  0.00  0.00    +0.157 HD
ENDROOT
BRANCH  12  15
ATOM     15  C   UNL     1      -1.295   1.027  -5.058  0.00  0.00    +0.069 A 
ATOM     16  C   UNL     1      -2.350   0.131  -5.170  0.00  0.00    +0.028 A 
ATOM     17  C   UNL     1      -2.432  -0.703  -6.268  0.00  0.00    +0.002 A 
ATOM     18  C   UNL     1      -1.464  -0.647  -7.255  0.00  0.00    +0.002 A 
ATOM     19  C   UNL     1      -0.412   0.244  -7.146  0.00  0.00    +0.022 A 
ATOM     20  C   UNL     1      -0.328   1.086  -6.053  0.00  0.00    +0.065 A 
ATOM     21 CL   UNL     1       0.989   2.209  -5.921  0.00  0.00    -0.081 Cl
ENDBRANCH  12  15
BRANCH   1  22
ATOM     22  S   UNL     1      -0.347  -0.261  -2.551  0.00  0.00    -0.075 S 
BRANCH  22  23
ATOM     23  C   UNL     1       0.459  -0.368  -0.929  0.00  0.00    +0.140 C 
BRANCH  23  24
ATOM     24  C   UNL     1       0.808  -1.805  -0.636  0.00  0.00    +0.229 C 
ATOM     25  O   UNL     1       0.170  -2.700  -1.147  0.00  0.00    -0.274 OA
ATOM     26  N   UNL     1       1.829  -2.094   0.194  0.00  0.00    -0.301 N 
BRANCH  26  27
ATOM     27  C   UNL     1       2.523  -1.017   0.905  0.00  0.00    +0.104 C 
ATOM     28  C   UNL     1       1.935  -0.872   2.310  0.00  0.00    +0.024 C 
ENDBRANCH  26  27
BRANCH  26  29
ATOM     29  C   UNL     1       2.246  -3.485   0.386  0.00  0.00    +0.104 C 
ATOM     30  C   UNL     1       3.319  -3.843  -0.644  0.00  0.00    +0.024 C 
ENDBRANCH  26  29
ENDBRANCH  23  24
BRANCH  23  32
ATOM     31  C   UNL     1      -1.698  -0.780   0.262  0.00  0.00    +0.005 C 
ATOM     32  C   UNL     1      -0.493   0.155   0.148  0.00  0.00    +0.020 C 
ENDBRANCH  23  32
ENDBRANCH  22  23
ENDBRANCH   1  22
TORSDOF 7
