REMARK  Name = ZINC12628444
REMARK  6 active torsions:
REMARK  status: ('A' for Active; 'I' for Inactive)
REMARK    1  A    between atoms: C_1  and  O_2
REMARK    2  A    between atoms: O_2  and  C_3
REMARK    3  A    between atoms: C_5  and  C_12
REMARK    4  A    between atoms: C_8  and  O_9
REMARK    5  A    between atoms: O_9  and  C_10
REMARK    6  A    between atoms: C_25  and  N_28
REMARK                            x       y       z     vdW  Elec       q    Type
REMARK                         _______ _______ _______ _____ _____    ______ ____
ROOT
ATOM      1  C   UNL     1       4.856   1.163  -0.038  0.00  0.00    +0.105 C 
ATOM      2  C   UNL     1       5.502   1.191   1.332  0.00  0.00    +0.029 C 
ATOM      3  C   UNL     1       4.687   0.675   2.523  0.00  0.00    +0.033 C 
ATOM      4  C   UNL     1       5.260   1.513   3.670  0.00  0.00    -0.030 C 
ATOM      5  C   UNL     1       5.743   2.657   3.197  0.00  0.00    -0.023 C 
ATOM      6  C   UNL     1       5.535   2.703   1.720  0.00  0.00    +0.049 C 
ATOM      7  C   UNL     1       6.465   3.362   0.777  0.00  0.00    -0.017 A 
ATOM      8  C   UNL     1       7.237   4.440   1.156  0.00  0.00    +0.006 A 
ATOM      9  C   UNL     1       8.089   5.045   0.251  0.00  0.00    +0.003 A 
ATOM     10  C   UNL     1       8.164   4.565  -1.044  0.00  0.00    +0.034 A 
ATOM     11  C   UNL     1       7.399   3.486  -1.429  0.00  0.00    +0.147 A 
ATOM     12  C   UNL     1       6.540   2.860  -0.524  0.00  0.00    +0.062 A 
ATOM     13  N   UNL     1       5.815   1.761  -0.980  0.00  0.00    -0.335 N 
ATOM     14  H   UNL     1       6.428   1.059  -1.367  0.00  0.00    +0.147 HD
ENDROOT
BRANCH   1  17
ATOM     15  C   UNL     1       1.225   2.113   0.396  0.00  0.00    +0.163 A 
ATOM     16  C   UNL     1       2.399   1.377   0.385  0.00  0.00    +0.055 A 
ATOM     17  C   UNL     1       3.582   1.966  -0.022  0.00  0.00    -0.022 A 
ATOM     18  C   UNL     1       3.599   3.294  -0.408  0.00  0.00    +0.024 A 
ATOM     19  C   UNL     1       2.431   4.036  -0.395  0.00  0.00    +0.063 A 
ATOM     20  C   UNL     1       1.242   3.449   0.007  0.00  0.00    +0.175 A 
ATOM     21 BR   UNL     1       2.459   5.851  -0.925  0.00  0.00    -0.046 Br
BRANCH  15  23
ATOM     22  C   UNL     1       0.119   0.158   1.176  0.00  0.00    +0.277 C 
ATOM     23  O   UNL     1       0.060   1.532   0.791  0.00  0.00    -0.491 OA
ENDBRANCH  15  23
BRANCH  20  24
ATOM     24  O   UNL     1       0.093   4.177   0.021  0.00  0.00    -0.490 OA
ATOM     25  C   UNL     1      -0.220   4.871   1.230  0.00  0.00    +0.277 C 
ENDBRANCH  20  24
ENDBRANCH   1  17
BRANCH  11  26
ATOM     26  N   UNL     1       7.490   2.985  -2.818  0.00  0.00    +0.058 N 
ATOM     27  O   UNL     1       8.238   3.526  -3.613  0.00  0.00    -0.126 OA
ATOM     28  O   UNL     1       6.818   2.031  -3.167  0.00  0.00    -0.126 OA
ENDBRANCH  11  26
TORSDOF 4
