REMARK  Name = ZINC14543919
REMARK  4 active torsions:
REMARK  status: ('A' for Active; 'I' for Inactive)
REMARK    1  A    between atoms: C_1  and  O_2
REMARK    2  A    between atoms: O_2  and  C_3
REMARK    3  A    between atoms: C_12  and  C_13
REMARK    4  A    between atoms: C_24  and  O_29
REMARK                            x       y       z     vdW  Elec       q    Type
REMARK                         _______ _______ _______ _____ _____    ______ ____
ROOT
ATOM      1  C   UNL     1      -2.559   1.393  -0.001  0.00  0.00    +0.109 C 
ATOM      2  C   UNL     1      -3.067   1.386  -1.446  0.00  0.00    +0.029 C 
ATOM      3  C   UNL     1      -1.873   0.966  -2.354  0.00  0.00    +0.033 C 
ATOM      4  C   UNL     1      -1.101   2.257  -2.540  0.00  0.00    -0.030 C 
ATOM      5  C   UNL     1      -1.875   3.291  -2.313  0.00  0.00    -0.023 C 
ATOM      6  C   UNL     1      -3.285   2.832  -1.934  0.00  0.00    +0.049 C 
ATOM      7  C   UNL     1      -3.911   3.710  -0.897  0.00  0.00    -0.016 A 
ATOM      8  C   UNL     1      -4.391   4.955  -1.280  0.00  0.00    +0.051 A 
ATOM      9  C   UNL     1      -4.979   5.798  -0.353  0.00  0.00    +0.117 A 
ATOM     10  C   UNL     1      -5.093   5.405   0.972  0.00  0.00    +0.047 A 
ATOM     11  C   UNL     1      -4.617   4.169   1.361  0.00  0.00    +0.027 A 
ATOM     12  C   UNL     1      -4.027   3.325   0.430  0.00  0.00    +0.032 A 
ATOM     13  N   UNL     1      -3.535   2.094   0.841  0.00  0.00    -0.336 N 
ATOM     14  H   UNL     1      -3.852   1.698   1.668  0.00  0.00    +0.147 HD
ENDROOT
BRANCH   1  24
ATOM     15  C   UNL     1      -1.185   3.446   0.321  0.00  0.00    +0.126 A 
ATOM     16  C   UNL     1       0.038   4.122   0.380  0.00  0.00    +0.046 A 
ATOM     17  C   UNL     1       1.211   3.462   0.188  0.00  0.00    +0.012 A 
ATOM     18  C   UNL     1       1.200   2.081  -0.072  0.00  0.00    -0.017 A 
ATOM     19  C   UNL     1       2.394   1.368  -0.275  0.00  0.00    +0.008 A 
ATOM     20  C   UNL     1       2.346   0.031  -0.524  0.00  0.00    +0.001 A 
ATOM     21  C   UNL     1       1.128  -0.645  -0.583  0.00  0.00    +0.001 A 
ATOM     22  C   UNL     1      -0.048   0.012  -0.392  0.00  0.00    +0.009 A 
ATOM     23  C   UNL     1      -0.038   1.393  -0.132  0.00  0.00    -0.009 A 
ATOM     24  C   UNL     1      -1.233   2.106   0.064  0.00  0.00    +0.022 A 
BRANCH  15  26
ATOM     25  C   UNL     1      -2.224   5.513   0.869  0.00  0.00    +0.277 C 
ATOM     26  O   UNL     1      -2.341   4.133   0.516  0.00  0.00    -0.495 OA
ENDBRANCH  15  26
ENDBRANCH   1  24
BRANCH   9  27
ATOM     27  O   UNL     1      -5.445   7.014  -0.743  0.00  0.00    -0.507 OA
ATOM     28  H   UNL     1      -4.791   7.724  -0.681  0.00  0.00    +0.292 HD
ENDBRANCH   9  27
TORSDOF 3
