REMARK  Name = ZINC39696433
REMARK  11 active torsions:
REMARK  status: ('A' for Active; 'I' for Inactive)
REMARK    1  A    between atoms: C_1  and  C_2
REMARK    2  A    between atoms: C_3  and  C_14
REMARK    3  A    between atoms: C_4  and  C_7
REMARK    4  A    between atoms: C_18  and  C_27
REMARK    5  A    between atoms: N_29  and  C_30
REMARK    6  A    between atoms: C_30  and  C_31
REMARK    7  A    between atoms: C_31  and  S_32
REMARK    8  A    between atoms: S_32  and  C_33
REMARK    9  A    between atoms: C_33  and  C_34
REMARK   10  A    between atoms: C_33  and  C_35
REMARK   11  A    between atoms: C_33  and  C_36
REMARK                            x       y       z     vdW  Elec       q    Type
REMARK                         _______ _______ _______ _____ _____    ______ ____
ROOT
ATOM      1  C   UNL     1      -2.450  -0.420   0.249  0.00  0.00    +0.252 C 
ATOM      2  O   UNL     1      -3.146  -0.353  -0.746  0.00  0.00    -0.270 OA
ATOM      3  N   UNL     1      -2.971  -0.125   1.456  0.00  0.00    -0.296 N 
ATOM      4  C   UNL     1      -2.266  -0.062   2.759  0.00  0.00    +0.121 C 
ATOM      5  C   UNL     1      -2.889   1.155   3.480  0.00  0.00    +0.100 C 
ATOM      6  C   UNL     1      -4.275   1.325   2.837  0.00  0.00    -0.004 C 
ATOM      7  C   UNL     1      -4.377   0.214   1.781  0.00  0.00    +0.115 C 
ATOM      8  C   UNL     1      -5.370   1.160   3.887  0.00  0.00    -0.010 C 
ATOM      9  C   UNL     1      -6.736   1.391   3.235  0.00  0.00    -0.082 C 
ATOM     10  N   UNL     1      -6.783   2.741   2.659  0.00  0.00    +0.379 N 
ATOM     11  C   UNL     1      -5.788   2.862   1.585  0.00  0.00    -0.082 C 
ATOM     12  C   UNL     1      -4.382   2.692   2.168  0.00  0.00    -0.010 C 
ATOM     13  H   UNL     1      -7.703   2.913   2.284  0.00  0.00    -0.086 HD
ATOM     14  H   UNL     1      -6.583   3.419   3.378  0.00  0.00    -0.086 HD
ENDROOT
BRANCH   1  17
ATOM     15  C   UNL     1      -0.054   1.470  -0.426  0.00  0.00    +0.090 C 
ATOM     16  C   UNL     1       0.018  -0.011  -0.159  0.00  0.00    +0.147 A 
ATOM     17  C   UNL     1      -1.038  -0.823   0.134  0.00  0.00    +0.106 A 
ATOM     18  C   UNL     1      -0.495  -2.178   0.314  0.00  0.00    +0.127 A 
ATOM     19  N   UNL     1       0.798  -2.097   0.126  0.00  0.00    -0.077 NA
ATOM     20  O   UNL     1       1.127  -0.755  -0.173  0.00  0.00    -0.359 OA
BRANCH  18  21
ATOM     21  C   UNL     1      -1.265  -3.401   0.645  0.00  0.00    +0.023 A 
ATOM     22  C   UNL     1      -2.647  -3.334   0.812  0.00  0.00    +0.011 A 
ATOM     23  C   UNL     1      -3.359  -4.476   1.120  0.00  0.00    +0.001 A 
ATOM     24  C   UNL     1      -2.703  -5.686   1.264  0.00  0.00    +0.001 A 
ATOM     25  C   UNL     1      -1.332  -5.759   1.101  0.00  0.00    +0.020 A 
ATOM     26  C   UNL     1      -0.610  -4.624   0.786  0.00  0.00    +0.050 A 
ATOM     27 CL   UNL     1       1.111  -4.719   0.573  0.00  0.00    -0.083 Cl
ENDBRANCH  18  21
ENDBRANCH   1  17
BRANCH   5  28
ATOM     28  C   UNL     1      -2.048   2.385   3.255  0.00  0.00    +0.218 C 
ATOM     29  O   UNL     1      -1.351   2.471   2.266  0.00  0.00    -0.275 OA
ATOM     30  N   UNL     1      -2.071   3.390   4.153  0.00  0.00    -0.314 N 
ATOM     31  H   UNL     1      -2.628   3.321   4.944  0.00  0.00    +0.149 HD
BRANCH  30  32
ATOM     32  C   UNL     1      -1.254   4.586   3.934  0.00  0.00    +0.115 C 
BRANCH  32  33
ATOM     33  C   UNL     1      -1.462   5.565   5.092  0.00  0.00    +0.088 C 
BRANCH  33  34
ATOM     34  S   UNL     1      -0.450   7.046   4.821  0.00  0.00    -0.153 S 
BRANCH  34  35
ATOM     35  C   UNL     1      -0.807   8.090   6.261  0.00  0.00    +0.008 C 
ATOM     36  C   UNL     1      -0.412   7.348   7.540  0.00  0.00    +0.022 C 
ATOM     37  C   UNL     1      -0.007   9.390   6.159  0.00  0.00    +0.022 C 
ATOM     38  C   UNL     1      -2.302   8.412   6.300  0.00  0.00    +0.022 C 
ENDBRANCH  34  35
ENDBRANCH  33  34
ENDBRANCH  32  33
ENDBRANCH  30  32
ENDBRANCH   5  28
TORSDOF 7
