REMARK  Name = ZINC39304171
REMARK  6 active torsions:
REMARK  status: ('A' for Active; 'I' for Inactive)
REMARK    1  A    between atoms: C_1  and  C_2
REMARK    2  A    between atoms: C_6  and  O_27
REMARK    3  A    between atoms: C_7  and  O_26
REMARK    4  A    between atoms: N_12  and  C_13
REMARK    5  A    between atoms: C_13  and  C_14
REMARK    6  A    between atoms: N_16  and  C_17
REMARK                            x       y       z     vdW  Elec       q    Type
REMARK                         _______ _______ _______ _____ _____    ______ ____
ROOT
ATOM      1  C   UNL     1      -0.002   1.536   0.013  0.00  0.00    -0.008 C 
ATOM      2  C   UNL     1       0.007   0.006   0.002  0.00  0.00    -0.040 C 
ATOM      3  C   UNL     1       0.699  -0.477  -1.245  0.00  0.00    -0.054 A 
ATOM      4  C   UNL     1       0.443   0.181  -2.440  0.00  0.00    +0.051 A 
ATOM      5  C   UNL     1       1.055  -0.231  -3.610  0.00  0.00    +0.158 A 
ATOM      6  C   UNL     1       1.931  -1.312  -3.588  0.00  0.00    +0.158 A 
ATOM      7  C   UNL     1       2.183  -1.966  -2.395  0.00  0.00    +0.053 A 
ATOM      8  C   UNL     1       1.568  -1.548  -1.224  0.00  0.00    -0.044 A 
ATOM      9  C   UNL     1       1.878  -2.283   0.055  0.00  0.00    +0.017 C 
ATOM     10  C   UNL     1       0.828  -1.944   1.114  0.00  0.00    -0.073 C 
ATOM     11  N   UNL     1       0.701  -0.482   1.198  0.00  0.00    +0.390 N 
ATOM     12  H   UNL     1       1.619  -0.065   1.249  0.00  0.00    -0.080 HD
ENDROOT
BRANCH   6  13
ATOM     13  O   UNL     1       2.535  -1.726  -4.734  0.00  0.00    -0.503 OA
ATOM     14  H   UNL     1       3.384  -1.296  -4.908  0.00  0.00    +0.292 HD
ENDBRANCH   6  13
BRANCH   5  15
ATOM     15  O   UNL     1       0.801   0.419  -4.778  0.00  0.00    -0.503 OA
ATOM     16  H   UNL     1       1.402   1.155  -4.957  0.00  0.00    +0.292 HD
ENDBRANCH   5  15
BRANCH  11  17
ATOM     17  C   UNL     1      -0.071  -0.123   2.395  0.00  0.00    +0.020 C 
BRANCH  17  18
ATOM     18  C   UNL     1       0.703  -0.516   3.627  0.00  0.00    +0.201 C 
ATOM     19  O   UNL     1       1.790  -1.043   3.519  0.00  0.00    -0.278 OA
ATOM     20  N   UNL     1       0.186  -0.282   4.850  0.00  0.00    -0.287 N 
ATOM     21  H   UNL     1      -0.651   0.199   4.939  0.00  0.00    +0.155 HD
BRANCH  20  22
ATOM     22  C   UNL     1       0.859  -0.734   5.993  0.00  0.00    +0.037 A 
ATOM     23  C   UNL     1       0.138  -1.180   7.092  0.00  0.00    +0.027 A 
ATOM     24  C   UNL     1       0.801  -1.626   8.220  0.00  0.00    +0.051 A 
ATOM     25  C   UNL     1       2.186  -1.629   8.257  0.00  0.00    +0.166 A 
ATOM     26  C   UNL     1       2.912  -1.182   7.156  0.00  0.00    +0.168 A 
ATOM     27  C   UNL     1       2.247  -0.740   6.024  0.00  0.00    +0.072 A 
ATOM     28  O   UNL     1       4.243  -1.283   7.440  0.00  0.00    -0.453 OA
ATOM     29  C   UNL     1       4.322  -1.411   8.872  0.00  0.00    +0.466 C 
ATOM     30  O   UNL     1       3.063  -2.010   9.232  0.00  0.00    -0.453 OA
ENDBRANCH  20  22
ENDBRANCH  17  18
ENDBRANCH  11  17
TORSDOF 5
