REMARK  Name = ZINC56072590
REMARK  6 active torsions:
REMARK  status: ('A' for Active; 'I' for Inactive)
REMARK    1  A    between atoms: C_1  and  C_2
REMARK    2  A    between atoms: C_8  and  C_27
REMARK    3  A    between atoms: C_8  and  C_28
REMARK    4  A    between atoms: C_10  and  N_12
REMARK    5  A    between atoms: N_12  and  S_13
REMARK    6  A    between atoms: S_13  and  C_16
REMARK                            x       y       z     vdW  Elec       q    Type
REMARK                         _______ _______ _______ _____ _____    ______ ____
ROOT
ATOM      1  S   UNL     1      -3.911  -4.131  -0.698  0.00  0.00    +0.059 S 
ATOM      2  O   UNL     1      -4.743  -3.893  -1.826  0.00  0.00    -0.153 OA
ATOM      3  O   UNL     1      -3.537  -5.439  -0.290  0.00  0.00    -0.153 OA
ENDROOT
BRANCH   1   4
ATOM      4  C   UNL     1      -4.708  -3.381   0.683  0.00  0.00    +0.106 A 
ATOM      5  C   UNL     1      -4.435  -3.827   1.963  0.00  0.00    +0.030 A 
ATOM      6  C   UNL     1      -5.057  -3.242   3.048  0.00  0.00    +0.025 A 
ATOM      7  C   UNL     1      -5.958  -2.203   2.852  0.00  0.00    +0.037 A 
ATOM      8  C   UNL     1      -6.229  -1.757   1.565  0.00  0.00    -0.024 A 
ATOM      9  C   UNL     1      -5.600  -2.343   0.484  0.00  0.00    +0.034 A 
ATOM     10  C   UNL     1      -7.205  -0.629   1.353  0.00  0.00    +0.046 C 
ATOM     11  C   UNL     1      -8.313  -0.707   2.404  0.00  0.00    +0.101 C 
ATOM     12  C   UNL     1      -7.710  -0.878   3.772  0.00  0.00    +0.218 C 
ATOM     13  O   UNL     1      -8.239  -0.354   4.730  0.00  0.00    -0.275 OA
ATOM     14  N   UNL     1      -6.591  -1.605   3.946  0.00  0.00    -0.285 N 
ATOM     15  H   UNL     1      -6.221  -1.716   4.835  0.00  0.00    +0.155 HD
ENDBRANCH   1   4
BRANCH   1  16
ATOM     16  N   UNL     1      -2.505  -3.298  -0.964  0.00  0.00    -0.182 NA
ATOM     17  H   UNL     1      -2.385  -2.798  -1.787  0.00  0.00    +0.149 HD
BRANCH  16  27
ATOM     18  C   UNL     1      -0.491   1.695   0.127  0.00  0.00    +0.086 C 
ATOM     19  C   UNL     1      -0.342   0.196   0.122  0.00  0.00    +0.103 A 
ATOM     20  C   UNL     1      -1.350  -0.696   0.070  0.00  0.00    +0.050 A 
ATOM     21  C   UNL     1      -0.760  -1.973   0.087  0.00  0.00    +0.012 A 
ATOM     22  C   UNL     1       0.575  -1.793   0.151  0.00  0.00    +0.110 A 
ATOM     23  O   UNL     1       0.822  -0.478   0.165  0.00  0.00    -0.464 OA
ATOM     24  C   UNL     1       1.575  -2.923   0.192  0.00  0.00    +0.081 C 
ATOM     25  C   UNL     1       0.835  -4.212   0.568  0.00  0.00    -0.026 C 
ATOM     26  C   UNL     1      -0.396  -4.376  -0.328  0.00  0.00    +0.032 C 
ATOM     27  C   UNL     1      -1.441  -3.316   0.043  0.00  0.00    +0.110 C 
ATOM     28  C   UNL     1       0.395  -4.139   2.031  0.00  0.00    +0.011 C 
ATOM     29  C   UNL     1       1.768  -5.410   0.376  0.00  0.00    +0.011 C 
ENDBRANCH  16  27
ENDBRANCH   1  16
TORSDOF 3
