REMARK  Name = ZINC39710525
REMARK  13 active torsions:
REMARK  status: ('A' for Active; 'I' for Inactive)
REMARK    1  A    between atoms: C_1  and  C_2
REMARK    2  A    between atoms: C_2  and  C_3
REMARK    3  A    between atoms: C_10  and  C_15
REMARK    4  A    between atoms: C_15  and  C_17
REMARK    5  A    between atoms: C_15  and  N_27
REMARK    6  A    between atoms: N_22  and  C_23
REMARK    7  A    between atoms: C_23  and  C_24
REMARK    8  A    between atoms: C_23  and  C_25
REMARK    9  A    between atoms: C_23  and  C_26
REMARK   10  A    between atoms: N_27  and  C_28
REMARK   11  A    between atoms: N_27  and  C_36
REMARK   12  A    between atoms: C_28  and  C_29
REMARK   13  A    between atoms: C_36  and  C_37
REMARK                            x       y       z     vdW  Elec       q    Type
REMARK                         _______ _______ _______ _____ _____    ______ ____
ROOT
ATOM      1  C   UNL     1       5.262  -0.961  -4.363  0.00  0.00    +0.115 C 
ENDROOT
BRANCH   1   9
ATOM      2  C   UNL     1       1.946  -0.276   0.389  0.00  0.00    -0.047 A 
ATOM      3  C   UNL     1       0.775  -0.486  -0.339  0.00  0.00    +0.005 A 
ATOM      4  C   UNL     1       0.778  -0.972  -1.608  0.00  0.00    +0.024 A 
ATOM      5  C   UNL     1       1.990  -1.287  -2.249  0.00  0.00    +0.040 A 
ATOM      6  N   UNL     1       1.981  -1.762  -3.494  0.00  0.00    -0.284 N 
ATOM      7  C   UNL     1       3.082  -2.079  -4.154  0.00  0.00    +0.226 C 
ATOM      8  O   UNL     1       3.011  -2.509  -5.290  0.00  0.00    -0.275 OA
ATOM      9  C   UNL     1       4.430  -1.904  -3.492  0.00  0.00    +0.119 C 
ATOM     10  C   UNL     1       4.446  -1.363  -2.076  0.00  0.00    -0.003 C 
ATOM     11  C   UNL     1       3.243  -1.074  -1.504  0.00  0.00    -0.007 A 
ATOM     12  C   UNL     1       3.167  -0.544  -0.142  0.00  0.00    +0.013 A 
ATOM     13  H   UNL     1       1.126  -1.882  -3.937  0.00  0.00    +0.155 HD
BRANCH   2  15
ATOM     14  C   UNL     1       1.895   1.796   1.752  0.00  0.00    +0.009 C 
ATOM     15  C   UNL     1       1.855   0.267   1.792  0.00  0.00    +0.032 C 
ENDBRANCH   2  15
ENDBRANCH   1   9
BRANCH   1  16
ATOM     16  C   UNL     1       5.270  -1.472  -5.805  0.00  0.00    +0.236 C 
ATOM     17  N   UNL     1       5.778  -2.849  -5.859  0.00  0.00    -0.148 NA
ATOM     18  N   UNL     1       6.797  -2.872  -6.551  0.00  0.00    -0.069 NA
ATOM     19  N   UNL     1       7.140  -1.617  -7.053  0.00  0.00    -0.179 N 
ATOM     20  N   UNL     1       6.221  -0.692  -6.624  0.00  0.00    -0.179 NA
ATOM     21  H   UNL     1       7.906  -1.428  -7.617  0.00  0.00    +0.191 HD
BRANCH  20  22
ATOM     22  C   UNL     1       5.540  -0.057  -7.761  0.00  0.00    +0.035 C 
ATOM     23  C   UNL     1       4.422   0.851  -7.243  0.00  0.00    +0.029 C 
ATOM     24  C   UNL     1       6.545   0.776  -8.558  0.00  0.00    +0.029 C 
ATOM     25  C   UNL     1       4.942  -1.137  -8.665  0.00  0.00    +0.029 C 
ENDBRANCH  20  22
ENDBRANCH   1  16
BRANCH   1  26
ATOM     26  N   UNL     1       4.677   0.386  -4.324  0.00  0.00    -0.284 NA
BRANCH  26  27
ATOM     27  C   UNL     1       5.078   1.099  -3.104  0.00  0.00    +0.122 C 
BRANCH  27  28
ATOM     28  C   UNL     1       6.511   1.547  -3.232  0.00  0.00    -0.015 A 
ATOM     29  C   UNL     1       7.517   0.832  -2.611  0.00  0.00    +0.006 A 
ATOM     30  C   UNL     1       8.832   1.243  -2.728  0.00  0.00    +0.000 A 
ATOM     31  C   UNL     1       9.141   2.370  -3.467  0.00  0.00    +0.001 A 
ATOM     32  C   UNL     1       8.135   3.086  -4.088  0.00  0.00    +0.020 A 
ATOM     33  C   UNL     1       6.820   2.672  -3.976  0.00  0.00    +0.045 A 
ATOM     34 CL   UNL     1       5.557   3.567  -4.762  0.00  0.00    -0.083 Cl
ENDBRANCH  27  28
ENDBRANCH  26  27
BRANCH  26  35
ATOM     35  C   UNL     1       3.214   0.328  -4.443  0.00  0.00    +0.159 C 
BRANCH  35  36
ATOM     36  C   UNL     1       2.671   1.719  -4.643  0.00  0.00    +0.119 A 
ATOM     37  C   UNL     1       2.354   2.278  -5.825  0.00  0.00    +0.046 A 
ATOM     38  C   UNL     1       1.885   3.583  -5.549  0.00  0.00    +0.041 A 
ATOM     39  C   UNL     1       1.944   3.744  -4.215  0.00  0.00    +0.195 A 
ATOM     40  O   UNL     1       2.415   2.610  -3.671  0.00  0.00    -0.467 OA
ENDBRANCH  35  36
ENDBRANCH  26  35
ENDBRANCH   1  26
TORSDOF 9
