REMARK  Name = ZINC65593561
REMARK  11 active torsions:
REMARK  status: ('A' for Active; 'I' for Inactive)
REMARK    1  A    between atoms: C_1  and  C_2
REMARK    2  A    between atoms: C_2  and  C_3
REMARK    3  A    between atoms: C_3  and  C_4
REMARK    4  A    between atoms: C_4  and  C_5
REMARK    5  A    between atoms: C_5  and  C_6
REMARK    6  A    between atoms: C_5  and  N_24
REMARK    7  A    between atoms: N_8  and  C_9
REMARK    8  A    between atoms: C_12  and  N_15
REMARK    9  A    between atoms: N_15  and  C_16
REMARK   10  A    between atoms: N_15  and  C_17
REMARK   11  A    between atoms: N_20  and  C_23
REMARK                            x       y       z     vdW  Elec       q    Type
REMARK                         _______ _______ _______ _____ _____    ______ ____
ROOT
ATOM      1  C   UNL     1      -3.249  -3.951   2.306  0.00  0.00    +0.238 C 
ATOM      2  O   UNL     1      -3.749  -4.505   3.262  0.00  0.00    -0.273 OA
ATOM      3  N   UNL     1      -2.667  -4.679   1.333  0.00  0.00    -0.284 N 
ATOM      4  H   UNL     1      -2.333  -4.242   0.534  0.00  0.00    +0.155 HD
ENDROOT
BRANCH   3   5
ATOM      5  C   UNL     1      -2.542  -6.067   1.476  0.00  0.00    +0.034 A 
ATOM      6  C   UNL     1      -2.607  -6.889   0.358  0.00  0.00    +0.025 A 
ATOM      7  C   UNL     1      -2.484  -8.257   0.499  0.00  0.00    +0.025 A 
ATOM      8  C   UNL     1      -2.296  -8.811   1.758  0.00  0.00    +0.030 A 
ATOM      9  C   UNL     1      -2.231  -7.989   2.876  0.00  0.00    +0.025 A 
ATOM     10  C   UNL     1      -2.348  -6.621   2.734  0.00  0.00    +0.025 A 
BRANCH   8  11
ATOM     11  N   UNL     1      -2.171 -10.197   1.901  0.00  0.00    -0.330 N 
ATOM     12  C   UNL     1      -2.125 -11.055   0.714  0.00  0.00    +0.129 C 
BRANCH  11  13
ATOM     13  C   UNL     1      -2.088 -10.792   3.237  0.00  0.00    +0.070 C 
ATOM     14  C   UNL     1      -0.833 -11.664   3.332  0.00  0.00    +0.004 C 
ATOM     15  C   UNL     1      -0.794 -12.344   4.702  0.00  0.00    -0.077 C 
ATOM     16  N   UNL     1      -1.988 -13.181   4.871  0.00  0.00    +0.378 N 
ATOM     17  C   UNL     1      -3.192 -12.342   4.853  0.00  0.00    -0.077 C 
ATOM     18  C   UNL     1      -3.323 -11.662   3.489  0.00  0.00    +0.004 C 
ATOM     19  C   UNL     1      -1.908 -13.893   6.154  0.00  0.00    -0.096 C 
ATOM     20  H   UNL     1      -2.036 -13.853   4.120  0.00  0.00    -0.082 HD
ENDBRANCH  11  13
ENDBRANCH   8  11
ENDBRANCH   3   5
BRANCH   1  21
ATOM     21  C   UNL     1      -3.280  -2.447   2.207  0.00  0.00    +0.161 C 
BRANCH  21  22
ATOM     22  N   UNL     1      -3.510  -1.875   3.535  0.00  0.00    -0.288 N 
ATOM     23  C   UNL     1      -4.634  -2.179   4.215  0.00  0.00    +0.298 C 
ATOM     24  O   UNL     1      -5.456  -2.929   3.725  0.00  0.00    -0.253 OA
ATOM     25  N   UNL     1      -4.846  -1.652   5.437  0.00  0.00    -0.313 N 
ATOM     26  H   UNL     1      -2.854  -1.276   3.926  0.00  0.00    +0.151 HD
ATOM     27  H   UNL     1      -4.189  -1.054   5.827  0.00  0.00    +0.146 HD
ATOM     28  H   UNL     1      -5.654  -1.871   5.926  0.00  0.00    +0.146 HD
ENDBRANCH  21  22
BRANCH  21  29
ATOM     29  C   UNL     1      -4.408  -2.021   1.265  0.00  0.00    +0.032 C 
BRANCH  29  30
ATOM     30  C   UNL     1      -4.361  -0.505   1.066  0.00  0.00    +0.002 C 
BRANCH  30  32
ATOM     31  C   UNL     1      -5.442   1.437  -0.075  0.00  0.00    +0.004 C 
ATOM     32  C   UNL     1      -5.489  -0.079   0.124  0.00  0.00    -0.003 C 
ENDBRANCH  30  32
ENDBRANCH  29  30
ENDBRANCH  21  29
ENDBRANCH   1  21
TORSDOF 8
