REMARK  Name = ZINC43743056
REMARK  10 active torsions:
REMARK  status: ('A' for Active; 'I' for Inactive)
REMARK    1  A    between atoms: C_1  and  C_2
REMARK    2  A    between atoms: C_18  and  C_20
REMARK    3  A    between atoms: C_20  and  N_21
REMARK    4  A    between atoms: N_21  and  C_22
REMARK    5  A    between atoms: N_21  and  C_23
REMARK    6  A    between atoms: C_23  and  C_24
REMARK    7  A    between atoms: C_24  and  C_26
REMARK    8  A    between atoms: C_24  and  O_38
REMARK    9  A    between atoms: C_26  and  O_27
REMARK   10  A    between atoms: O_27  and  C_28
REMARK                            x       y       z     vdW  Elec       q    Type
REMARK                         _______ _______ _______ _____ _____    ______ ____
ROOT
ATOM      1  N   UNL     1      -2.036  -3.553   4.383  0.00  0.00    +0.380 N 
ATOM      2  C   UNL     1      -3.219  -3.956   3.611  0.00  0.00    -0.096 C 
ATOM      3  H   UNL     1      -1.261  -4.155   4.151  0.00  0.00    -0.082 HD
ENDROOT
BRANCH   1   4
ATOM      4  C   UNL     1      -1.690  -2.163   4.058  0.00  0.00    -0.064 C 
BRANCH   4  19
ATOM      5  C   UNL     1       1.561  -4.067  -0.424  0.00  0.00    +0.011 C 
ATOM      6  C   UNL     1       0.168  -3.437  -0.478  0.00  0.00    -0.023 C 
ATOM      7  C   UNL     1      -0.364  -3.489  -1.910  0.00  0.00    +0.007 C 
ATOM      8  C   UNL     1      -0.381  -4.936  -2.405  0.00  0.00    +0.003 C 
ATOM      9  C   UNL     1      -1.347  -5.758  -1.544  0.00  0.00    +0.037 C 
ATOM     10  C   UNL     1      -0.928  -5.639  -0.076  0.00  0.00    +0.096 C 
ATOM     11  C   UNL     1      -0.784  -4.208   0.447  0.00  0.00    +0.030 C 
ATOM     12  C   UNL     1      -0.155  -4.245   1.840  0.00  0.00    +0.014 C 
ATOM     13  C   UNL     1       0.070  -2.857   2.385  0.00  0.00    +0.042 C 
ATOM     14  C   UNL     1       0.815  -1.919   1.415  0.00  0.00    +0.181 C 
ATOM     15  C   UNL     1       0.238  -1.993   0.011  0.00  0.00    +0.052 C 
ATOM     16  O   UNL     1       0.448  -0.614   1.947  0.00  0.00    -0.461 OA
ATOM     17  C   UNL     1      -0.867  -0.654   2.251  0.00  0.00    +0.309 C 
ATOM     18  O   UNL     1      -1.621   0.290   2.237  0.00  0.00    -0.251 OA
ATOM     19  C   UNL     1      -1.241  -2.077   2.598  0.00  0.00    +0.088 C 
ATOM     20  C   UNL     1      -1.413  -6.712   0.895  0.00  0.00    +0.196 C 
ATOM     21  O   UNL     1      -0.056  -6.636   0.453  0.00  0.00    -0.368 OA
ENDBRANCH   4  19
ENDBRANCH   1   4
BRANCH   1  22
ATOM     22  C   UNL     1      -2.328  -3.662   5.819  0.00  0.00    -0.044 C 
BRANCH  22  23
ATOM     23  C   UNL     1      -2.567  -5.129   6.181  0.00  0.00    +0.135 C 
BRANCH  23  24
ATOM     24  O   UNL     1      -1.361  -5.871   5.983  0.00  0.00    -0.390 OA
ATOM     25  H   UNL     1      -0.618  -5.562   6.518  0.00  0.00    +0.210 HD
ENDBRANCH  23  24
BRANCH  23  26
ATOM     26  C   UNL     1      -2.993  -5.230   7.646  0.00  0.00    +0.258 C 
BRANCH  26  27
ATOM     27  O   UNL     1      -3.328  -6.585   7.953  0.00  0.00    -0.489 OA
BRANCH  27  28
ATOM     28  C   UNL     1      -3.730  -6.849   9.223  0.00  0.00    +0.128 A 
ATOM     29  C   UNL     1      -3.806  -5.842  10.144  0.00  0.00    +0.046 A 
ATOM     30  C   UNL     1      -4.216  -6.096  11.449  0.00  0.00    +0.004 A 
ATOM     31  C   UNL     1      -4.553  -7.354  11.848  0.00  0.00    +0.009 A 
ATOM     32  C   UNL     1      -4.489  -8.417  10.931  0.00  0.00    -0.014 A 
ATOM     33  C   UNL     1      -4.077  -8.162   9.599  0.00  0.00    +0.024 A 
ATOM     34  C   UNL     1      -4.016  -9.224   8.682  0.00  0.00    +0.012 A 
ATOM     35  C   UNL     1      -4.359 -10.480   9.082  0.00  0.00    +0.001 A 
ATOM     36  C   UNL     1      -4.769 -10.729  10.390  0.00  0.00    +0.001 A 
ATOM     37  C   UNL     1      -4.829  -9.727  11.308  0.00  0.00    +0.008 A 
ENDBRANCH  27  28
ENDBRANCH  26  27
ENDBRANCH  23  26
ENDBRANCH  22  23
ENDBRANCH   1  22
TORSDOF 8
