REMARK  Name = ZINC44464794
REMARK  9 active torsions:
REMARK  status: ('A' for Active; 'I' for Inactive)
REMARK    1  A    between atoms: C_1  and  C_2
REMARK    2  A    between atoms: C_4  and  C_20
REMARK    3  A    between atoms: C_5  and  C_19
REMARK    4  A    between atoms: N_6  and  C_7
REMARK    5  A    between atoms: C_10  and  C_14
REMARK    6  A    between atoms: C_20  and  CA_21
REMARK    7  A    between atoms: CA_21  and  C_23
REMARK    8  A    between atoms: CA_21  and  N_25
REMARK    9  A    between atoms: C_23  and  O_24
REMARK                            x       y       z     vdW  Elec       q    Type
REMARK                         _______ _______ _______ _____ _____    ______ ____
ROOT
ATOM      1  C   UNL     1      -0.018   1.503   0.010  0.00  0.00    +0.064 C 
ATOM      2  C   UNL     1       0.002  -0.004   0.002  0.00  0.00    +0.021 A 
ATOM      3  C   UNL     1       0.008  -0.789  -1.095  0.00  0.00    +0.026 A 
ATOM      4  C   UNL     1       0.029  -2.128  -0.656  0.00  0.00    -0.028 A 
ATOM      5  C   UNL     1       0.034  -2.112   0.692  0.00  0.00    +0.024 A 
ATOM      6  N   UNL     1       0.024  -0.811   1.104  0.00  0.00    -0.315 N 
ATOM      7  C   UNL     1       0.055  -3.323   1.590  0.00  0.00    +0.064 C 
ENDROOT
BRANCH   6   8
ATOM      8  C   UNL     1       0.030  -0.374   2.437  0.00  0.00    +0.083 A 
ATOM      9  C   UNL     1       1.235  -0.135   3.085  0.00  0.00    +0.067 A 
ATOM     10  C   UNL     1       1.238   0.295   4.399  0.00  0.00    +0.034 A 
ATOM     11  C   UNL     1       0.043   0.487   5.068  0.00  0.00    +0.058 A 
ATOM     12  C   UNL     1      -1.158   0.250   4.426  0.00  0.00    +0.034 A 
ATOM     13  C   UNL     1      -1.168  -0.174   3.110  0.00  0.00    +0.067 A 
ATOM     14 CL   UNL     1      -2.677  -0.464   2.302  0.00  0.00    -0.081 Cl
ATOM     15 CL   UNL     1       2.736  -0.377   2.246  0.00  0.00    -0.081 Cl
BRANCH  11  16
ATOM     16  C   UNL     1       0.051   0.956   6.500  0.00  0.00    +0.418 C 
ATOM     17  F   UNL     1       0.025   2.354   6.533  0.00  0.00    -0.166 F 
ATOM     18  F   UNL     1      -1.075   0.453   7.161  0.00  0.00    -0.166 F 
ATOM     19  F   UNL     1       1.209   0.495   7.136  0.00  0.00    -0.166 F 
ENDBRANCH  11  16
ENDBRANCH   6   8
BRANCH   4  20
ATOM     20  C   UNL     1       0.042  -3.353  -1.534  0.00  0.00    +0.023 C 
BRANCH  20  21
ATOM     21  CA  UNL     1      -1.389  -3.860  -1.722  0.00  0.00    -0.045 C 
BRANCH  21  22
ATOM     22  N   UNL     1      -2.170  -2.860  -2.463  0.00  0.00    +0.382 N 
ATOM     23  H1  UNL     1      -1.747  -2.704  -3.366  0.00  0.00    -0.090 HD
ATOM     24  H2  UNL     1      -3.114  -3.195  -2.587  0.00  0.00    -0.090 HD
ATOM     25  H3  UNL     1      -2.186  -1.995  -1.945  0.00  0.00    -0.090 HD
ENDBRANCH  21  22
BRANCH  21  26
ATOM     26  C   UNL     1      -1.366  -5.173  -2.509  0.00  0.00    +0.140 C 
BRANCH  26  27
ATOM     27  O   UNL     1      -2.689  -5.707  -2.584  0.00  0.00    -0.397 OA
ATOM     28  H   UNL     1      -2.750  -6.540  -3.070  0.00  0.00    +0.209 HD
ENDBRANCH  26  27
ENDBRANCH  21  26
ENDBRANCH  20  21
ENDBRANCH   4  20
TORSDOF 7
