REMARK  Name = ZINC22331676
REMARK  4 active torsions:
REMARK  status: ('A' for Active; 'I' for Inactive)
REMARK    1  A    between atoms: C_1  and  C_2
REMARK    2  A    between atoms: C_2  and  C_3
REMARK    3  A    between atoms: C_14  and  N_18
REMARK    4  A    between atoms: C_19  and  C_21
REMARK                            x       y       z     vdW  Elec       q    Type
REMARK                         _______ _______ _______ _____ _____    ______ ____
ROOT
ATOM      1  C   UNL     1      -5.631   0.769  -2.162  0.00  0.00    -0.024 A 
ATOM      2  C   UNL     1      -6.677   0.407  -1.330  0.00  0.00    +0.005 A 
ATOM      3  C   UNL     1      -6.502   0.197   0.028  0.00  0.00    +0.001 A 
ATOM      4  C   UNL     1      -5.279   0.335   0.636  0.00  0.00    +0.010 A 
ATOM      5  C   UNL     1      -4.205   0.702  -0.181  0.00  0.00    +0.003 A 
ATOM      6  C   UNL     1      -4.378   0.918  -1.572  0.00  0.00    +0.050 A 
ATOM      7  N   UNL     1      -3.159   1.258  -2.085  0.00  0.00    -0.357 N 
ATOM      8  H   UNL     1      -3.055   1.472  -3.159  0.00  0.00    +0.166 HD
ATOM      9  C   UNL     1      -2.222   1.268  -1.085  0.00  0.00    +0.020 A 
ATOM     10  C   UNL     1      -2.802   0.939   0.089  0.00  0.00    -0.017 A 
ATOM     11  C   UNL     1      -2.072   0.852   1.405  0.00  0.00    +0.059 C 
ATOM     12  C   UNL     1      -0.730   1.580   1.268  0.00  0.00    +0.078 C 
ATOM     13  C   UNL     1      -0.013   1.086   0.008  0.00  0.00    +0.028 C 
ATOM     14  C   UNL     1      -0.754   1.594  -1.233  0.00  0.00    +0.055 C 
ENDROOT
BRANCH  12  15
ATOM     15  N   UNL     1       0.100   1.302   2.443  0.00  0.00    -0.312 N 
ATOM     16  C   UNL     1       1.064   2.171   2.808  0.00  0.00    +0.217 C 
ATOM     17  O   UNL     1       1.244   3.182   2.163  0.00  0.00    -0.275 OA
ATOM     18  H   UNL     1      -0.064   0.385   3.028  0.00  0.00    +0.149 HD
BRANCH  16  19
ATOM     19  C   UNL     1       1.917   1.885   4.017  0.00  0.00    +0.079 C 
ATOM     20  C   UNL     1       2.937   3.016   4.207  0.00  0.00    +0.017 C 
ATOM     21  C   UNL     1       3.665   2.792   5.534  0.00  0.00    +0.027 C 
ATOM     22  C   UNL     1       4.156   1.377   5.622  0.00  0.00    -0.031 C 
ATOM     23  C   UNL     1       3.724   0.412   4.875  0.00  0.00    -0.030 C 
ATOM     24  C   UNL     1       2.676   0.572   3.812  0.00  0.00    +0.039 C 
ENDBRANCH  16  19
ENDBRANCH  12  15
BRANCH   1  26
ATOM     25  C   UNL     1      -5.506  -0.292  -4.400  0.00  0.00    +0.009 C 
ATOM     26  C   UNL     1      -5.840   0.992  -3.638  0.00  0.00    +0.034 C 
ENDBRANCH   1  26
TORSDOF 3
