REMARK  Name = ZINC38734305
REMARK  11 active torsions:
REMARK  status: ('A' for Active; 'I' for Inactive)
REMARK    1  A    between atoms: C_1  and  C_2
REMARK    2  A    between atoms: C_4  and  C_36
REMARK    3  A    between atoms: N_7  and  C_11
REMARK    4  A    between atoms: C_8  and  C_10
REMARK    5  A    between atoms: C_14  and  C_17
REMARK    6  A    between atoms: N_19  and  C_20
REMARK    7  A    between atoms: C_20  and  C_22
REMARK    8  A    between atoms: C_20  and  C_32
REMARK    9  A    between atoms: C_22  and  C_23
REMARK   10  A    between atoms: C_32  and  O_34
REMARK   11  A    between atoms: O_34  and  C_35
REMARK                            x       y       z     vdW  Elec       q    Type
REMARK                         _______ _______ _______ _____ _____    ______ ____
ROOT
ATOM      1  C   UNL     1       0.086  -5.670   5.933  0.00  0.00    +0.245 C 
ATOM      2  O   UNL     1       1.001  -5.609   6.731  0.00  0.00    -0.270 OA
ATOM      3  N   UNL     1      -0.844  -6.639   6.047  0.00  0.00    -0.298 N 
ATOM      4  H   UNL     1      -1.574  -6.687   5.410  0.00  0.00    +0.150 HD
ENDROOT
BRANCH   1   8
ATOM      5  C   UNL     1      -0.181  -2.830   2.787  0.00  0.00    +0.045 A 
ATOM      6  C   UNL     1       0.867  -2.759   3.700  0.00  0.00    +0.025 A 
ATOM      7  C   UNL     1       0.956  -3.677   4.721  0.00  0.00    +0.015 A 
ATOM      8  C   UNL     1      -0.007  -4.683   4.840  0.00  0.00    +0.037 A 
ATOM      9  C   UNL     1      -1.059  -4.752   3.922  0.00  0.00    +0.015 A 
ATOM     10  C   UNL     1      -1.145  -3.827   2.906  0.00  0.00    +0.025 A 
BRANCH   5  15
ATOM     11  C   UNL     1       0.280  -1.034  -1.736  0.00  0.00    +0.011 C 
ATOM     12  C   UNL     1      -0.461  -0.874  -0.407  0.00  0.00    +0.026 C 
ATOM     13  C   UNL     1       0.365  -0.021   0.594  0.00  0.00    +0.074 C 
ATOM     14  N   UNL     1      -0.107  -0.546   1.901  0.00  0.00    -0.237 NA
ATOM     15  N   UNL     1      -0.268  -1.900   1.757  0.00  0.00    -0.264 N 
ATOM     16  C   UNL     1      -0.548  -2.222   0.348  0.00  0.00    +0.092 C 
ATOM     17  C   UNL     1       0.500  -3.199  -0.190  0.00  0.00    +0.030 C 
ATOM     18  C   UNL     1       1.865  -0.265   0.414  0.00  0.00    +0.026 C 
ATOM     19  H   UNL     1      -0.972  -0.106   2.177  0.00  0.00    +0.145 HD
ENDBRANCH   5  15
ENDBRANCH   1   8
BRANCH   3  20
ATOM     20  C   UNL     1      -0.752  -7.619   7.132  0.00  0.00    +0.186 C 
BRANCH  20  21
ATOM     21  C   UNL     1       0.161  -8.743   6.717  0.00  0.00    +0.328 C 
ATOM     22  O   UNL     1       0.681  -8.728   5.626  0.00  0.00    -0.249 OA
BRANCH  21  23
ATOM     23  O   UNL     1       0.396  -9.762   7.558  0.00  0.00    -0.467 OA
ATOM     24  C   UNL     1       1.272 -10.794   7.099  0.00  0.00    +0.280 C 
ENDBRANCH  21  23
ENDBRANCH  20  21
BRANCH  20  25
ATOM     25  C   UNL     1      -2.144  -8.177   7.434  0.00  0.00    +0.071 C 
BRANCH  25  26
ATOM     26  C   UNL     1      -3.023  -7.074   7.966  0.00  0.00    -0.020 A 
ATOM     27  C   UNL     1      -3.793  -6.114   7.172  0.00  0.00    +0.003 A 
ATOM     28  C   UNL     1      -3.967  -5.905   5.803  0.00  0.00    +0.010 A 
ATOM     29  C   UNL     1      -4.777  -4.894   5.368  0.00  0.00    +0.001 A 
ATOM     30  C   UNL     1      -5.429  -4.073   6.277  0.00  0.00    +0.002 A 
ATOM     31  C   UNL     1      -5.272  -4.261   7.633  0.00  0.00    +0.026 A 
ATOM     32  C   UNL     1      -4.452  -5.284   8.098  0.00  0.00    +0.047 A 
ATOM     33  N   UNL     1      -4.099  -5.719   9.356  0.00  0.00    -0.360 N 
ATOM     34  C   UNL     1      -3.252  -6.789   9.258  0.00  0.00    +0.087 A 
ATOM     35  H   UNL     1      -4.409  -5.327  10.188  0.00  0.00    +0.165 HD
ENDBRANCH  25  26
ENDBRANCH  20  25
ENDBRANCH   3  20
TORSDOF 7
