REMARK  Name = ZINC46556303
REMARK  4 active torsions:
REMARK  status: ('A' for Active; 'I' for Inactive)
REMARK    1  A    between atoms: C_8  and  C_10
REMARK    2  A    between atoms: N_15  and  C_16
REMARK    3  A    between atoms: C_16  and  C_17
REMARK    4  A    between atoms: C_30  and  C_32
REMARK                            x       y       z     vdW  Elec       q    Type
REMARK                         _______ _______ _______ _____ _____    ______ ____
ROOT
ATOM      1  C   UNL     1       4.778  -5.302  -3.100  0.00  0.00    +0.204 C 
ATOM      2  O   UNL     1       5.782  -4.623  -3.046  0.00  0.00    -0.277 OA
ATOM      3  N   UNL     1       4.602  -6.164  -4.121  0.00  0.00    -0.259 N 
ATOM      4  C   UNL     1       3.444  -6.950  -4.199  0.00  0.00    +0.058 A 
ATOM      5  C   UNL     1       3.248  -8.008  -3.326  0.00  0.00    +0.025 A 
ATOM      6  C   UNL     1       2.110  -8.787  -3.433  0.00  0.00    +0.002 A 
ATOM      7  C   UNL     1       1.168  -8.514  -4.409  0.00  0.00    +0.002 A 
ATOM      8  C   UNL     1       1.352  -7.454  -5.278  0.00  0.00    +0.025 A 
ATOM      9  C   UNL     1       2.484  -6.663  -5.170  0.00  0.00    +0.055 A 
ATOM     10  N   UNL     1       2.665  -5.551  -6.001  0.00  0.00    -0.284 N 
ATOM     11  C   UNL     1       3.841  -5.354  -6.634  0.00  0.00    +0.219 C 
ATOM     12  O   UNL     1       4.014  -4.344  -7.284  0.00  0.00    -0.275 OA
ATOM     13  C   UNL     1       4.941  -6.378  -6.538  0.00  0.00    +0.128 C 
ATOM     14  C   UNL     1       5.614  -6.293  -5.171  0.00  0.00    +0.194 C 
ATOM     15  H   UNL     1       1.940  -4.919  -6.123  0.00  0.00    +0.155 HD
ENDROOT
BRANCH  14  16
ATOM     16  C   UNL     1       6.434  -7.562  -4.934  0.00  0.00    +0.409 C 
ATOM     17  F   UNL     1       5.588  -8.676  -4.961  0.00  0.00    -0.169 F 
ATOM     18  F   UNL     1       7.402  -7.687  -5.937  0.00  0.00    -0.169 F 
ATOM     19  F   UNL     1       7.063  -7.485  -3.687  0.00  0.00    -0.169 F 
ENDBRANCH  14  16
BRANCH   1  20
ATOM     20  C   UNL     1       3.728  -5.180  -2.026  0.00  0.00    +0.020 C 
BRANCH  20  25
ATOM     21  C   UNL     1       3.078  -3.972  -0.050  0.00  0.00    -0.011 C 
ATOM     22  C   UNL     1       3.636  -4.371   1.333  0.00  0.00    -0.010 C 
ATOM     23  C   UNL     1       4.811  -5.319   0.975  0.00  0.00    -0.020 C 
ATOM     24  C   UNL     1       5.357  -4.666  -0.320  0.00  0.00    -0.077 C 
ATOM     25  N   UNL     1       4.154  -4.182  -1.036  0.00  0.00    +0.391 N 
ATOM     26  H   UNL     1       4.362  -3.311  -1.502  0.00  0.00    -0.080 HD
BRANCH  21  34
ATOM     27  C   UNL     1      -0.016   1.357   0.009  0.00  0.00    +0.002 A 
ATOM     28  C   UNL     1       1.156   2.100   0.002  0.00  0.00    +0.001 A 
ATOM     29  C   UNL     1       2.375   1.449  -0.013  0.00  0.00    +0.017 A 
ATOM     30  C   UNL     1       2.404   0.076  -0.021  0.00  0.00    +0.039 A 
ATOM     31  C   UNL     1       1.226  -0.705  -0.013  0.00  0.00    +0.078 A 
ATOM     32  C   UNL     1       0.002  -0.004   0.002  0.00  0.00    +0.029 A 
ATOM     33  N   UNL     1       1.464  -2.033  -0.023  0.00  0.00    -0.246 NA
ATOM     34  C   UNL     1       2.669  -2.521  -0.038  0.00  0.00    +0.066 A 
ATOM     35  S   UNL     1       3.669  -1.167  -0.040  0.00  0.00    -0.074 S 
ENDBRANCH  21  34
ENDBRANCH  20  25
ENDBRANCH   1  20
TORSDOF 4
