REMARK  Name = ZINC10325404
REMARK  7 active torsions:
REMARK  status: ('A' for Active; 'I' for Inactive)
REMARK    1  A    between atoms: C_1  and  C_2
REMARK    2  A    between atoms: C_3  and  C_17
REMARK    3  A    between atoms: C_17  and  C_18
REMARK    4  A    between atoms: C_21  and  C_24
REMARK    5  A    between atoms: C_24  and  C_25
REMARK    6  A    between atoms: C_24  and  C_26
REMARK    7  A    between atoms: C_24  and  C_27
REMARK                            x       y       z     vdW  Elec       q    Type
REMARK                         _______ _______ _______ _____ _____    ______ ____
ROOT
ATOM      1  C   UNL     1      -3.005   0.087   1.149  0.00  0.00    +0.064 C 
ATOM      2  C   UNL     1      -2.614   1.287   1.973  0.00  0.00    +0.024 A 
ATOM      3  C   UNL     1      -1.664   2.134   1.521  0.00  0.00    +0.041 A 
ATOM      4  C   UNL     1      -1.307   3.260   2.296  0.00  0.00    +0.264 A 
ATOM      5  O   UNL     1      -0.455   4.032   1.894  0.00  0.00    -0.267 OA
ATOM      6  N   UNL     1      -1.911   3.477   3.479  0.00  0.00    -0.245 N 
ATOM      7  C   UNL     1      -1.768   4.475   4.431  0.00  0.00    +0.078 A 
ATOM      8  C   UNL     1      -0.969   5.603   4.529  0.00  0.00    +0.028 A 
ATOM      9  C   UNL     1      -1.066   6.420   5.636  0.00  0.00    +0.002 A 
ATOM     10  C   UNL     1      -1.960   6.121   6.654  0.00  0.00    +0.002 A 
ATOM     11  C   UNL     1      -2.762   5.005   6.573  0.00  0.00    +0.030 A 
ATOM     12  C   UNL     1      -2.675   4.166   5.458  0.00  0.00    +0.092 A 
ATOM     13  N   UNL     1      -3.315   3.024   5.099  0.00  0.00    -0.212 NA
ATOM     14  C   UNL     1      -2.871   2.611   3.934  0.00  0.00    +0.217 A 
ATOM     15  N   UNL     1      -3.217   1.513   3.175  0.00  0.00    -0.329 N 
ATOM     16  H   UNL     1      -3.897   0.900   3.497  0.00  0.00    +0.168 HD
ENDROOT
BRANCH   3  17
ATOM     17  C   UNL     1      -0.993   1.883   0.196  0.00  0.00    +0.077 C 
BRANCH  17  18
ATOM     18  C   UNL     1       0.284   1.114   0.416  0.00  0.00    -0.043 A 
ATOM     19  C   UNL     1       1.452   1.787   0.723  0.00  0.00    +0.004 A 
ATOM     20  C   UNL     1       2.625   1.082   0.919  0.00  0.00    +0.004 A 
ATOM     21  C   UNL     1       2.629  -0.296   0.809  0.00  0.00    -0.042 A 
ATOM     22  C   UNL     1       1.461  -0.969   0.503  0.00  0.00    +0.004 A 
ATOM     23  C   UNL     1       0.289  -0.264   0.306  0.00  0.00    +0.004 A 
BRANCH  21  24
ATOM     24  C   UNL     1       3.908  -1.065   1.024  0.00  0.00    -0.013 C 
ATOM     25  C   UNL     1       4.253  -1.846  -0.246  0.00  0.00    +0.015 C 
ATOM     26  C   UNL     1       5.041  -0.089   1.347  0.00  0.00    +0.015 C 
ATOM     27  C   UNL     1       3.727  -2.040   2.189  0.00  0.00    +0.015 C 
ENDBRANCH  21  24
ENDBRANCH  17  18
ENDBRANCH   3  17
TORSDOF 3
