REMARK  Name = ZINC45782684
REMARK  6 active torsions:
REMARK  status: ('A' for Active; 'I' for Inactive)
REMARK    1  A    between atoms: C_1  and  C_2
REMARK    2  A    between atoms: C_9  and  C_11
REMARK    3  A    between atoms: N_13  and  C_14
REMARK    4  A    between atoms: C_14  and  C_16
REMARK    5  A    between atoms: C_14  and  C_17
REMARK    6  A    between atoms: C_20  and  N_23
REMARK                            x       y       z     vdW  Elec       q    Type
REMARK                         _______ _______ _______ _____ _____    ______ ____
ROOT
ATOM      1  C   UNL     1       1.969  -7.596   3.445  0.00  0.00    +0.100 C 
ATOM      2  C   UNL     1       3.499  -7.632   3.440  0.00  0.00    +0.033 C 
ENDROOT
BRANCH   1   3
ATOM      3  C   UNL     1       1.434  -8.900   2.912  0.00  0.00    -0.027 A 
ATOM      4  C   UNL     1       1.396  -9.124   1.548  0.00  0.00    +0.007 A 
ATOM      5  C   UNL     1       0.907 -10.318   1.056  0.00  0.00    +0.023 A 
ATOM      6  C   UNL     1       0.452 -11.294   1.933  0.00  0.00    +0.035 A 
ATOM      7  C   UNL     1       0.492 -11.066   3.302  0.00  0.00    +0.023 A 
ATOM      8  C   UNL     1       0.988  -9.873   3.788  0.00  0.00    +0.007 A 
BRANCH   6   9
ATOM      9  N   UNL     1      -0.045 -12.505   1.438  0.00  0.00    -0.270 N 
ATOM     10  C   UNL     1       0.472 -13.036   0.312  0.00  0.00    +0.301 C 
ATOM     11  O   UNL     1       1.434 -12.515  -0.220  0.00  0.00    -0.253 OA
ATOM     12  N   UNL     1      -0.076 -14.144  -0.225  0.00  0.00    -0.313 N 
ATOM     13  H   UNL     1      -0.761 -12.963   1.905  0.00  0.00    +0.156 HD
ATOM     14  H   UNL     1      -0.843 -14.560   0.200  0.00  0.00    +0.146 HD
ATOM     15  H   UNL     1       0.296 -14.526  -1.035  0.00  0.00    +0.146 HD
ENDBRANCH   6   9
ENDBRANCH   1   3
BRANCH   1  18
ATOM     16  C   UNL     1       1.406  -5.250   3.106  0.00  0.00    +0.251 C 
ATOM     17  O   UNL     1       1.704  -5.041   4.267  0.00  0.00    -0.270 OA
ATOM     18  N   UNL     1       1.504  -6.495   2.599  0.00  0.00    -0.304 N 
ATOM     19  H   UNL     1       1.266  -6.661   1.673  0.00  0.00    +0.150 HD
BRANCH  16  27
ATOM     20  C   UNL     1      -0.939   1.554   0.761  0.00  0.00    +0.008 C 
ATOM     21  C   UNL     1      -0.839   0.030   0.669  0.00  0.00    -0.009 C 
ATOM     22  C   UNL     1      -0.267  -0.362  -0.697  0.00  0.00    +0.009 C 
ATOM     23  C   UNL     1      -0.424  -1.877  -0.882  0.00  0.00    +0.043 C 
ATOM     24  C   UNL     1       0.072  -2.561   0.358  0.00  0.00    -0.006 A 
ATOM     25  C   UNL     1       0.310  -1.981   1.570  0.00  0.00    -0.036 A 
ATOM     26  C   UNL     1       0.770  -2.813   2.579  0.00  0.00    +0.024 A 
ATOM     27  C   UNL     1       0.940  -4.148   2.259  0.00  0.00    +0.074 A 
ATOM     28  S   UNL     1       0.445  -4.178   0.546  0.00  0.00    -0.088 S 
ATOM     29  C   UNL     1       0.076  -0.487   1.780  0.00  0.00    +0.039 C 
ENDBRANCH  16  27
ENDBRANCH   1  18
TORSDOF 4
