REMARK  Name = ZINC39664780
REMARK  13 active torsions:
REMARK  status: ('A' for Active; 'I' for Inactive)
REMARK    1  A    between atoms: C_1  and  C_2
REMARK    2  A    between atoms: C_2  and  C_3
REMARK    3  A    between atoms: C_3  and  C_4
REMARK    4  A    between atoms: C_4  and  C_5
REMARK    5  A    between atoms: C_5  and  C_6
REMARK    6  A    between atoms: C_6  and  C_7
REMARK    7  A    between atoms: C_11  and  C_20
REMARK    8  A    between atoms: N_22  and  C_23
REMARK    9  A    between atoms: C_23  and  C_25
REMARK   10  A    between atoms: C_23  and  C_29
REMARK   11  A    between atoms: C_25  and  N_26
REMARK   12  A    between atoms: N_26  and  C_27
REMARK   13  A    between atoms: N_26  and  C_28
REMARK                            x       y       z     vdW  Elec       q    Type
REMARK                         _______ _______ _______ _____ _____    ______ ____
ROOT
ATOM      1  C   UNL     1       1.899  -6.166  -1.229  0.00  0.00    +0.216 C 
ATOM      2  O   UNL     1       2.388  -5.069  -1.062  0.00  0.00    -0.276 OA
ATOM      3  N   UNL     1       2.232  -6.895  -2.313  0.00  0.00    -0.300 N 
ATOM      4  C   UNL     1       1.739  -8.241  -2.689  0.00  0.00    +0.121 C 
ATOM      5  C   UNL     1       1.558  -8.175  -4.223  0.00  0.00    +0.100 C 
ATOM      6  C   UNL     1       2.504  -7.053  -4.681  0.00  0.00    -0.004 C 
ATOM      7  C   UNL     1       3.169  -6.527  -3.401  0.00  0.00    +0.115 C 
ATOM      8  C   UNL     1       1.711  -5.936  -5.353  0.00  0.00    -0.010 C 
ATOM      9  C   UNL     1       2.678  -4.858  -5.851  0.00  0.00    -0.082 C 
ATOM     10  N   UNL     1       3.627  -5.451  -6.801  0.00  0.00    +0.379 N 
ATOM     11  C   UNL     1       4.449  -6.461  -6.124  0.00  0.00    -0.082 C 
ATOM     12  C   UNL     1       3.557  -7.606  -5.636  0.00  0.00    -0.010 C 
ATOM     13  H   UNL     1       3.118  -5.886  -7.556  0.00  0.00    -0.086 HD
ATOM     14  H   UNL     1       4.224  -4.728  -7.175  0.00  0.00    -0.086 HD
ENDROOT
BRANCH   5  15
ATOM     15  C   UNL     1       0.131  -7.837  -4.569  0.00  0.00    +0.219 C 
ATOM     16  O   UNL     1      -0.437  -8.440  -5.454  0.00  0.00    -0.275 OA
ATOM     17  N   UNL     1      -0.513  -6.864  -3.895  0.00  0.00    -0.310 N 
ATOM     18  H   UNL     1      -0.040  -6.337  -3.232  0.00  0.00    +0.149 HD
BRANCH  17  19
ATOM     19  C   UNL     1      -1.930  -6.602  -4.163  0.00  0.00    +0.087 C 
BRANCH  19  20
ATOM     20  C   UNL     1      -2.105  -5.164  -4.578  0.00  0.00    -0.029 A 
ATOM     21  C   UNL     1      -1.381  -4.170  -3.948  0.00  0.00    +0.005 A 
ATOM     22  C   UNL     1      -1.541  -2.851  -4.329  0.00  0.00    +0.000 A 
ATOM     23  C   UNL     1      -2.426  -2.526  -5.341  0.00  0.00    +0.000 A 
ATOM     24  C   UNL     1      -3.150  -3.521  -5.971  0.00  0.00    +0.000 A 
ATOM     25  C   UNL     1      -2.986  -4.841  -5.593  0.00  0.00    +0.005 A 
ENDBRANCH  19  20
BRANCH  19  26
ATOM     26  C   UNL     1      -2.746  -6.871  -2.897  0.00  0.00    -0.052 C 
BRANCH  26  27
ATOM     27  N   UNL     1      -2.464  -8.228  -2.410  0.00  0.00    +0.377 N 
ATOM     28  C   UNL     1      -3.126  -8.431  -1.115  0.00  0.00    -0.097 C 
ATOM     29  C   UNL     1      -2.970  -9.210  -3.379  0.00  0.00    -0.097 C 
ATOM     30  H   UNL     1      -1.468  -8.346  -2.301  0.00  0.00    -0.083 HD
ENDBRANCH  26  27
ENDBRANCH  19  26
ENDBRANCH  17  19
ENDBRANCH   5  15
BRANCH   1  31
ATOM     31  C   UNL     1       0.918  -6.715  -0.225  0.00  0.00    +0.096 C 
BRANCH  31  32
ATOM     32  C   UNL     1       0.716  -5.697   0.900  0.00  0.00    +0.009 C 
BRANCH  32  33
ATOM     33  C   UNL     1      -0.279  -6.255   1.920  0.00  0.00    +0.000 C 
BRANCH  33  34
ATOM     34  C   UNL     1      -0.481  -5.237   3.044  0.00  0.00    -0.000 C 
BRANCH  34  36
ATOM     35  C   UNL     1      -1.678  -4.777   5.188  0.00  0.00    +0.004 C 
ATOM     36  C   UNL     1      -1.476  -5.794   4.064  0.00  0.00    -0.003 C 
ENDBRANCH  34  36
ENDBRANCH  33  34
ENDBRANCH  32  33
ENDBRANCH  31  32
ENDBRANCH   1  31
TORSDOF 10
