REMARK  Name = ZINC39201724
REMARK  4 active torsions:
REMARK  status: ('A' for Active; 'I' for Inactive)
REMARK    1  A    between atoms: C_4  and  C_7
REMARK    2  A    between atoms: C_8  and  C_16
REMARK    3  A    between atoms: C_16  and  N_17
REMARK    4  A    between atoms: C_20  and  C_23
REMARK                            x       y       z     vdW  Elec       q    Type
REMARK                         _______ _______ _______ _____ _____    ______ ____
ROOT
ATOM      1  N   UNL     1       2.946  -2.019   2.948  0.00  0.00    +0.383 N 
ATOM      2  C   UNL     1       4.332  -2.041   3.431  0.00  0.00    -0.078 C 
ATOM      3  C   UNL     1       4.415  -1.336   4.787  0.00  0.00    -0.006 C 
ATOM      4  C   UNL     1       3.512  -2.061   5.789  0.00  0.00    +0.072 C 
ATOM      5  C   UNL     1       2.083  -2.097   5.240  0.00  0.00    -0.006 C 
ATOM      6  C   UNL     1       2.086  -2.773   3.868  0.00  0.00    -0.078 C 
ATOM      7  H   UNL     1       2.625  -1.063   2.897  0.00  0.00    -0.081 HD
ENDROOT
BRANCH   4   8
ATOM      8  C   UNL     1       3.528  -1.327   7.105  0.00  0.00    +0.219 C 
ATOM      9  O   UNL     1       3.737  -0.132   7.130  0.00  0.00    -0.275 OA
ATOM     10  N   UNL     1       3.311  -1.997   8.254  0.00  0.00    -0.296 N 
ATOM     11  C   UNL     1       2.949  -3.422   8.240  0.00  0.00    +0.114 C 
ATOM     12  C   UNL     1       4.065  -4.229   8.913  0.00  0.00    +0.072 C 
ATOM     13  C   UNL     1       4.467  -3.538  10.194  0.00  0.00    +0.023 A 
ATOM     14  C   UNL     1       4.189  -2.247  10.478  0.00  0.00    -0.002 A 
ATOM     15  C   UNL     1       4.742  -1.966  11.786  0.00  0.00    +0.007 A 
ATOM     16  C   UNL     1       4.762  -0.815  12.581  0.00  0.00    +0.048 A 
ATOM     17  C   UNL     1       5.397  -0.915  13.807  0.00  0.00    +0.124 A 
ATOM     18  C   UNL     1       5.986  -2.096  14.233  0.00  0.00    +0.040 A 
ATOM     19  C   UNL     1       5.976  -3.246  13.463  0.00  0.00    +0.029 A 
ATOM     20  C   UNL     1       5.344  -3.174  12.223  0.00  0.00    +0.047 A 
ATOM     21  N   UNL     1       5.158  -4.100  11.237  0.00  0.00    -0.358 N 
ATOM     22  H   UNL     1       5.467  -5.019  11.270  0.00  0.00    +0.166 HD
ATOM     23  F   UNL     1       5.444   0.169  14.612  0.00  0.00    -0.205 F 
ATOM     24  C   UNL     1       3.435  -1.324   9.559  0.00  0.00    +0.145 C 
ENDBRANCH   4   8
BRANCH   1  25
ATOM     25  C   UNL     1       2.884  -2.627   1.613  0.00  0.00    -0.022 C 
BRANCH  25  27
ATOM     26  C   UNL     1       3.220  -0.676  -0.015  0.00  0.00    +0.091 A 
ATOM     27  C   UNL     1       3.668  -1.784   0.640  0.00  0.00    +0.035 A 
ATOM     28  N   UNL     1       4.962  -1.985   0.249  0.00  0.00    -0.305 N 
ATOM     29  C   UNL     1       5.886  -2.933   0.582  0.00  0.00    +0.093 A 
ATOM     30  C   UNL     1       7.123  -2.907   0.042  0.00  0.00    +0.018 A 
ATOM     31  C   UNL     1       7.476  -1.901  -0.873  0.00  0.00    +0.005 A 
ATOM     32  C   UNL     1       6.565  -0.950  -1.213  0.00  0.00    +0.047 A 
ATOM     33  C   UNL     1       5.277  -0.991  -0.640  0.00  0.00    +0.138 A 
ATOM     34  N   UNL     1       4.213  -0.215  -0.791  0.00  0.00    -0.228 NA
BRANCH  26  38
ATOM     35  C   UNL     1      -0.665   1.019   0.326  0.00  0.00    +0.000 A 
ATOM     36  C   UNL     1       0.448   1.841   0.327  0.00  0.00    +0.001 A 
ATOM     37  C   UNL     1       1.711   1.296   0.217  0.00  0.00    +0.010 A 
ATOM     38  C   UNL     1       1.864  -0.085   0.104  0.00  0.00    +0.002 A 
ATOM     39  C   UNL     1       0.740  -0.907   0.104  0.00  0.00    +0.010 A 
ATOM     40  C   UNL     1      -0.519  -0.352   0.215  0.00  0.00    +0.001 A 
ENDBRANCH  26  38
ENDBRANCH  25  27
ENDBRANCH   1  25
TORSDOF 4
