REMARK  Name = ZINC36504547
REMARK  11 active torsions:
REMARK  status: ('A' for Active; 'I' for Inactive)
REMARK    1  A    between atoms: C_1  and  C_2
REMARK    2  A    between atoms: C_5  and  S_8
REMARK    3  A    between atoms: S_8  and  C_11
REMARK    4  A    between atoms: C_11  and  N_12
REMARK    5  A    between atoms: C_13  and  C_15
REMARK    6  A    between atoms: C_15  and  C_17
REMARK    7  A    between atoms: C_15  and  N_24
REMARK    8  A    between atoms: C_22  and  C_23
REMARK    9  A    between atoms: N_24  and  C_25
REMARK   10  A    between atoms: C_25  and  C_26
REMARK   11  A    between atoms: C_31  and  C_33
REMARK                            x       y       z     vdW  Elec       q    Type
REMARK                         _______ _______ _______ _____ _____    ______ ____
ROOT
ATOM      1  C   UNL     1       3.218  -5.183   3.339  0.00  0.00    +0.193 C 
ENDROOT
BRANCH   1   2
ATOM      2  C   UNL     1       2.403  -4.016   3.834  0.00  0.00    -0.015 A 
ATOM      3  C   UNL     1       1.047  -3.959   3.572  0.00  0.00    +0.006 A 
ATOM      4  C   UNL     1       0.300  -2.888   4.026  0.00  0.00    +0.000 A 
ATOM      5  C   UNL     1       0.909  -1.874   4.742  0.00  0.00    +0.000 A 
ATOM      6  C   UNL     1       2.265  -1.932   5.004  0.00  0.00    +0.004 A 
ATOM      7  C   UNL     1       3.011  -3.005   4.554  0.00  0.00    -0.045 A 
ATOM      8  C   UNL     1       4.488  -3.070   4.845  0.00  0.00    +0.044 C 
ENDBRANCH   1   2
BRANCH   1  10
ATOM      9  N   UNL     1       2.488  -5.436   0.989  0.00  0.00    -0.294 N 
ATOM     10  C   UNL     1       2.458  -5.901   2.254  0.00  0.00    +0.239 C 
ATOM     11  O   UNL     1       1.820  -6.898   2.518  0.00  0.00    -0.273 OA
ATOM     12  H   UNL     1       2.938  -4.600   0.791  0.00  0.00    +0.150 HD
BRANCH   9  13
ATOM     13  C   UNL     1       1.843  -6.194  -0.086  0.00  0.00    +0.278 C 
BRANCH  13  14
ATOM     14  S   UNL     1       0.165  -5.557  -0.352  0.00  0.00    +0.013 S 
ATOM     15  O   UNL     1      -0.507  -5.415   0.892  0.00  0.00    -0.168 OA
ATOM     16  O   UNL     1      -0.452  -6.240  -1.434  0.00  0.00    -0.168 OA
BRANCH  14  21
ATOM     17  C   UNL     1       0.942   0.087  -2.337  0.00  0.00    +0.044 C 
ATOM     18  C   UNL     1       0.748  -1.323  -1.841  0.00  0.00    -0.050 A 
ATOM     19  C   UNL     1       0.687  -2.370  -2.742  0.00  0.00    +0.005 A 
ATOM     20  C   UNL     1       0.509  -3.663  -2.287  0.00  0.00    +0.027 A 
ATOM     21  C   UNL     1       0.393  -3.909  -0.931  0.00  0.00    +0.090 A 
ATOM     22  C   UNL     1       0.455  -2.862  -0.031  0.00  0.00    +0.027 A 
ATOM     23  C   UNL     1       0.637  -1.569  -0.485  0.00  0.00    +0.005 A 
ENDBRANCH  14  21
ENDBRANCH  13  14
ENDBRANCH   9  13
ENDBRANCH   1  10
BRANCH   1  24
ATOM     24  N   UNL     1       3.473  -6.105   4.448  0.00  0.00    -0.277 N 
ATOM     25  C   UNL     1       4.304  -7.152   4.277  0.00  0.00    +0.237 C 
ATOM     26  O   UNL     1       4.840  -7.331   3.203  0.00  0.00    -0.274 OA
BRANCH  25  27
ATOM     27  C   UNL     1       4.567  -8.101   5.418  0.00  0.00    +0.159 C 
ATOM     28  C   UNL     1       5.631  -7.511   6.369  0.00  0.00    +0.041 C 
ATOM     29  C   UNL     1       6.932  -8.134   5.813  0.00  0.00    +0.098 C 
ATOM     30  C   UNL     1       6.471  -9.396   5.118  0.00  0.00    +0.214 C 
ATOM     31  O   UNL     1       7.195 -10.314   4.793  0.00  0.00    -0.276 OA
ATOM     32  N   UNL     1       5.141  -9.354   4.914  0.00  0.00    -0.304 N 
ATOM     33  H   UNL     1       4.628 -10.060   4.490  0.00  0.00    +0.149 HD
ENDBRANCH  25  27
BRANCH  24  34
ATOM     34  C   UNL     1       2.826  -5.889   5.745  0.00  0.00    +0.183 C 
BRANCH  34  35
ATOM     35  C   UNL     1       1.456  -6.517   5.732  0.00  0.00    +0.122 A 
ATOM     36  C   UNL     1       1.162  -7.772   6.117  0.00  0.00    +0.046 A 
ATOM     37  C   UNL     1      -0.231  -7.939   5.942  0.00  0.00    +0.041 A 
ATOM     38  C   UNL     1      -0.705  -6.776   5.461  0.00  0.00    +0.195 A 
ATOM     39  O   UNL     1       0.320  -5.916   5.341  0.00  0.00    -0.466 OA
ENDBRANCH  34  35
ENDBRANCH  24  34
ENDBRANCH   1  24
TORSDOF 9
