REMARK  Name = ZINC32707951
REMARK  8 active torsions:
REMARK  status: ('A' for Active; 'I' for Inactive)
REMARK    1  A    between atoms: C_1  and  O_2
REMARK    2  A    between atoms: O_2  and  C_3
REMARK    3  A    between atoms: C_6  and  O_27
REMARK    4  A    between atoms: C_7  and  C_9
REMARK    5  A    between atoms: N_13  and  C_17
REMARK    6  A    between atoms: C_20  and  C_24
REMARK    7  A    between atoms: C_21  and  O_23
REMARK    8  A    between atoms: O_27  and  C_28
REMARK                            x       y       z     vdW  Elec       q    Type
REMARK                         _______ _______ _______ _____ _____    ______ ____
ROOT
ATOM      1  C   UNL     1       0.570  -4.247   2.686  0.00  0.00    +0.032 C 
ATOM      2  C   UNL     1       0.319  -4.923   1.535  0.00  0.00    +0.078 C 
ATOM      3  C   UNL     1      -0.443  -4.501   0.344  0.00  0.00    +0.263 C 
ATOM      4  O   UNL     1      -0.967  -3.404   0.275  0.00  0.00    -0.269 OA
ATOM      5  N   UNL     1      -0.528  -5.374  -0.646  0.00  0.00    -0.223 N 
ATOM      6  C   UNL     1       0.053  -6.588  -0.566  0.00  0.00    +0.125 C 
ATOM      7  S   UNL     1       0.056  -7.844  -1.729  0.00  0.00    -0.027 S 
ATOM      8  S   UNL     1       0.825  -6.565   1.044  0.00  0.00    -0.061 S 
ENDROOT
BRANCH   1  13
ATOM      9  C   UNL     1      -2.010  -1.527   2.793  0.00  0.00    +0.121 A 
ATOM     10  C   UNL     1      -1.296  -0.502   3.404  0.00  0.00    +0.049 A 
ATOM     11  C   UNL     1       0.019  -0.695   3.779  0.00  0.00    +0.050 A 
ATOM     12  C   UNL     1       0.638  -1.913   3.549  0.00  0.00    +0.127 A 
ATOM     13  C   UNL     1      -0.076  -2.953   2.933  0.00  0.00    +0.021 A 
ATOM     14  C   UNL     1      -1.411  -2.750   2.562  0.00  0.00    +0.057 A 
BRANCH   9  16
ATOM     15  C   UNL     1      -3.863  -0.039   2.698  0.00  0.00    +0.277 C 
ATOM     16  O   UNL     1      -3.305  -1.326   2.429  0.00  0.00    -0.495 OA
ENDBRANCH   9  16
BRANCH  12  17
ATOM     17  O   UNL     1       1.931  -2.100   3.918  0.00  0.00    -0.495 OA
ATOM     18  C   UNL     1       2.595  -0.997   4.538  0.00  0.00    +0.277 C 
ENDBRANCH  12  17
ENDBRANCH   1  13
BRANCH   5  19
ATOM     19  C   UNL     1      -1.236  -5.031  -1.799  0.00  0.00    +0.046 A 
ATOM     20  C   UNL     1      -0.571  -4.442  -2.872  0.00  0.00    +0.025 A 
ATOM     21  C   UNL     1      -1.252  -4.103  -4.005  0.00  0.00    +0.020 A 
ATOM     22  C   UNL     1      -2.628  -4.346  -4.096  0.00  0.00    +0.105 A 
ATOM     23  C   UNL     1      -3.303  -4.941  -3.016  0.00  0.00    +0.133 A 
ATOM     24  C   UNL     1      -2.599  -5.285  -1.875  0.00  0.00    +0.070 A 
BRANCH  22  25
ATOM     25  C   UNL     1      -3.363  -3.981  -5.314  0.00  0.00    +0.390 C 
ATOM     26  O   UNL     1      -2.773  -3.463  -6.253  0.00  0.00    -0.240 OA
ATOM     27  O   UNL     1      -4.566  -4.195  -5.391  0.00  0.00    -0.240 OA
ENDBRANCH  22  25
BRANCH  23  28
ATOM     28  O   UNL     1      -4.636  -5.181  -3.094  0.00  0.00    -0.506 OA
ATOM     29  H   UNL     1      -4.858  -6.050  -3.455  0.00  0.00    +0.292 HD
ENDBRANCH  23  28
ENDBRANCH   5  19
TORSDOF 6
