REMARK  Name = ZINC39634881
REMARK  16 active torsions:
REMARK  status: ('A' for Active; 'I' for Inactive)
REMARK    1  A    between atoms: C_1  and  C_2
REMARK    2  A    between atoms: C_2  and  C_3
REMARK    3  A    between atoms: C_2  and  C_4
REMARK    4  A    between atoms: C_4  and  C_6
REMARK    5  A    between atoms: C_4  and  O_31
REMARK    6  A    between atoms: C_10  and  C_19
REMARK    7  A    between atoms: N_21  and  C_22
REMARK    8  A    between atoms: C_22  and  C_23
REMARK    9  A    between atoms: C_23  and  N_24
REMARK   10  A    between atoms: N_24  and  C_25
REMARK   11  A    between atoms: N_24  and  C_28
REMARK   12  A    between atoms: C_25  and  C_26
REMARK   13  A    between atoms: C_25  and  C_27
REMARK   14  A    between atoms: C_28  and  C_29
REMARK   15  A    between atoms: C_28  and  C_30
REMARK   16  A    between atoms: O_31  and  C_32
REMARK                            x       y       z     vdW  Elec       q    Type
REMARK                         _______ _______ _______ _____ _____    ______ ____
ROOT
ATOM      1  C   UNL     1      -1.173  -2.635  -0.258  0.00  0.00    +0.257 C 
ATOM      2  O   UNL     1      -1.863  -3.329  -0.975  0.00  0.00    -0.272 OA
ATOM      3  N   UNL     1      -0.248  -3.203   0.541  0.00  0.00    -0.297 N 
ATOM      4  C   UNL     1       0.746  -2.524   1.405  0.00  0.00    +0.121 C 
ATOM      5  C   UNL     1       0.790  -3.377   2.693  0.00  0.00    +0.100 C 
ATOM      6  C   UNL     1       0.304  -4.769   2.259  0.00  0.00    -0.004 C 
ATOM      7  C   UNL     1       0.000  -4.649   0.758  0.00  0.00    +0.115 C 
ATOM      8  C   UNL     1      -0.963  -5.148   3.019  0.00  0.00    -0.010 C 
ATOM      9  C   UNL     1      -1.394  -6.560   2.612  0.00  0.00    -0.082 C 
ATOM     10  N   UNL     1      -0.316  -7.509   2.915  0.00  0.00    +0.379 N 
ATOM     11  C   UNL     1       0.870  -7.193   2.110  0.00  0.00    -0.082 C 
ATOM     12  C   UNL     1       1.397  -5.808   2.495  0.00  0.00    -0.010 C 
ATOM     13  H   UNL     1      -0.082  -7.449   3.894  0.00  0.00    -0.086 HD
ATOM     14  H   UNL     1      -0.625  -8.446   2.703  0.00  0.00    -0.086 HD
ENDROOT
BRANCH   5  15
ATOM     15  C   UNL     1       2.199  -3.451   3.224  0.00  0.00    +0.218 C 
ATOM     16  O   UNL     1       3.139  -3.310   2.471  0.00  0.00    -0.275 OA
ATOM     17  N   UNL     1       2.413  -3.676   4.535  0.00  0.00    -0.317 N 
ATOM     18  H   UNL     1       1.661  -3.789   5.138  0.00  0.00    +0.149 HD
BRANCH  17  19
ATOM     19  C   UNL     1       3.782  -3.748   5.052  0.00  0.00    +0.085 C 
BRANCH  19  20
ATOM     20  C   UNL     1       3.746  -4.010   6.559  0.00  0.00    -0.059 C 
BRANCH  20  21
ATOM     21  N   UNL     1       5.108  -3.926   7.103  0.00  0.00    +0.384 N 
ATOM     22  H   UNL     1       5.510  -3.031   6.867  0.00  0.00    -0.081 HD
BRANCH  21  23
ATOM     23  C   UNL     1       5.061  -4.072   8.564  0.00  0.00    -0.074 C 
ATOM     24  C   UNL     1       6.457  -3.837   9.145  0.00  0.00    -0.014 C 
ATOM     25  C   UNL     1       4.087  -3.046   9.148  0.00  0.00    -0.014 C 
ENDBRANCH  21  23
BRANCH  21  26
ATOM     26  C   UNL     1       5.931  -5.000   6.531  0.00  0.00    -0.074 C 
ATOM     27  C   UNL     1       5.063  -6.238   6.297  0.00  0.00    -0.014 C 
ATOM     28  C   UNL     1       6.522  -4.534   5.199  0.00  0.00    -0.014 C 
ENDBRANCH  21  26
ENDBRANCH  20  21
ENDBRANCH  19  20
ENDBRANCH  17  19
ENDBRANCH   5  15
BRANCH   1  29
ATOM     29  C   UNL     1      -1.351  -1.139  -0.260  0.00  0.00    +0.261 C 
BRANCH  29  31
ATOM     30  C   UNL     1      -1.990   0.835   1.131  0.00  0.00    +0.011 C 
ATOM     31  C   UNL     1      -1.942  -0.693   1.078  0.00  0.00    +0.033 C 
ATOM     32  C   UNL     1      -3.359  -1.253   1.222  0.00  0.00    +0.011 C 
ENDBRANCH  29  31
BRANCH  29  33
ATOM     33  O   UNL     1      -2.234  -0.765  -1.320  0.00  0.00    -0.479 OA
BRANCH  33  34
ATOM     34  C   UNL     1      -1.994   0.423  -1.933  0.00  0.00    +0.122 A 
ATOM     35  C   UNL     1      -0.875   1.168  -1.591  0.00  0.00    +0.045 A 
ATOM     36  C   UNL     1      -0.632   2.376  -2.217  0.00  0.00    +0.004 A 
ATOM     37  C   UNL     1      -1.504   2.842  -3.184  0.00  0.00    +0.000 A 
ATOM     38  C   UNL     1      -2.620   2.101  -3.527  0.00  0.00    +0.004 A 
ATOM     39  C   UNL     1      -2.864   0.890  -2.908  0.00  0.00    +0.045 A 
ENDBRANCH  33  34
ENDBRANCH  29  33
ENDBRANCH   1  29
TORSDOF 10
