REMARK  Name = ZINC19936381
REMARK  4 active torsions:
REMARK  status: ('A' for Active; 'I' for Inactive)
REMARK    1  A    between atoms: C_4  and  N_11
REMARK    2  A    between atoms: C_5  and  C_7
REMARK    3  A    between atoms: N_11  and  S_12
REMARK    4  A    between atoms: S_12  and  C_15
REMARK                            x       y       z     vdW  Elec       q    Type
REMARK                         _______ _______ _______ _____ _____    ______ ____
ROOT
ATOM      1  S   UNL     1      -2.839   0.844  -0.005  0.00  0.00    +0.072 S 
ATOM      2  O   UNL     1      -3.898   1.656  -0.493  0.00  0.00    -0.150 OA
ATOM      3  O   UNL     1      -2.529  -0.423  -0.567  0.00  0.00    -0.150 OA
ENDROOT
BRANCH   1   4
ATOM      4  C   UNL     1      -1.372   1.814  -0.110  0.00  0.00    +0.112 A 
ATOM      5  C   UNL     1      -1.458   3.196  -0.109  0.00  0.00    +0.031 A 
ATOM      6  C   UNL     1      -0.313   3.963  -0.196  0.00  0.00    +0.033 A 
ATOM      7  C   UNL     1       0.926   3.346  -0.279  0.00  0.00    +0.113 A 
ATOM      8  C   UNL     1       1.014   1.955  -0.274  0.00  0.00    +0.161 A 
ATOM      9  C   UNL     1      -0.141   1.193  -0.186  0.00  0.00    +0.077 A 
ATOM     10  O   UNL     1       2.328   1.634  -0.365  0.00  0.00    -0.406 OA
ATOM     11  C   UNL     1       3.054   2.762  -0.425  0.00  0.00    +0.441 A 
ATOM     12  O   UNL     1       4.266   2.814  -0.511  0.00  0.00    -0.221 OA
ATOM     13  N   UNL     1       2.231   3.828  -0.376  0.00  0.00    -0.172 NA
ENDBRANCH   1   4
BRANCH   1  14
ATOM     14  N   UNL     1      -3.142   0.587   1.603  0.00  0.00    -0.216 N 
ATOM     15  H   UNL     1      -3.174  -0.439   1.999  0.00  0.00    +0.174 HD
BRANCH  14  19
ATOM     16  C   UNL     1      -3.782   3.823   4.144  0.00  0.00    +0.001 A 
ATOM     17  C   UNL     1      -4.244   3.866   2.841  0.00  0.00    +0.002 A 
ATOM     18  C   UNL     1      -4.029   2.797   1.994  0.00  0.00    +0.025 A 
ATOM     19  C   UNL     1      -3.357   1.672   2.455  0.00  0.00    +0.060 A 
ATOM     20  C   UNL     1      -2.894   1.631   3.764  0.00  0.00    +0.077 A 
ATOM     21  C   UNL     1      -3.108   2.707   4.605  0.00  0.00    +0.014 A 
BRANCH  20  22
ATOM     22  C   UNL     1      -2.159   0.416   4.267  0.00  0.00    +0.419 C 
ATOM     23  F   UNL     1      -1.796   0.610   5.604  0.00  0.00    -0.166 F 
ATOM     24  F   UNL     1      -2.990  -0.706   4.168  0.00  0.00    -0.166 F 
ATOM     25  F   UNL     1      -1.009   0.214   3.496  0.00  0.00    -0.166 F 
ENDBRANCH  20  22
ENDBRANCH  14  19
ENDBRANCH   1  14
TORSDOF 4
