REMARK  Name = ZINC24952881
REMARK  10 active torsions:
REMARK  status: ('A' for Active; 'I' for Inactive)
REMARK    1  A    between atoms: C_1  and  C_2
REMARK    2  A    between atoms: C_3  and  C_33
REMARK    3  A    between atoms: C_7  and  N_32
REMARK    4  A    between atoms: C_9  and  C_11
REMARK    5  A    between atoms: C_11  and  S_12
REMARK    6  A    between atoms: S_12  and  C_13
REMARK    7  A    between atoms: C_16  and  C_25
REMARK    8  A    between atoms: N_17  and  C_18
REMARK    9  A    between atoms: C_18  and  C_19
REMARK   10  A    between atoms: C_25  and  N_26
REMARK                            x       y       z     vdW  Elec       q    Type
REMARK                         _______ _______ _______ _____ _____    ______ ____
ROOT
ATOM      1  C   UNL     1       1.609   1.815   0.012  0.00  0.00    +0.192 A 
ATOM      2  N   UNL     1       2.605   0.961  -0.018  0.00  0.00    -0.123 NA
ATOM      3  N   UNL     1       3.724   1.594  -0.004  0.00  0.00    -0.135 NA
ATOM      4  C   UNL     1       3.510   2.879   0.036  0.00  0.00    +0.118 A 
ATOM      5  N   UNL     1       2.155   3.066   0.042  0.00  0.00    -0.303 N 
ENDROOT
BRANCH   1   6
ATOM      6  S   UNL     1      -0.109   1.423   0.007  0.00  0.00    -0.078 S 
BRANCH   6   7
ATOM      7  C   UNL     1      -0.018  -0.384  -0.047  0.00  0.00    +0.153 C 
BRANCH   7  16
ATOM      8  C   UNL     1      -6.116  -2.925   0.910  0.00  0.00    +0.045 C 
ATOM      9  C   UNL     1      -5.261  -2.536  -0.269  0.00  0.00    -0.028 A 
ATOM     10  C   UNL     1      -5.722  -2.686  -1.520  0.00  0.00    -0.008 A 
ATOM     11  S   UNL     1      -4.377  -2.100  -2.532  0.00  0.00    -0.074 S 
ATOM     12  C   UNL     1      -3.232  -1.670  -1.248  0.00  0.00    +0.114 A 
ATOM     13  C   UNL     1      -3.929  -1.994  -0.064  0.00  0.00    +0.050 A 
ATOM     14  C   UNL     1      -3.226  -1.743   1.146  0.00  0.00    +0.128 A 
ATOM     15  N   UNL     1      -2.002  -1.243   1.089  0.00  0.00    -0.216 NA
ATOM     16  C   UNL     1      -1.411  -0.958  -0.058  0.00  0.00    +0.143 A 
ATOM     17  N   UNL     1      -2.013  -1.169  -1.213  0.00  0.00    -0.224 NA
ATOM     18  C   UNL     1      -7.059  -3.221  -1.963  0.00  0.00    +0.052 C 
BRANCH  14  19
ATOM     19  N   UNL     1      -3.811  -2.023   2.368  0.00  0.00    -0.343 N 
ATOM     20  H   UNL     1      -3.261  -1.825   3.299  0.00  0.00    +0.144 HD
ATOM     21  H   UNL     1      -4.827  -2.442   2.407  0.00  0.00    +0.144 HD
ENDBRANCH  14  19
ENDBRANCH   7  16
ENDBRANCH   6   7
ENDBRANCH   1   6
BRANCH   5  22
ATOM     22  C   UNL     1       1.439   4.344   0.076  0.00  0.00    +0.160 C 
BRANCH  22  23
ATOM     23  C   UNL     1       1.199   4.747   1.508  0.00  0.00    -0.028 A 
ATOM     24  C   UNL     1       0.041   4.351   2.152  0.00  0.00    +0.005 A 
ATOM     25  C   UNL     1      -0.177   4.717   3.467  0.00  0.00    +0.000 A 
ATOM     26  C   UNL     1       0.757   5.487   4.135  0.00  0.00    +0.000 A 
ATOM     27  C   UNL     1       1.912   5.887   3.489  0.00  0.00    +0.000 A 
ATOM     28  C   UNL     1       2.133   5.517   2.175  0.00  0.00    +0.005 A 
ENDBRANCH  22  23
ENDBRANCH   5  22
BRANCH   4  29
ATOM     29  C   UNL     1       4.561   3.958   0.064  0.00  0.00    -0.001 C 
BRANCH  29  30
ATOM     30  N   UNL     1       4.897   4.351  -1.311  0.00  0.00    +0.384 N 
ATOM     31  C   UNL     1       5.543   3.245  -2.030  0.00  0.00    -0.078 C 
ATOM     32  C   UNL     1       5.746   3.638  -3.496  0.00  0.00    -0.019 C 
ATOM     33  C   UNL     1       6.617   4.896  -3.566  0.00  0.00    -0.004 C 
ATOM     34  C   UNL     1       5.945   6.017  -2.768  0.00  0.00    -0.019 C 
ATOM     35  C   UNL     1       5.736   5.556  -1.325  0.00  0.00    -0.078 C 
ATOM     36  H   UNL     1       3.960   4.589  -1.835  0.00  0.00    -0.081 HD
ENDBRANCH  29  30
ENDBRANCH   4  29
TORSDOF 8
