REMARK  Name = ZINC22503772
REMARK  6 active torsions:
REMARK  status: ('A' for Active; 'I' for Inactive)
REMARK    1  A    between atoms: C_1  and  O_2
REMARK    2  A    between atoms: O_2  and  C_3
REMARK    3  A    between atoms: C_3  and  C_5
REMARK    4  A    between atoms: C_5  and  N_11
REMARK    5  A    between atoms: C_12  and  C_14
REMARK    6  A    between atoms: C_14  and  N_15
REMARK                            x       y       z     vdW  Elec       q    Type
REMARK                         _______ _______ _______ _____ _____    ______ ____
ROOT
ATOM      1  N   UNL     1       0.217   5.120   1.144  0.00  0.00    -0.215 N 
ATOM      2  C   UNL     1       1.171   4.187   1.351  0.00  0.00    +0.251 C 
ATOM      3  O   UNL     1       1.708   3.903   2.401  0.00  0.00    -0.272 OA
ATOM      4  C   UNL     1       1.427   3.575  -0.001  0.00  0.00    +0.138 C 
ATOM      5  C   UNL     1       2.889   3.756  -0.427  0.00  0.00    +0.045 C 
ATOM      6  C   UNL     1       3.521   2.410  -0.005  0.00  0.00    +0.038 C 
ATOM      7  C   UNL     1       2.378   1.416  -0.009  0.00  0.00    -0.042 A 
ATOM      8  C   UNL     1       1.169   2.092   0.002  0.00  0.00    -0.012 A 
ATOM      9  C   UNL     1      -0.017   1.377   0.010  0.00  0.00    +0.006 A 
ATOM     10  C   UNL     1       0.002  -0.004   0.002  0.00  0.00    +0.000 A 
ATOM     11  C   UNL     1       1.209  -0.678  -0.013  0.00  0.00    +0.000 A 
ATOM     12  C   UNL     1       2.393   0.032  -0.018  0.00  0.00    +0.004 A 
ATOM     13  N   UNL     1       0.517   4.282  -0.904  0.00  0.00    -0.281 N 
ATOM     14  C   UNL     1      -0.152   5.171  -0.142  0.00  0.00    +0.310 C 
ATOM     15  O   UNL     1      -0.995   5.932  -0.575  0.00  0.00    -0.252 OA
ATOM     16  H   UNL     1       0.496   4.027  -1.974  0.00  0.00    +0.152 HD
ENDROOT
BRANCH   1  17
ATOM     17  C   UNL     1      -0.344   5.972   2.196  0.00  0.00    +0.213 C 
BRANCH  17  19
ATOM     18  N   UNL     1      -2.224   5.893   3.802  0.00  0.00    -0.299 N 
ATOM     19  C   UNL     1      -1.542   5.291   2.807  0.00  0.00    +0.232 C 
ATOM     20  O   UNL     1      -1.893   4.203   2.404  0.00  0.00    -0.274 OA
ATOM     21  H   UNL     1      -1.906   6.880   4.168  0.00  0.00    +0.150 HD
BRANCH  18  22
ATOM     22  C   UNL     1      -3.389   5.231   4.396  0.00  0.00    +0.132 C 
ATOM     23  C   UNL     1      -4.445   4.992   3.316  0.00  0.00    +0.037 C 
ATOM     24  C   UNL     1      -4.872   6.332   2.714  0.00  0.00    +0.003 C 
ATOM     25  C   UNL     1      -5.458   7.221   3.812  0.00  0.00    +0.000 C 
ATOM     26  C   UNL     1      -4.401   7.461   4.893  0.00  0.00    +0.003 C 
ATOM     27  C   UNL     1      -3.975   6.120   5.495  0.00  0.00    +0.037 C 
BRANCH  22  28
ATOM     28  C   UNL     1      -2.969   3.911   4.989  0.00  0.00    +0.331 C 
ATOM     29  O   UNL     1      -3.494   3.508   5.999  0.00  0.00    -0.248 OA
BRANCH  28  31
ATOM     30  C   UNL     1      -1.656   1.922   5.021  0.00  0.00    +0.280 C 
ATOM     31  O   UNL     1      -2.010   3.183   4.394  0.00  0.00    -0.466 OA
ENDBRANCH  28  31
ENDBRANCH  22  28
ENDBRANCH  18  22
ENDBRANCH  17  19
ENDBRANCH   1  17
TORSDOF 5
