REMARK  Name = ZINC13959458
REMARK  6 active torsions:
REMARK  status: ('A' for Active; 'I' for Inactive)
REMARK    1  A    between atoms: C_3  and  O_33
REMARK    2  A    between atoms: C_6  and  C_7
REMARK    3  A    between atoms: C_13  and  C_15
REMARK    4  A    between atoms: C_16  and  N_30
REMARK    5  A    between atoms: N_18  and  C_20
REMARK    6  A    between atoms: O_33  and  C_34
REMARK                            x       y       z     vdW  Elec       q    Type
REMARK                         _______ _______ _______ _____ _____    ______ ____
ROOT
ATOM      1  C   UNL     1       0.002  -0.004   0.002  0.00  0.00    +0.080 A 
ATOM      2  C   UNL     1      -1.169  -0.710   0.009  0.00  0.00    +0.076 A 
ATOM      3  S   UNL     1      -0.545  -2.386  -0.005  0.00  0.00    -0.060 S 
ATOM      4  C   UNL     1       1.195  -1.976  -0.020  0.00  0.00    +0.165 A 
ATOM      5  N   UNL     1       1.154  -0.657  -0.018  0.00  0.00    -0.225 NA
ATOM      6  N   UNL     1       2.296  -2.822  -0.035  0.00  0.00    -0.259 N 
ATOM      7  C   UNL     1       2.120  -4.158  -0.040  0.00  0.00    +0.272 C 
ATOM      8  O   UNL     1       0.997  -4.623  -0.032  0.00  0.00    -0.268 OA
ATOM      9  H   UNL     1       3.192  -2.451  -0.041  0.00  0.00    +0.157 HD
ENDROOT
BRANCH   1  15
ATOM     10  C   UNL     1      -1.234   2.161   0.020  0.00  0.00    +0.013 A 
ATOM     11  C   UNL     1      -1.249   3.540   0.033  0.00  0.00    +0.046 A 
ATOM     12  C   UNL     1      -0.056   4.249   0.026  0.00  0.00    +0.127 A 
ATOM     13  C   UNL     1       1.157   3.573   0.010  0.00  0.00    +0.046 A 
ATOM     14  C   UNL     1       1.179   2.194   0.003  0.00  0.00    +0.013 A 
ATOM     15  C   UNL     1      -0.018   1.479   0.010  0.00  0.00    +0.001 A 
BRANCH  12  16
ATOM     16  O   UNL     1      -0.074   5.608   0.034  0.00  0.00    -0.434 OA
BRANCH  16  17
ATOM     17  C   UNL     1      -1.356   6.239   0.050  0.00  0.00    +0.541 C 
ATOM     18  F   UNL     1      -2.077   5.861  -1.087  0.00  0.00    -0.166 F 
ATOM     19  F   UNL     1      -2.054   5.847   1.197  0.00  0.00    -0.166 F 
ENDBRANCH  16  17
ENDBRANCH  12  16
ENDBRANCH   1  15
BRANCH   7  20
ATOM     20  C   UNL     1       3.291  -5.057  -0.056  0.00  0.00    +0.177 A 
ATOM     21  C   UNL     1       3.267  -6.472  -0.057  0.00  0.00    +0.176 A 
ATOM     22  C   UNL     1       4.564  -6.856  -0.077  0.00  0.00    +0.142 A 
ATOM     23  N   UNL     1       5.314  -5.733  -0.077  0.00  0.00    -0.262 N 
ATOM     24  N   UNL     1       4.559  -4.694  -0.065  0.00  0.00    -0.164 NA
BRANCH  23  25
ATOM     25  C   UNL     1       6.779  -5.704  -0.090  0.00  0.00    +0.064 C 
ATOM     26  C   UNL     1       7.301  -6.707  -1.120  0.00  0.00    +0.033 C 
ATOM     27  C   UNL     1       8.830  -6.676  -1.133  0.00  0.00    -0.008 C 
ATOM     28  C   UNL     1       9.309  -5.271  -1.503  0.00  0.00    +0.007 C 
ATOM     29  C   UNL     1       8.787  -4.267  -0.473  0.00  0.00    -0.008 C 
ATOM     30  C   UNL     1       7.258  -4.298  -0.460  0.00  0.00    +0.033 C 
ATOM     31  C   UNL     1       9.316  -4.638   0.914  0.00  0.00    +0.007 C 
ATOM     32  C   UNL     1       8.838  -6.043   1.284  0.00  0.00    -0.008 C 
ATOM     33  C   UNL     1       9.360  -7.047   0.254  0.00  0.00    +0.007 C 
ATOM     34  C   UNL     1       7.308  -6.074   1.297  0.00  0.00    +0.033 C 
ENDBRANCH  23  25
BRANCH  21  35
ATOM     35  N   UNL     1       2.073  -7.348  -0.043  0.00  0.00    +0.060 N 
ATOM     36  O   UNL     1       2.206  -8.558  -0.046  0.00  0.00    -0.126 OA
ATOM     37  O   UNL     1       0.958  -6.857  -0.029  0.00  0.00    -0.126 OA
ENDBRANCH  21  35
ENDBRANCH   7  20
TORSDOF 6
