REMARK  Name = ZINC33891529
REMARK  13 active torsions:
REMARK  status: ('A' for Active; 'I' for Inactive)
REMARK    1  A    between atoms: C_1  and  C_2
REMARK    2  A    between atoms: C_2  and  C_36
REMARK    3  A    between atoms: C_8  and  C_32
REMARK    4  A    between atoms: C_10  and  C_11
REMARK    5  A    between atoms: C_11  and  C_13
REMARK    6  A    between atoms: C_11  and  O_31
REMARK    7  A    between atoms: C_13  and  C_14
REMARK    8  A    between atoms: C_21  and  O_22
REMARK    9  A    between atoms: O_22  and  C_23
REMARK   10  A    between atoms: N_29  and  C_30
REMARK   11  A    between atoms: C_32  and  C_33
REMARK   12  A    between atoms: C_32  and  C_34
REMARK   13  A    between atoms: C_32  and  C_35
REMARK                            x       y       z     vdW  Elec       q    Type
REMARK                         _______ _______ _______ _____ _____    ______ ____
ROOT
ATOM      1  C   UNL     1      -0.791  -1.662   4.965  0.00  0.00    +0.144 C 
ENDROOT
BRANCH   1  11
ATOM      2  C   UNL     1       0.718   2.383   1.339  0.00  0.00    +0.016 C 
ATOM      3  C   UNL     1       1.063   0.894   1.270  0.00  0.00    -0.009 C 
ATOM      4  C   UNL     1      -0.164   0.080   0.810  0.00  0.00    +0.015 C 
ATOM      5  C   UNL     1      -0.819  -0.317   2.149  0.00  0.00    +0.036 C 
ATOM      6  C   UNL     1       0.312  -0.329   3.155  0.00  0.00    -0.038 A 
ATOM      7  C   UNL     1       1.394   0.367   2.650  0.00  0.00    -0.038 A 
ATOM      8  C   UNL     1       2.549   0.487   3.403  0.00  0.00    +0.008 A 
ATOM      9  C   UNL     1       2.623  -0.086   4.658  0.00  0.00    -0.041 A 
ATOM     10  C   UNL     1       1.542  -0.782   5.163  0.00  0.00    +0.010 A 
ATOM     11  C   UNL     1       0.388  -0.903   4.413  0.00  0.00    -0.015 A 
ATOM     12  C   UNL     1       2.240   0.667   0.319  0.00  0.00    +0.016 C 
BRANCH   9  13
ATOM     13  C   UNL     1       3.883   0.047   5.475  0.00  0.00    -0.013 C 
ATOM     14  C   UNL     1       4.172   1.528   5.728  0.00  0.00    +0.015 C 
ATOM     15  C   UNL     1       3.702  -0.673   6.812  0.00  0.00    +0.015 C 
ATOM     16  C   UNL     1       5.053  -0.578   4.713  0.00  0.00    +0.015 C 
ENDBRANCH   9  13
ENDBRANCH   1  11
BRANCH   1  17
ATOM     17  O   UNL     1      -0.336  -2.612   5.930  0.00  0.00    -0.387 OA
ATOM     18  H   UNL     1       0.202  -2.229   6.637  0.00  0.00    +0.210 HD
ENDBRANCH   1  17
BRANCH   1  19
ATOM     19  C   UNL     1      -1.761  -0.684   5.630  0.00  0.00    +0.025 C 
BRANCH  19  20
ATOM     20  C   UNL     1      -3.028  -1.431   6.053  0.00  0.00    -0.031 C 
ATOM     21  C   UNL     1      -2.662  -2.511   7.037  0.00  0.00    -0.012 A 
ATOM     22  C   UNL     1      -3.237  -3.764   6.986  0.00  0.00    -0.040 A 
ATOM     23  C   UNL     1      -2.877  -4.731   7.911  0.00  0.00    +0.053 A 
ATOM     24  C   UNL     1      -1.940  -4.451   8.891  0.00  0.00    +0.170 A 
ATOM     25  C   UNL     1      -1.355  -3.190   8.946  0.00  0.00    +0.208 A 
ATOM     26  C   UNL     1      -1.718  -2.224   8.018  0.00  0.00    +0.167 A 
ATOM     27  O   UNL     1      -0.473  -3.162   9.988  0.00  0.00    -0.449 OA
ATOM     28  C   UNL     1      -0.824  -4.285  10.819  0.00  0.00    +0.467 C 
ATOM     29  O   UNL     1      -1.425  -5.215   9.899  0.00  0.00    -0.452 OA
ATOM     30  C   UNL     1      -4.258  -4.117   5.934  0.00  0.00    +0.017 C 
ATOM     31  C   UNL     1      -4.803  -2.840   5.293  0.00  0.00    -0.074 C 
ATOM     32  N   UNL     1      -3.667  -2.009   4.867  0.00  0.00    +0.383 N 
ATOM     33  C   UNL     1      -4.148  -0.930   3.994  0.00  0.00    -0.095 C 
ATOM     34  H   UNL     1      -3.000  -2.578   4.368  0.00  0.00    -0.081 HD
BRANCH  26  35
ATOM     35  O   UNL     1      -1.149  -0.990   8.068  0.00  0.00    -0.491 OA
ATOM     36  C   UNL     1      -1.805  -0.004   8.868  0.00  0.00    +0.277 C 
ENDBRANCH  26  35
ENDBRANCH  19  20
ENDBRANCH   1  19
TORSDOF 6
