REMARK  Name = ZINC04978901
REMARK  5 active torsions:
REMARK  status: ('A' for Active; 'I' for Inactive)
REMARK    1  A    between atoms: C_6  and  C_7
REMARK    2  A    between atoms: C_14  and  N_27
REMARK    3  A    between atoms: C_15  and  C_25
REMARK    4  A    between atoms: C_16  and  C_18
REMARK    5  A    between atoms: C_21  and  O_24
REMARK                            x       y       z     vdW  Elec       q    Type
REMARK                         _______ _______ _______ _____ _____    ______ ____
ROOT
ATOM      1  C   UNL     1      -1.272  -0.766   0.011  0.00  0.00    +0.100 A 
ATOM      2  C   UNL     1      -1.507  -1.982  -0.637  0.00  0.00    +0.054 A 
ATOM      3  C   UNL     1      -2.796  -2.353  -0.385  0.00  0.00    +0.223 A 
ATOM      4  N   UNL     1      -3.352  -1.402   0.394  0.00  0.00    -0.246 N 
ATOM      5  H   UNL     1      -4.262  -1.399   0.730  0.00  0.00    +0.192 HD
ATOM      6  N   UNL     1      -2.380  -0.418   0.636  0.00  0.00    -0.171 NA
ATOM      7  O   UNL     1      -3.338  -3.497  -0.873  0.00  0.00    -0.423 OA
ATOM      8  C   UNL     1      -2.497  -4.413  -1.394  0.00  0.00    +0.200 C 
ATOM      9  C   UNL     1      -1.204  -4.161  -1.698  0.00  0.00    +0.098 C 
ATOM     10  C   UNL     1      -0.573  -2.808  -1.483  0.00  0.00    +0.102 C 
ENDROOT
BRANCH   1  16
ATOM     11  C   UNL     1      -0.017   1.389   0.010  0.00  0.00    +0.011 A 
ATOM     12  C   UNL     1       1.170   2.093   0.002  0.00  0.00    +0.016 A 
ATOM     13  C   UNL     1       2.378   1.417  -0.013  0.00  0.00    +0.018 A 
ATOM     14  C   UNL     1       2.402   0.033  -0.021  0.00  0.00    +0.016 A 
ATOM     15  C   UNL     1       1.221  -0.680  -0.014  0.00  0.00    +0.011 A 
ATOM     16  C   UNL     1       0.002  -0.004   0.002  0.00  0.00    +0.003 A 
ATOM     17 BR   UNL     1       4.001   2.388  -0.023  0.00  0.00    -0.050 Br
ENDBRANCH   1  16
BRANCH  10  18
ATOM     18  C   UNL     1      -0.356  -2.131  -2.812  0.00  0.00    -0.034 A 
ATOM     19  C   UNL     1      -1.432  -1.884  -3.644  0.00  0.00    +0.008 A 
ATOM     20  C   UNL     1      -1.236  -1.264  -4.863  0.00  0.00    +0.046 A 
ATOM     21  C   UNL     1       0.042  -0.888  -5.251  0.00  0.00    +0.117 A 
ATOM     22  C   UNL     1       1.120  -1.137  -4.414  0.00  0.00    +0.046 A 
ATOM     23  C   UNL     1       0.918  -1.753  -3.194  0.00  0.00    +0.008 A 
BRANCH  21  24
ATOM     24  O   UNL     1       0.237  -0.279  -6.450  0.00  0.00    -0.507 OA
ATOM     25  H   UNL     1       0.178   0.686  -6.414  0.00  0.00    +0.292 HD
ENDBRANCH  21  24
ENDBRANCH  10  18
BRANCH   8  26
ATOM     26  N   UNL     1      -2.982  -5.676  -1.631  0.00  0.00    -0.328 N 
ATOM     27  H   UNL     1      -3.906  -5.887  -1.423  0.00  0.00    +0.145 HD
ATOM     28  H   UNL     1      -2.401  -6.356  -2.005  0.00  0.00    +0.145 HD
ENDBRANCH   8  26
BRANCH   9  29
ATOM     29  C   UNL     1      -0.405  -5.217  -2.244  0.00  0.00    +0.101 C 
ATOM     30  N   UNL     1       0.229  -6.054  -2.676  0.00  0.00    -0.191 NA
ENDBRANCH   9  29
TORSDOF 5
