REMARK  Name = ZINC66792837
REMARK  7 active torsions:
REMARK  status: ('A' for Active; 'I' for Inactive)
REMARK    1  A    between atoms: C_1  and  C_2
REMARK    2  A    between atoms: C_2  and  C_3
REMARK    3  A    between atoms: C_2  and  C_4
REMARK    4  A    between atoms: C_2  and  C_5
REMARK    5  A    between atoms: N_10  and  C_12
REMARK    6  A    between atoms: C_12  and  N_13
REMARK    7  A    between atoms: C_17  and  C_20
REMARK                            x       y       z     vdW  Elec       q    Type
REMARK                         _______ _______ _______ _____ _____    ______ ____
ROOT
ATOM      1  N   UNL     1       1.185   1.639  -4.816  0.00  0.00    +0.393 N 
ATOM      2  C   UNL     1       0.576   0.618  -5.676  0.00  0.00    -0.076 C 
ATOM      3  C   UNL     1      -0.641   1.209  -6.392  0.00  0.00    -0.018 C 
ATOM      4  C   UNL     1      -0.195   2.399  -7.247  0.00  0.00    +0.009 C 
ATOM      5  C   UNL     1       0.506   3.424  -6.351  0.00  0.00    +0.059 C 
ATOM      6  C   UNL     1       1.679   2.751  -5.636  0.00  0.00    -0.064 C 
ATOM      7  H   UNL     1       0.495   1.984  -4.165  0.00  0.00    -0.079 HD
ENDROOT
BRANCH   5   8
ATOM      8  C   UNL     1       1.016   4.564  -7.195  0.00  0.00    +0.220 C 
ATOM      9  O   UNL     1       2.201   4.817  -7.219  0.00  0.00    -0.275 OA
ATOM     10  N   UNL     1       0.154   5.303  -7.922  0.00  0.00    -0.265 N 
ATOM     11  C   UNL     1       0.624   6.354  -8.700  0.00  0.00    +0.164 A 
ATOM     12  N   UNL     1       1.863   6.767  -8.853  0.00  0.00    -0.233 NA
ATOM     13  C   UNL     1       2.150   7.791  -9.635  0.00  0.00    +0.120 A 
ATOM     14  C   UNL     1       1.113   8.392 -10.268  0.00  0.00    +0.068 A 
ATOM     15  S   UNL     1      -0.253   7.404  -9.680  0.00  0.00    -0.061 S 
ATOM     16  H   UNL     1      -0.795   5.100  -7.902  0.00  0.00    +0.157 HD
ENDBRANCH   5   8
BRANCH   1  17
ATOM     17  C   UNL     1       2.304   1.046  -4.072  0.00  0.00    +0.073 C 
BRANCH  17  23
ATOM     18  C   UNL     1       0.707  -0.490  -1.238  0.00  0.00    +0.067 A 
ATOM     19  C   UNL     1       0.845  -1.869  -1.467  0.00  0.00    +0.031 A 
ATOM     20  C   UNL     1       1.489  -2.277  -2.600  0.00  0.00    +0.073 A 
ATOM     21  C   UNL     1       1.978  -1.282  -3.474  0.00  0.00    +0.266 A 
ATOM     22  O   UNL     1       2.561  -1.594  -4.500  0.00  0.00    -0.266 OA
ATOM     23  N   UNL     1       1.795   0.016  -3.163  0.00  0.00    -0.246 N 
ATOM     24  N   UNL     1       1.181   0.373  -2.093  0.00  0.00    -0.174 NA
BRANCH  18  26
ATOM     25  C   UNL     1      -0.019   1.526   0.010  0.00  0.00    +0.017 C 
ATOM     26  C   UNL     1       0.002  -0.004   0.002  0.00  0.00    +0.006 C 
ATOM     27  C   UNL     1       0.742  -0.511   1.242  0.00  0.00    +0.017 C 
ATOM     28  C   UNL     1      -1.433  -0.534   0.013  0.00  0.00    +0.017 C 
ENDBRANCH  18  26
ENDBRANCH  17  23
ENDBRANCH   1  17
TORSDOF 4
