REMARK  Name = ZINC59350306
REMARK  9 active torsions:
REMARK  status: ('A' for Active; 'I' for Inactive)
REMARK    1  A    between atoms: C_1  and  C_2
REMARK    2  A    between atoms: C_2  and  C_3
REMARK    3  A    between atoms: C_3  and  N_4
REMARK    4  A    between atoms: N_4  and  C_5
REMARK    5  A    between atoms: N_4  and  C_21
REMARK    6  A    between atoms: C_5  and  C_6
REMARK    7  A    between atoms: N_8  and  N_9
REMARK    8  A    between atoms: C_21  and  C_23
REMARK    9  A    between atoms: C_21  and  C_24
REMARK                            x       y       z     vdW  Elec       q    Type
REMARK                         _______ _______ _______ _____ _____    ______ ____
ROOT
ATOM      1  C   UNL     1      -2.818  -2.847  -1.701  0.00  0.00    +0.213 C 
ATOM      2  O   UNL     1      -2.081  -2.292  -2.488  0.00  0.00    -0.276 OA
ATOM      3  N   UNL     1      -3.964  -3.410  -2.133  0.00  0.00    -0.225 N 
ATOM      4  H   UNL     1      -4.554  -3.854  -1.504  0.00  0.00    +0.173 HD
ENDROOT
BRANCH   3   5
ATOM      5  N   UNL     1      -4.304  -3.353  -3.491  0.00  0.00    -0.137 N 
ATOM      6  C   UNL     1      -5.247  -2.536  -4.003  0.00  0.00    +0.263 C 
ATOM      7  O   UNL     1      -5.936  -1.741  -3.400  0.00  0.00    -0.271 OA
ATOM      8  C   UNL     1      -5.264  -2.819  -5.488  0.00  0.00    +0.114 C 
ATOM      9  C   UNL     1      -4.896  -1.565  -6.273  0.00  0.00    +0.035 C 
ATOM     10  C   UNL     1      -4.890  -1.881  -7.771  0.00  0.00    +0.003 C 
ATOM     11  C   UNL     1      -6.274  -2.380  -8.192  0.00  0.00    +0.000 C 
ATOM     12  C   UNL     1      -6.618  -3.651  -7.413  0.00  0.00    +0.003 C 
ATOM     13  C   UNL     1      -6.631  -3.342  -5.914  0.00  0.00    +0.035 C 
ATOM     14  N   UNL     1      -4.239  -3.856  -5.665  0.00  0.00    -0.284 N 
ATOM     15  C   UNL     1      -3.729  -4.099  -4.442  0.00  0.00    +0.326 C 
ATOM     16  O   UNL     1      -2.848  -4.908  -4.226  0.00  0.00    -0.251 OA
ATOM     17  H   UNL     1      -3.978  -4.279  -6.498  0.00  0.00    +0.151 HD
ENDBRANCH   3   5
BRANCH   1  18
ATOM     18  C   UNL     1      -2.453  -2.908  -0.240  0.00  0.00    +0.021 C 
BRANCH  18  19
ATOM     19  N   UNL     1      -1.168  -2.228  -0.028  0.00  0.00    +0.390 N 
ATOM     20  H   UNL     1      -0.470  -2.631  -0.635  0.00  0.00    -0.080 HD
BRANCH  19  21
ATOM     21  C   UNL     1      -0.754  -2.390   1.372  0.00  0.00    -0.040 C 
ATOM     22  C   UNL     1       0.571  -1.659   1.599  0.00  0.00    -0.008 C 
BRANCH  21  23
ATOM     23  C   UNL     1      -0.578  -3.855   1.677  0.00  0.00    -0.060 A 
ATOM     24  C   UNL     1       0.009  -4.690   0.744  0.00  0.00    +0.003 A 
ATOM     25  C   UNL     1       0.171  -6.034   1.022  0.00  0.00    +0.021 A 
ATOM     26  C   UNL     1      -0.255  -6.545   2.235  0.00  0.00    +0.059 A 
ATOM     27  C   UNL     1      -0.843  -5.709   3.170  0.00  0.00    +0.059 A 
ATOM     28  C   UNL     1      -0.999  -4.363   2.892  0.00  0.00    +0.023 A 
ATOM     29 CL   UNL     1      -1.378  -6.349   4.692  0.00  0.00    -0.082 Cl
ATOM     30 CL   UNL     1      -0.053  -8.233   2.585  0.00  0.00    -0.082 Cl
ENDBRANCH  21  23
ENDBRANCH  19  21
BRANCH  19  31
ATOM     31  C   UNL     1      -1.315  -0.798  -0.333  0.00  0.00    -0.078 C 
BRANCH  31  33
ATOM     32  C   UNL     1      -2.471   1.318   0.321  0.00  0.00    +0.002 C 
ATOM     33  C   UNL     1      -2.287  -0.162   0.663  0.00  0.00    -0.022 C 
ENDBRANCH  31  33
ENDBRANCH  19  31
ENDBRANCH  18  19
ENDBRANCH   1  18
TORSDOF 7
