REMARK  Name = ZINC57934712
REMARK  4 active torsions:
REMARK  status: ('A' for Active; 'I' for Inactive)
REMARK    1  A    between atoms: C_1  and  C_2
REMARK    2  A    between atoms: N_6  and  C_17
REMARK    3  A    between atoms: C_17  and  C_18
REMARK    4  A    between atoms: C_17  and  C_19
REMARK                            x       y       z     vdW  Elec       q    Type
REMARK                         _______ _______ _______ _____ _____    ______ ____
ROOT
ATOM      1  C   UNL     1      -0.154   1.414  -0.025  0.00  0.00    +0.038 C 
ATOM      2  C   UNL     1      -0.016  -0.109   0.028  0.00  0.00    +0.154 C 
ATOM      3  C   UNL     1       0.698  -0.594  -1.208  0.00  0.00    +0.240 C 
ATOM      4  O   UNL     1       0.057  -0.875  -2.198  0.00  0.00    -0.273 OA
ATOM      5  N   UNL     1       2.038  -0.719  -1.225  0.00  0.00    -0.266 N 
ATOM      6  C   UNL     1       2.797  -0.448  -0.078  0.00  0.00    +0.061 A 
ATOM      7  C   UNL     1       4.172  -0.289  -0.161  0.00  0.00    +0.075 A 
ATOM      8  C   UNL     1       4.908  -0.026   0.983  0.00  0.00    +0.168 A 
ATOM      9  C   UNL     1       4.270   0.078   2.217  0.00  0.00    +0.168 A 
ATOM     10  C   UNL     1       2.895  -0.078   2.302  0.00  0.00    +0.074 A 
ATOM     11  C   UNL     1       2.160  -0.339   1.159  0.00  0.00    +0.053 A 
ATOM     12  N   UNL     1       0.763  -0.491   1.215  0.00  0.00    -0.332 N 
ATOM     13  O   UNL     1       5.210   0.336   3.174  0.00  0.00    -0.453 OA
ATOM     14  C   UNL     1       6.473  -0.015   2.578  0.00  0.00    +0.466 C 
ATOM     15  O   UNL     1       6.248   0.169   1.168  0.00  0.00    -0.453 OA
ATOM     16  H   UNL     1       0.328  -0.837   2.010  0.00  0.00    +0.147 HD
ENDROOT
BRANCH   5  17
ATOM     17  C   UNL     1       2.711  -1.143  -2.455  0.00  0.00    +0.075 C 
ATOM     18  C   UNL     1       2.196  -2.523  -2.868  0.00  0.00    +0.028 C 
ATOM     19  C   UNL     1       2.418  -0.136  -3.569  0.00  0.00    +0.028 C 
ENDBRANCH   5  17
TORSDOF 1
