REMARK  Name = ZINC32105697
REMARK  8 active torsions:
REMARK  status: ('A' for Active; 'I' for Inactive)
REMARK    1  A    between atoms: C_1  and  C_2
REMARK    2  A    between atoms: C_6  and  C_32
REMARK    3  A    between atoms: C_7  and  N_8
REMARK    4  A    between atoms: C_9  and  C_10
REMARK    5  A    between atoms: C_13  and  O_18
REMARK    6  A    between atoms: C_14  and  O_16
REMARK    7  A    between atoms: O_16  and  C_17
REMARK    8  A    between atoms: C_22  and  C_23
REMARK                            x       y       z     vdW  Elec       q    Type
REMARK                         _______ _______ _______ _____ _____    ______ ____
ROOT
ATOM      1  C   UNL     1      -3.706   2.138   2.541  0.00  0.00    +0.013 C 
ATOM      2  C   UNL     1      -4.494   1.779   1.280  0.00  0.00    -0.011 C 
ATOM      3  C   UNL     1      -4.764   0.267   1.233  0.00  0.00    -0.066 C 
ATOM      4  N   UNL     1      -5.541  -0.045   0.023  0.00  0.00    +0.394 N 
ATOM      5  C   UNL     1      -4.773   0.283  -1.187  0.00  0.00    -0.066 C 
ATOM      6  C   UNL     1      -4.505   1.793  -1.214  0.00  0.00    -0.011 C 
ATOM      7  C   UNL     1      -3.693   2.171   0.031  0.00  0.00    +0.116 C 
ATOM      8  C   UNL     1      -5.842   2.544  -1.176  0.00  0.00    +0.089 C 
ATOM      9  N   UNL     1      -6.578   2.120   0.047  0.00  0.00    -0.310 NA
ATOM     10  C   UNL     1      -5.838   2.517   1.255  0.00  0.00    +0.089 C 
ATOM     11  C   UNL     1      -6.825   0.671   0.034  0.00  0.00    +0.033 C 
ATOM     12  C   UNL     1      -3.730   2.165  -2.479  0.00  0.00    +0.013 C 
ATOM     13  H   UNL     1      -5.749  -1.125   0.015  0.00  0.00    -0.079 HD
ENDROOT
BRANCH  11  14
ATOM     14  C   UNL     1      -7.615   0.303  -1.195  0.00  0.00    -0.044 A 
ATOM     15  C   UNL     1      -7.460  -0.946  -1.768  0.00  0.00    +0.007 A 
ATOM     16  C   UNL     1      -8.182  -1.287  -2.895  0.00  0.00    +0.050 A 
ATOM     17  C   UNL     1      -9.066  -0.378  -3.455  0.00  0.00    +0.166 A 
ATOM     18  C   UNL     1      -9.223   0.880  -2.878  0.00  0.00    +0.166 A 
ATOM     19  C   UNL     1      -8.499   1.214  -1.745  0.00  0.00    +0.052 A 
ATOM     20  O   UNL     1     -10.139   1.582  -3.606  0.00  0.00    -0.453 OA
ATOM     21  C   UNL     1     -10.842   0.599  -4.390  0.00  0.00    +0.466 C 
ATOM     22  O   UNL     1      -9.884  -0.464  -4.544  0.00  0.00    -0.453 OA
ENDBRANCH  11  14
BRANCH   7  23
ATOM     23  N   UNL     1      -2.415   1.454   0.021  0.00  0.00    -0.287 NA
ATOM     24  C   UNL     1      -1.303   2.115   0.020  0.00  0.00    +0.113 C 
BRANCH  24  25
ATOM     25  C   UNL     1      -0.017   1.393   0.010  0.00  0.00    -0.004 A 
ATOM     26  C   UNL     1       0.002  -0.004   0.002  0.00  0.00    +0.013 A 
ATOM     27  C   UNL     1       1.205  -0.677  -0.013  0.00  0.00    +0.050 A 
ATOM     28  C   UNL     1       2.399   0.030  -0.021  0.00  0.00    +0.158 A 
ATOM     29  C   UNL     1       2.388   1.424  -0.014  0.00  0.00    +0.162 A 
ATOM     30  C   UNL     1       1.186   2.105   0.002  0.00  0.00    +0.058 A 
BRANCH  29  31
ATOM     31  O   UNL     1       3.560   2.114  -0.023  0.00  0.00    -0.491 OA
ATOM     32  C   UNL     1       3.473   3.540  -0.015  0.00  0.00    +0.277 C 
ENDBRANCH  29  31
BRANCH  28  33
ATOM     33  O   UNL     1       3.582  -0.637  -0.036  0.00  0.00    -0.503 OA
ATOM     34  H   UNL     1       4.529  -0.078  -0.043  0.00  0.00    +0.292 HD
ENDBRANCH  28  33
ENDBRANCH  24  25
ENDBRANCH   7  23
TORSDOF 5
