REMARK  Name = ZINC04472508
REMARK  5 active torsions:
REMARK  status: ('A' for Active; 'I' for Inactive)
REMARK    1  A    between atoms: C_1  and  C_2
REMARK    2  A    between atoms: C_18  and  C_19
REMARK    3  A    between atoms: C_18  and  N_52
REMARK    4  A    between atoms: N_21  and  N_22
REMARK    5  A    between atoms: C_23  and  C_24
REMARK                            x       y       z     vdW  Elec       q    Type
REMARK                         _______ _______ _______ _____ _____    ______ ____
ROOT
ATOM      1  C   UNL     1      -1.298  -0.832   0.237  0.00  0.00    +0.044 C 
ATOM      2  C   UNL     1       0.013  -0.088   0.199  0.00  0.00    -0.050 A 
ATOM      3  C   UNL     1      -0.003   1.295   0.125  0.00  0.00    +0.005 A 
ATOM      4  C   UNL     1       1.160   2.043   0.088  0.00  0.00    +0.026 A 
ATOM      5  C   UNL     1       2.367   1.349   0.128  0.00  0.00    +0.049 A 
ATOM      6  C   UNL     1       2.378  -0.076   0.202  0.00  0.00    +0.003 A 
ATOM      7  C   UNL     1       1.183  -0.803   0.239  0.00  0.00    +0.013 A 
ATOM      8  C   UNL     1       3.762  -0.463   0.221  0.00  0.00    -0.020 A 
ATOM      9  C   UNL     1       4.479   0.677   0.153  0.00  0.00    +0.009 A 
ATOM     10  N   UNL     1       3.662   1.772   0.115  0.00  0.00    -0.347 N 
ATOM     11  C   UNL     1       4.215   3.135   0.091  0.00  0.00    +0.103 C 
ATOM     12  C   UNL     1       5.698   3.042  -0.285  0.00  0.00    -0.055 C 
ATOM     13  C   UNL     1       5.991   0.673   0.144  0.00  0.00    -0.020 C 
ATOM     14  C   UNL     1       6.467  -0.343   1.169  0.00  0.00    -0.009 C 
ATOM     15  C   UNL     1       5.676  -1.625   1.257  0.00  0.00    +0.003 C 
ATOM     16  C   UNL     1       4.492  -1.774   0.312  0.00  0.00    +0.037 C 
ATOM     17  N   UNL     1       6.387   2.043   0.559  0.00  0.00    +0.392 N 
ATOM     18  H   UNL     1       6.114   2.187   1.538  0.00  0.00    -0.080 HD
ENDROOT
BRANCH  17  19
ATOM     19  C   UNL     1       7.852   2.203   0.440  0.00  0.00    +0.021 C 
BRANCH  19  20
ATOM     20  C   UNL     1       8.252   3.512   1.072  0.00  0.00    +0.216 C 
ATOM     21  O   UNL     1       7.406   4.236   1.553  0.00  0.00    -0.276 OA
ATOM     22  N   UNL     1       9.549   3.877   1.103  0.00  0.00    -0.208 N 
ATOM     23  H   UNL     1      10.225   3.298   0.718  0.00  0.00    +0.177 HD
BRANCH  22  24
ATOM     24  N   UNL     1       9.920   5.094   1.690  0.00  0.00    -0.185 NA
ATOM     25  C   UNL     1      11.178   5.410   1.792  0.00  0.00    +0.176 C 
BRANCH  25  26
ATOM     26  C   UNL     1      12.197   4.575   1.149  0.00  0.00    +0.147 A 
ATOM     27  C   UNL     1      13.549   4.723   1.272  0.00  0.00    +0.051 A 
ATOM     28  C   UNL     1      14.139   3.712   0.492  0.00  0.00    +0.042 A 
ATOM     29  C   UNL     1      13.135   3.008  -0.071  0.00  0.00    +0.196 A 
ATOM     30  O   UNL     1      11.964   3.532   0.328  0.00  0.00    -0.462 OA
ENDBRANCH  25  26
ENDBRANCH  22  24
ENDBRANCH  19  20
ENDBRANCH  17  19
TORSDOF 4
