REMARK  Name = ZINC26845392
REMARK  1 active torsions:
REMARK  status: ('A' for Active; 'I' for Inactive)
REMARK    1  A    between atoms: C_6  and  C_7
REMARK                            x       y       z     vdW  Elec       q    Type
REMARK                         _______ _______ _______ _____ _____    ______ ____
ROOT
ATOM      1  C   UNL     1      -1.286   1.679   0.017  0.00  0.00    +0.190 C 
ATOM      2  N   UNL     1      -1.290   2.863  -0.838  0.00  0.00    -0.321 N 
ATOM      3  C   UNL     1      -0.156   3.660  -0.611  0.00  0.00    +0.057 A 
ATOM      4  C   UNL     1      -0.111   5.110  -0.773  0.00  0.00    +0.028 A 
ATOM      5  C   UNL     1      -1.163   5.987  -1.129  0.00  0.00    +0.017 A 
ATOM      6  C   UNL     1      -0.916   7.342  -1.239  0.00  0.00    -0.028 A 
ATOM      7  C   UNL     1       0.353   7.835  -1.002  0.00  0.00    +0.020 A 
ATOM      8  N   UNL     1       1.334   7.008  -0.669  0.00  0.00    -0.352 N 
ATOM      9  C   UNL     1       1.147   5.715  -0.548  0.00  0.00    +0.088 A 
ATOM     10  S   UNL     1       2.207   4.354  -0.119  0.00  0.00    -0.064 S 
ATOM     11  C   UNL     1       1.027   3.046  -0.221  0.00  0.00    +0.097 A 
ATOM     12  C   UNL     1       1.158   1.663  -0.000  0.00  0.00    +0.254 C 
ATOM     13  O   UNL     1       2.238   1.128   0.172  0.00  0.00    -0.270 OA
ATOM     14  N   UNL     1      -0.011   0.966   0.007  0.00  0.00    -0.289 N 
ATOM     15  C   UNL     1       0.684   9.302  -1.099  0.00  0.00    +0.053 C 
ATOM     16  C   UNL     1      -0.395  10.045  -1.884  0.00  0.00    +0.006 C 
ATOM     17  C   UNL     1      -1.761   9.688  -1.286  0.00  0.00    +0.005 C 
ATOM     18  C   UNL     1      -2.070   8.232  -1.626  0.00  0.00    +0.037 C 
ATOM     19  H   UNL     1      -2.118   3.030  -1.542  0.00  0.00    +0.148 HD
ATOM     20  H   UNL     1       0.003  -0.134   0.006  0.00  0.00    +0.151 HD
ATOM     21  H   UNL     1       2.345   7.400  -0.484  0.00  0.00    +0.166 HD
ENDROOT
BRANCH   1  27
ATOM     22  C   UNL     1      -2.322   3.257   1.661  0.00  0.00    +0.008 A 
ATOM     23  C   UNL     1      -2.607   3.647   2.956  0.00  0.00    +0.015 A 
ATOM     24  C   UNL     1      -2.151   2.892   4.021  0.00  0.00    +0.018 A 
ATOM     25  C   UNL     1      -1.415   1.744   3.790  0.00  0.00    +0.015 A 
ATOM     26  C   UNL     1      -1.135   1.352   2.494  0.00  0.00    +0.008 A 
ATOM     27  C   UNL     1      -1.591   2.107   1.430  0.00  0.00    -0.009 A 
ATOM     28 BR   UNL     1      -2.534   3.429   5.793  0.00  0.00    -0.050 Br
ENDBRANCH   1  27
TORSDOF 1
