REMARK  Name = ZINC36559234
REMARK  4 active torsions:
REMARK  status: ('A' for Active; 'I' for Inactive)
REMARK    1  A    between atoms: C_14  and  N_21
REMARK    2  A    between atoms: C_15  and  C_19
REMARK    3  A    between atoms: C_16  and  N_18
REMARK    4  A    between atoms: C_22  and  C_24
REMARK                            x       y       z     vdW  Elec       q    Type
REMARK                         _______ _______ _______ _____ _____    ______ ____
ROOT
ATOM      1  C   UNL     1      -0.016   1.357   0.009  0.00  0.00    +0.001 A 
ATOM      2  C   UNL     1       1.169   2.090   0.002  0.00  0.00    +0.001 A 
ATOM      3  C   UNL     1       2.379   1.467  -0.012  0.00  0.00    +0.012 A 
ATOM      4  C   UNL     1       2.437   0.064  -0.018  0.00  0.00    +0.025 A 
ATOM      5  C   UNL     1       1.233  -0.682  -0.013  0.00  0.00    -0.014 A 
ATOM      6  C   UNL     1       0.002  -0.004   0.002  0.00  0.00    +0.008 A 
ATOM      7  C   UNL     1       1.293  -2.086  -0.023  0.00  0.00    +0.009 A 
ATOM      8  C   UNL     1       2.500  -2.712  -0.033  0.00  0.00    +0.009 A 
ATOM      9  C   UNL     1       3.693  -1.989  -0.033  0.00  0.00    +0.008 A 
ATOM     10  C   UNL     1       3.676  -0.614  -0.027  0.00  0.00    +0.142 A 
ATOM     11  O   UNL     1       4.823   0.103  -0.030  0.00  0.00    -0.437 OA
ATOM     12  C   UNL     1       5.980  -0.462   0.388  0.00  0.00    +0.228 A 
ATOM     13  C   UNL     1       6.122  -1.839   0.404  0.00  0.00    +0.048 A 
ATOM     14  C   UNL     1       7.319  -2.402   0.837  0.00  0.00    +0.055 A 
ATOM     15  C   UNL     1       8.355  -1.539   1.249  0.00  0.00    +0.112 A 
ATOM     16  C   UNL     1       8.132  -0.152   1.204  0.00  0.00    +0.139 A 
ATOM     17  N   UNL     1       6.975   0.328   0.782  0.00  0.00    -0.196 NA
ATOM     18  C   UNL     1       5.001  -2.737  -0.039  0.00  0.00    +0.089 C 
ENDROOT
BRANCH  18  19
ATOM     19  C   UNL     1       5.283  -3.234  -1.433  0.00  0.00    -0.035 A 
ATOM     20  C   UNL     1       5.411  -2.335  -2.475  0.00  0.00    +0.007 A 
ATOM     21  C   UNL     1       5.670  -2.790  -3.754  0.00  0.00    +0.038 A 
ATOM     22  C   UNL     1       5.803  -4.147  -3.992  0.00  0.00    +0.123 A 
ATOM     23  C   UNL     1       5.675  -5.047  -2.947  0.00  0.00    +0.038 A 
ATOM     24  C   UNL     1       5.421  -4.590  -1.668  0.00  0.00    +0.007 A 
ATOM     25  F   UNL     1       6.056  -4.593  -5.241  0.00  0.00    -0.205 F 
ENDBRANCH  18  19
BRANCH  16  26
ATOM     26  N   UNL     1       9.132   0.717   1.603  0.00  0.00    -0.342 N 
ATOM     27  H   UNL     1       9.982   0.369   1.913  0.00  0.00    +0.144 HD
ATOM     28  H   UNL     1       8.982   1.675   1.573  0.00  0.00    +0.144 HD
ENDBRANCH  16  26
BRANCH  14  29
ATOM     29  N   UNL     1       7.489  -3.778   0.863  0.00  0.00    -0.357 N 
ATOM     30  H   UNL     1       6.768  -4.361   0.576  0.00  0.00    +0.142 HD
ATOM     31  H   UNL     1       8.328  -4.157   1.167  0.00  0.00    +0.142 HD
ENDBRANCH  14  29
BRANCH  15  32
ATOM     32  C   UNL     1       9.607  -2.064   1.705  0.00  0.00    +0.104 C 
ATOM     33  N   UNL     1      10.600  -2.480   2.066  0.00  0.00    -0.191 NA
ENDBRANCH  15  32
TORSDOF 4
