REMARK  Name = ZINC05549234
REMARK  2 active torsions:
REMARK  status: ('A' for Active; 'I' for Inactive)
REMARK    1  A    between atoms: C_1  and  C_2
REMARK    2  A    between atoms: C_7  and  C_11
REMARK                            x       y       z     vdW  Elec       q    Type
REMARK                         _______ _______ _______ _____ _____    ______ ____
ROOT
ATOM      1  C   UNL     1      -0.018   1.503   0.010  0.00  0.00    +0.044 C 
ATOM      2  C   UNL     1       0.002  -0.004   0.002  0.00  0.00    -0.050 C 
ATOM      3  C   UNL     1      -1.175  -0.684   0.004  0.00  0.00    +0.016 C 
ATOM      4  C   UNL     1      -1.171  -2.096  -0.004  0.00  0.00    +0.040 C 
ATOM      5  C   UNL     1      -2.370  -2.814  -0.003  0.00  0.00    +0.031 C 
ATOM      6  C   UNL     1      -3.766  -2.218   0.001  0.00  0.00    +0.077 C 
ATOM      7  C   UNL     1      -4.642  -3.435  -0.385  0.00  0.00    +0.109 C 
ATOM      8  N   UNL     1      -3.785  -4.569   0.032  0.00  0.00    -0.235 NA
ATOM      9  N   UNL     1      -2.489  -4.148  -0.010  0.00  0.00    -0.283 N 
ATOM     10  C   UNL     1       0.121  -2.794  -0.015  0.00  0.00    +0.188 C 
ATOM     11  O   UNL     1       0.172  -4.016  -0.022  0.00  0.00    -0.287 OA
ATOM     12  C   UNL     1       1.299  -2.027  -0.016  0.00  0.00    +0.052 C 
ATOM     13  C   UNL     1       1.226  -0.668  -0.013  0.00  0.00    +0.007 C 
ATOM     14  H   UNL     1      -3.923  -5.367  -0.570  0.00  0.00    +0.145 HD
ATOM     15  H   UNL     1      -1.730  -4.752  -0.040  0.00  0.00    +0.166 HD
ENDROOT
BRANCH   7  16
ATOM     16  C   UNL     1      -5.940  -3.429   0.380  0.00  0.00    -0.021 A 
ATOM     17  C   UNL     1      -6.056  -4.139   1.535  0.00  0.00    +0.006 A 
ATOM     18  C   UNL     1      -7.248  -4.146   2.256  0.00  0.00    +0.001 A 
ATOM     19  C   UNL     1      -8.332  -3.443   1.826  0.00  0.00    +0.008 A 
ATOM     20  C   UNL     1      -8.250  -2.699   0.637  0.00  0.00    -0.018 A 
ATOM     21  C   UNL     1      -7.035  -2.687  -0.093  0.00  0.00    -0.013 A 
ATOM     22  C   UNL     1      -6.951  -1.937  -1.279  0.00  0.00    +0.009 A 
ATOM     23  C   UNL     1      -8.033  -1.230  -1.706  0.00  0.00    +0.001 A 
ATOM     24  C   UNL     1      -9.225  -1.236  -0.985  0.00  0.00    +0.001 A 
ATOM     25  C   UNL     1      -9.348  -1.961   0.161  0.00  0.00    +0.008 A 
ENDBRANCH   7  16
TORSDOF 1
