REMARK  Name = ZINC16995323
REMARK  1 active torsions:
REMARK  status: ('A' for Active; 'I' for Inactive)
REMARK    1  A    between atoms: C_14  and  C_16
REMARK                            x       y       z     vdW  Elec       q    Type
REMARK                         _______ _______ _______ _____ _____    ______ ____
ROOT
ATOM      1  C   UNL     1      -0.017   1.380   0.010  0.00  0.00    +0.000 A 
ATOM      2  C   UNL     1       1.168   2.095   0.002  0.00  0.00    +0.001 A 
ATOM      3  C   UNL     1       2.378   1.431  -0.021  0.00  0.00    +0.010 A 
ATOM      4  C   UNL     1       2.402   0.041  -0.043  0.00  0.00    -0.001 A 
ATOM      5  C   UNL     1       1.205  -0.676  -0.017  0.00  0.00    -0.038 A 
ATOM      6  C   UNL     1       0.002  -0.004   0.002  0.00  0.00    +0.004 A 
ATOM      7  C   UNL     1       1.247  -2.181   0.014  0.00  0.00    +0.040 C 
ATOM      8  C   UNL     1       2.425  -2.687  -0.815  0.00  0.00    +0.040 C 
ATOM      9  C   UNL     1       3.701  -1.988  -0.415  0.00  0.00    -0.019 C 
ATOM     10  C   UNL     1       3.682  -0.701  -0.072  0.00  0.00    +0.042 C 
ATOM     11  N   UNL     1       4.875  -0.050   0.257  0.00  0.00    -0.293 N 
ATOM     12  C   UNL     1       6.076  -0.621  -0.097  0.00  0.00    +0.165 C 
ATOM     13  N   UNL     1       6.148  -1.876  -0.414  0.00  0.00    -0.250 NA
ATOM     14  C   UNL     1       4.992  -2.762  -0.407  0.00  0.00    +0.166 C 
ATOM     15  S   UNL     1       7.535   0.367  -0.121  0.00  0.00    -0.014 SA
ATOM     16  H   UNL     1       4.855   0.796   0.730  0.00  0.00    +0.154 HD
ENDROOT
BRANCH  14  17
ATOM     17  C   UNL     1       5.040  -3.624   0.828  0.00  0.00    -0.019 A 
ATOM     18  C   UNL     1       5.392  -3.069   2.045  0.00  0.00    +0.007 A 
ATOM     19  C   UNL     1       5.436  -3.860   3.178  0.00  0.00    +0.015 A 
ATOM     20  C   UNL     1       5.128  -5.206   3.094  0.00  0.00    +0.018 A 
ATOM     21  C   UNL     1       4.776  -5.760   1.877  0.00  0.00    +0.015 A 
ATOM     22  C   UNL     1       4.728  -4.968   0.745  0.00  0.00    +0.007 A 
ATOM     23 BR   UNL     1       5.189  -6.288   4.644  0.00  0.00    -0.050 Br
ENDBRANCH  14  17
TORSDOF 1
