REMARK  Name = ZINC39664858
REMARK  8 active torsions:
REMARK  status: ('A' for Active; 'I' for Inactive)
REMARK    1  A    between atoms: C_1  and  N_2
REMARK    2  A    between atoms: N_2  and  C_3
REMARK    3  A    between atoms: N_2  and  C_4
REMARK    4  A    between atoms: C_4  and  C_5
REMARK    5  A    between atoms: C_5  and  C_7
REMARK    6  A    between atoms: C_5  and  N_13
REMARK    7  A    between atoms: C_14  and  C_16
REMARK    8  A    between atoms: C_27  and  C_29
REMARK                            x       y       z     vdW  Elec       q    Type
REMARK                         _______ _______ _______ _____ _____    ______ ____
ROOT
ATOM      1  C   UNL     1       1.389  -3.095   1.533  0.00  0.00    +0.100 C 
ATOM      2  C   UNL     1       1.264  -4.630   1.652  0.00  0.00    +0.121 C 
ATOM      3  N   UNL     1       2.465  -5.158   0.963  0.00  0.00    -0.300 N 
ATOM      4  C   UNL     1       3.552  -4.228   1.352  0.00  0.00    +0.115 C 
ATOM      5  C   UNL     1       2.892  -2.835   1.340  0.00  0.00    -0.004 C 
ATOM      6  C   UNL     1       3.433  -1.984   2.485  0.00  0.00    -0.010 C 
ATOM      7  C   UNL     1       4.916  -1.690   2.241  0.00  0.00    -0.082 C 
ATOM      8  N   UNL     1       5.072  -0.983   0.964  0.00  0.00    +0.379 N 
ATOM      9  C   UNL     1       4.636  -1.845  -0.142  0.00  0.00    -0.082 C 
ATOM     10  C   UNL     1       3.142  -2.145   0.002  0.00  0.00    -0.010 C 
ATOM     11  C   UNL     1       2.550  -6.240   0.164  0.00  0.00    +0.219 C 
ATOM     12  O   UNL     1       1.549  -6.861  -0.126  0.00  0.00    -0.275 OA
ATOM     13  H   UNL     1       4.513  -0.143   0.975  0.00  0.00    -0.086 HD
ATOM     14  H   UNL     1       6.042  -0.737   0.834  0.00  0.00    -0.086 HD
ENDROOT
BRANCH  11  15
ATOM     15  C   UNL     1       3.889  -6.679  -0.371  0.00  0.00    +0.079 C 
ATOM     16  C   UNL     1       3.694  -7.820  -1.377  0.00  0.00    +0.017 C 
ATOM     17  C   UNL     1       5.043  -8.123  -2.033  0.00  0.00    +0.027 C 
ATOM     18  C   UNL     1       6.104  -8.281  -0.984  0.00  0.00    -0.031 C 
ATOM     19  C   UNL     1       5.982  -7.872   0.238  0.00  0.00    -0.030 C 
ATOM     20  C   UNL     1       4.761  -7.186   0.780  0.00  0.00    +0.039 C 
ENDBRANCH  11  15
BRANCH   1  22
ATOM     21  N   UNL     1       0.219  -1.308   0.284  0.00  0.00    -0.310 N 
ATOM     22  C   UNL     1       0.613  -2.596   0.341  0.00  0.00    +0.219 C 
ATOM     23  O   UNL     1       0.342  -3.354  -0.567  0.00  0.00    -0.275 OA
ATOM     24  H   UNL     1       0.496  -0.686   0.975  0.00  0.00    +0.149 HD
BRANCH  21  25
ATOM     25  C   UNL     1      -0.626  -0.849  -0.821  0.00  0.00    +0.087 C 
BRANCH  25  26
ATOM     26  C   UNL     1      -1.483   0.300  -0.354  0.00  0.00    -0.029 A 
ATOM     27  C   UNL     1      -0.949   1.267   0.476  0.00  0.00    +0.005 A 
ATOM     28  C   UNL     1      -1.735   2.321   0.905  0.00  0.00    +0.000 A 
ATOM     29  C   UNL     1      -3.055   2.406   0.502  0.00  0.00    +0.000 A 
ATOM     30  C   UNL     1      -3.588   1.439  -0.329  0.00  0.00    +0.000 A 
ATOM     31  C   UNL     1      -2.801   0.388  -0.761  0.00  0.00    +0.005 A 
ENDBRANCH  25  26
BRANCH  25  32
ATOM     32  C   UNL     1       0.258  -0.387  -1.981  0.00  0.00    -0.052 C 
BRANCH  32  34
ATOM     33  C   UNL     1       0.248   0.576  -4.178  0.00  0.00    -0.097 C 
ATOM     34  N   UNL     1      -0.588  -0.010  -3.121  0.00  0.00    +0.377 N 
ATOM     35  C   UNL     1      -1.269  -1.202  -3.641  0.00  0.00    -0.097 C 
ATOM     36  H   UNL     1      -1.274   0.666  -2.822  0.00  0.00    -0.083 HD
ENDBRANCH  32  34
ENDBRANCH  25  32
ENDBRANCH  21  25
ENDBRANCH   1  22
TORSDOF 6
