REMARK  Name = ZINC01371651
REMARK  7 active torsions:
REMARK  status: ('A' for Active; 'I' for Inactive)
REMARK    1  A    between atoms: C_1  and  C_2
REMARK    2  A    between atoms: C_5  and  C_32
REMARK    3  A    between atoms: C_9  and  C_14
REMARK    4  A    between atoms: C_14  and  N_15
REMARK    5  A    between atoms: N_15  and  C_16
REMARK    6  A    between atoms: C_16  and  C_17
REMARK    7  A    between atoms: N_24  and  C_25
REMARK                            x       y       z     vdW  Elec       q    Type
REMARK                         _______ _______ _______ _____ _____    ______ ____
ROOT
ATOM      1  N   UNL     1       1.144   1.900   0.020  0.00  0.00    -0.276 N 
ATOM      2  C   UNL     1      -0.015   1.211   0.017  0.00  0.00    +0.307 C 
ATOM      3  O   UNL     1       0.001  -0.005   0.009  0.00  0.00    -0.252 OA
ATOM      4  N   UNL     1      -1.191   1.870   0.018  0.00  0.00    -0.267 N 
ATOM      5  H   UNL     1      -1.205   2.837   0.090  0.00  0.00    +0.156 HD
ENDROOT
BRANCH   4   6
ATOM      6  C   UNL     1      -2.392   1.157  -0.086  0.00  0.00    +0.070 A 
ATOM      7  C   UNL     1      -2.511  -0.096   0.499  0.00  0.00    +0.026 A 
ATOM      8  C   UNL     1      -3.699  -0.794   0.398  0.00  0.00    +0.002 A 
ATOM      9  C   UNL     1      -4.767  -0.251  -0.292  0.00  0.00    +0.003 A 
ATOM     10  C   UNL     1      -4.652   0.995  -0.881  0.00  0.00    +0.040 A 
ATOM     11  C   UNL     1      -3.467   1.702  -0.780  0.00  0.00    +0.145 A 
ATOM     12  F   UNL     1      -3.354   2.919  -1.355  0.00  0.00    -0.204 F 
ENDBRANCH   4   6
BRANCH   1  13
ATOM     13  C   UNL     1       2.422   1.184   0.013  0.00  0.00    +0.150 C 
BRANCH  13  22
ATOM     14  C   UNL     1       5.538   3.638  -3.360  0.00  0.00    +0.044 C 
ATOM     15  C   UNL     1       4.992   2.420  -4.060  0.00  0.00    -0.041 A 
ATOM     16  C   UNL     1       5.350   2.152  -5.351  0.00  0.00    +0.004 A 
ATOM     17  C   UNL     1       4.852   1.033  -6.004  0.00  0.00    +0.005 A 
ATOM     18  C   UNL     1       3.987   0.172  -5.364  0.00  0.00    -0.026 A 
ATOM     19  C   UNL     1       3.608   0.424  -4.050  0.00  0.00    +0.052 A 
ATOM     20  C   UNL     1       4.115   1.560  -3.391  0.00  0.00    +0.002 A 
ATOM     21  C   UNL     1       3.710   1.818  -2.007  0.00  0.00    +0.020 A 
ATOM     22  C   UNL     1       2.858   0.949  -1.410  0.00  0.00    +0.035 A 
ATOM     23  C   UNL     1       2.382  -0.178  -2.113  0.00  0.00    +0.254 A 
ATOM     24  O   UNL     1       1.621  -0.949  -1.556  0.00  0.00    -0.268 OA
ATOM     25  N   UNL     1       2.745  -0.420  -3.385  0.00  0.00    -0.322 N 
ATOM     26  H   UNL     1       2.397  -1.203  -3.841  0.00  0.00    +0.169 HD
ATOM     27  C   UNL     1       3.454  -1.039  -6.086  0.00  0.00    +0.046 C 
ENDBRANCH  13  22
ENDBRANCH   1  13
BRANCH   1  28
ATOM     28  C   UNL     1       1.125   3.365   0.031  0.00  0.00    +0.152 C 
BRANCH  28  29
ATOM     29  C   UNL     1       1.120   3.857   1.455  0.00  0.00    +0.007 A 
ATOM     30  C   UNL     1       2.170   4.144   2.262  0.00  0.00    +0.013 A 
ATOM     31  C   UNL     1       1.926   4.591   3.547  0.00  0.00    +0.008 A 
ATOM     32  C   UNL     1       0.643   4.718   3.966  0.00  0.00    +0.045 A 
ATOM     33  S   UNL     1      -0.270   4.206   2.520  0.00  0.00    -0.100 S 
ENDBRANCH  28  29
ENDBRANCH   1  28
TORSDOF 5
