REMARK  Name = ZINC39670444
REMARK  6 active torsions:
REMARK  status: ('A' for Active; 'I' for Inactive)
REMARK    1  A    between atoms: C_1  and  C_2
REMARK    2  A    between atoms: C_7  and  C_11
REMARK    3  A    between atoms: C_11  and  N_12
REMARK    4  A    between atoms: C_13  and  C_15
REMARK    5  A    between atoms: C_26  and  C_28
REMARK    6  A    between atoms: C_31  and  C_35
REMARK                            x       y       z     vdW  Elec       q    Type
REMARK                         _______ _______ _______ _____ _____    ______ ____
ROOT
ATOM      1  C   UNL     1       3.577  -7.498   3.675  0.00  0.00    +0.100 C 
ATOM      2  C   UNL     1       3.945  -7.827   2.211  0.00  0.00    +0.121 C 
ATOM      3  N   UNL     1       4.678  -9.113   2.289  0.00  0.00    -0.296 N 
ATOM      4  C   UNL     1       3.948  -9.892   3.317  0.00  0.00    +0.115 C 
ATOM      5  C   UNL     1       3.579  -8.856   4.398  0.00  0.00    -0.004 C 
ATOM      6  C   UNL     1       2.195  -9.155   4.965  0.00  0.00    -0.010 C 
ATOM      7  C   UNL     1       2.236 -10.482   5.728  0.00  0.00    -0.082 C 
ATOM      8  N   UNL     1       3.222 -10.394   6.812  0.00  0.00    +0.379 N 
ATOM      9  C   UNL     1       4.565 -10.199   6.253  0.00  0.00    -0.082 C 
ATOM     10  C   UNL     1       4.622  -8.860   5.511  0.00  0.00    -0.010 C 
ATOM     11  C   UNL     1       5.764  -9.489   1.585  0.00  0.00    +0.249 C 
ATOM     12  O   UNL     1       6.199 -10.618   1.694  0.00  0.00    -0.270 OA
ATOM     13  H   UNL     1       2.993  -9.616   7.412  0.00  0.00    -0.086 HD
ATOM     14  H   UNL     1       3.204 -11.247   7.351  0.00  0.00    -0.086 HD
ENDROOT
BRANCH  11  15
ATOM     15  C   UNL     1       6.425  -8.527   0.679  0.00  0.00    +0.072 A 
ATOM     16  C   UNL     1       5.667  -7.588  -0.023  0.00  0.00    +0.016 A 
ATOM     17  C   UNL     1       6.290  -6.694  -0.866  0.00  0.00    +0.013 A 
ATOM     18  C   UNL     1       7.666  -6.723  -1.019  0.00  0.00    +0.058 A 
ATOM     19  C   UNL     1       8.426  -7.649  -0.329  0.00  0.00    +0.051 A 
ATOM     20  C   UNL     1       7.815  -8.549   0.525  0.00  0.00    +0.136 A 
ATOM     21  F   UNL     1       8.558  -9.451   1.204  0.00  0.00    -0.205 F 
BRANCH  18  22
ATOM     22  C   UNL     1       8.339  -5.742  -1.944  0.00  0.00    +0.418 C 
ATOM     23  F   UNL     1       8.677  -4.586  -1.231  0.00  0.00    -0.166 F 
ATOM     24  F   UNL     1       9.498  -6.319  -2.473  0.00  0.00    -0.166 F 
ATOM     25  F   UNL     1       7.466  -5.408  -2.985  0.00  0.00    -0.166 F 
ENDBRANCH  18  22
ENDBRANCH  11  15
BRANCH   1  27
ATOM     26  N   UNL     1       1.915  -6.004   4.735  0.00  0.00    -0.309 N 
ATOM     27  C   UNL     1       2.209  -6.870   3.744  0.00  0.00    +0.219 C 
ATOM     28  O   UNL     1       1.374  -7.142   2.909  0.00  0.00    -0.275 OA
ATOM     29  H   UNL     1       2.583  -5.786   5.403  0.00  0.00    +0.149 HD
BRANCH  26  30
ATOM     30  C   UNL     1       0.585  -5.393   4.802  0.00  0.00    +0.159 C 
BRANCH  30  37
ATOM     31  C   UNL     1      -0.310  -1.977  11.294  0.00  0.00    +0.045 C 
ATOM     32  C   UNL     1       0.051  -2.227   9.853  0.00  0.00    -0.034 A 
ATOM     33  C   UNL     1       0.614  -1.196   9.084  0.00  0.00    +0.008 A 
ATOM     34  C   UNL     1       0.939  -1.426   7.783  0.00  0.00    +0.045 A 
ATOM     35  C   UNL     1       0.703  -2.699   7.227  0.00  0.00    +0.115 A 
ATOM     36  N   UNL     1       0.913  -3.198   6.017  0.00  0.00    -0.342 N 
ATOM     37  C   UNL     1       0.515  -4.472   5.993  0.00  0.00    +0.051 A 
ATOM     38  C   UNL     1       0.038  -4.798   7.214  0.00  0.00    +0.115 A 
ATOM     39  N   UNL     1       0.152  -3.686   8.003  0.00  0.00    -0.308 N 
ATOM     40  C   UNL     1      -0.164  -3.443   9.308  0.00  0.00    +0.096 A 
ATOM     41  H   UNL     1       1.296  -2.715   5.268  0.00  0.00    +0.167 HD
ENDBRANCH  30  37
ENDBRANCH  26  30
ENDBRANCH   1  27
TORSDOF 5
