REMARK  Name = ZINC09641517
REMARK  7 active torsions:
REMARK  status: ('A' for Active; 'I' for Inactive)
REMARK    1  A    between atoms: C_1  and  N_2
REMARK    2  A    between atoms: C_10  and  C_11
REMARK    3  A    between atoms: C_11  and  N_12
REMARK    4  A    between atoms: C_13  and  C_15
REMARK    5  A    between atoms: C_15  and  S_16
REMARK    6  A    between atoms: S_16  and  C_17
REMARK    7  A    between atoms: C_19  and  C_28
REMARK                            x       y       z     vdW  Elec       q    Type
REMARK                         _______ _______ _______ _____ _____    ______ ____
ROOT
ATOM      1  S   UNL     1      -1.146   5.878   0.044  0.00  0.00    -0.077 S 
ENDROOT
BRANCH   1   2
ATOM      2  C   UNL     1      -1.653   4.190   0.041  0.00  0.00    +0.192 A 
ATOM      3  N   UNL     1      -2.939   3.880   0.052  0.00  0.00    -0.202 NA
ATOM      4  C   UNL     1      -3.336   2.605   0.049  0.00  0.00    +0.165 A 
ATOM      5  N   UNL     1      -2.455   1.613   0.035  0.00  0.00    -0.208 NA
ATOM      6  C   UNL     1      -1.145   1.879   0.017  0.00  0.00    +0.162 A 
ATOM      7  N   UNL     1      -0.721   3.192   0.026  0.00  0.00    -0.210 N 
ATOM      8  N   UNL     1       0.677   3.192   0.013  0.00  0.00    -0.256 N 
ATOM      9  H   UNL     1       1.244   3.979   0.012  0.00  0.00    +0.191 HD
ATOM     10  C   UNL     1       1.103   1.914   0.002  0.00  0.00    +0.267 A 
ATOM     11  O   UNL     1       2.268   1.551  -0.011  0.00  0.00    -0.266 OA
ATOM     12  C   UNL     1      -0.013   1.076   0.008  0.00  0.00    +0.119 A 
BRANCH   4  13
ATOM     13  C   UNL     1      -4.783   2.292   0.061  0.00  0.00    +0.019 A 
ATOM     14  C   UNL     1      -5.213   0.966   0.052  0.00  0.00    +0.011 A 
ATOM     15  C   UNL     1      -6.563   0.681   0.069  0.00  0.00    +0.001 A 
ATOM     16  C   UNL     1      -7.490   1.709   0.083  0.00  0.00    +0.000 A 
ATOM     17  C   UNL     1      -7.069   3.027   0.086  0.00  0.00    +0.001 A 
ATOM     18  C   UNL     1      -5.722   3.324   0.075  0.00  0.00    +0.011 A 
ENDBRANCH   4  13
ENDBRANCH   1   2
BRANCH   1  19
ATOM     19  C   UNL     1      -2.763   6.691   0.065  0.00  0.00    +0.173 C 
BRANCH  19  21
ATOM     20  N   UNL     1      -3.646   9.002   0.086  0.00  0.00    -0.308 N 
ATOM     21  C   UNL     1      -2.573   8.186   0.071  0.00  0.00    +0.224 C 
ATOM     22  O   UNL     1      -1.454   8.656   0.062  0.00  0.00    -0.275 OA
ATOM     23  H   UNL     1      -4.540   8.627   0.093  0.00  0.00    +0.149 HD
BRANCH  20  24
ATOM     24  C   UNL     1      -3.461  10.455   0.092  0.00  0.00    +0.178 C 
BRANCH  24  34
ATOM     25  C   UNL     1      -5.059  11.258   2.615  0.00  0.00    +0.150 C 
ATOM     26  N   UNL     1      -5.492  11.477   1.233  0.00  0.00    -0.329 N 
ATOM     27  C   UNL     1      -6.671  12.071   0.830  0.00  0.00    +0.069 A 
ATOM     28  C   UNL     1      -7.757  12.618   1.500  0.00  0.00    +0.028 A 
ATOM     29  C   UNL     1      -8.807  13.147   0.780  0.00  0.00    +0.002 A 
ATOM     30  C   UNL     1      -8.785  13.137  -0.607  0.00  0.00    +0.002 A 
ATOM     31  C   UNL     1      -7.725  12.604  -1.283  0.00  0.00    +0.030 A 
ATOM     32  C   UNL     1      -6.649  12.061  -0.575  0.00  0.00    +0.089 A 
ATOM     33  N   UNL     1      -5.481  11.478  -0.949  0.00  0.00    -0.231 NA
ATOM     34  C   UNL     1      -4.807  11.133   0.109  0.00  0.00    +0.128 A 
ENDBRANCH  24  34
ENDBRANCH  20  24
ENDBRANCH  19  21
ENDBRANCH   1  19
TORSDOF 6
