REMARK  Name = ZINC09332102
REMARK  4 active torsions:
REMARK  status: ('A' for Active; 'I' for Inactive)
REMARK    1  A    between atoms: C_1  and  O_2
REMARK    2  A    between atoms: O_2  and  C_3
REMARK    3  A    between atoms: C_6  and  C_9
REMARK    4  A    between atoms: C_14  and  C_22
REMARK                            x       y       z     vdW  Elec       q    Type
REMARK                         _______ _______ _______ _____ _____    ______ ____
ROOT
ATOM      1  C   UNL     1      -4.981  -2.629   0.035  0.00  0.00    +0.032 C 
ATOM      2  C   UNL     1      -5.105  -3.516  -1.206  0.00  0.00    +0.060 C 
ATOM      3  C   UNL     1      -6.423  -4.253  -1.174  0.00  0.00    +0.020 C 
ATOM      4  C   UNL     1      -6.997  -4.599  -0.002  0.00  0.00    +0.041 C 
ATOM      5  C   UNL     1      -8.316  -5.336   0.061  0.00  0.00    +0.175 C 
ATOM      6  N   UNL     1      -8.654  -5.868  -1.252  0.00  0.00    -0.221 N 
ATOM      7  C   UNL     1      -8.030  -5.488  -2.395  0.00  0.00    +0.218 A 
ATOM      8  N   UNL     1      -8.570  -6.141  -3.386  0.00  0.00    -0.201 NA
ATOM      9  C   UNL     1      -9.531  -6.946  -2.920  0.00  0.00    +0.247 A 
ATOM     10  N   UNL     1      -9.614  -6.811  -1.620  0.00  0.00    -0.156 NA
ATOM     11  N   UNL     1      -7.003  -4.558  -2.382  0.00  0.00    -0.287 N 
ATOM     12  C   UNL     1      -6.383  -4.280   1.223  0.00  0.00    +0.164 C 
ATOM     13  O   UNL     1      -6.913  -4.625   2.261  0.00  0.00    -0.292 OA
ATOM     14  C   UNL     1      -5.087  -3.520   1.277  0.00  0.00    +0.088 C 
ATOM     15  H   UNL     1      -6.703  -4.135  -3.201  0.00  0.00    +0.155 HD
ENDROOT
BRANCH   5  16
ATOM     16  C   UNL     1      -9.399  -4.386   0.506  0.00  0.00    -0.018 A 
ATOM     17  C   UNL     1      -9.683  -3.262  -0.246  0.00  0.00    +0.009 A 
ATOM     18  C   UNL     1     -10.675  -2.390   0.161  0.00  0.00    +0.039 A 
ATOM     19  C   UNL     1     -11.385  -2.644   1.323  0.00  0.00    +0.123 A 
ATOM     20  C   UNL     1     -11.099  -3.770   2.075  0.00  0.00    +0.039 A 
ATOM     21  C   UNL     1     -10.110  -4.643   1.664  0.00  0.00    +0.009 A 
ATOM     22  F   UNL     1     -12.355  -1.792   1.722  0.00  0.00    -0.205 F 
ENDBRANCH   5  16
BRANCH   1  26
ATOM     23  C   UNL     1      -1.200  -0.637   0.010  0.00  0.00    +0.120 A 
ATOM     24  C   UNL     1      -2.375   0.101   0.019  0.00  0.00    +0.046 A 
ATOM     25  C   UNL     1      -3.596  -0.545   0.027  0.00  0.00    +0.007 A 
ATOM     26  C   UNL     1      -3.648  -1.927   0.026  0.00  0.00    -0.043 A 
ATOM     27  C   UNL     1      -2.479  -2.665   0.017  0.00  0.00    +0.007 A 
ATOM     28  C   UNL     1      -1.255  -2.024   0.003  0.00  0.00    +0.046 A 
BRANCH  23  30
ATOM     29  C   UNL     1      -0.017   1.425   0.010  0.00  0.00    +0.277 C 
ATOM     30  O   UNL     1       0.002  -0.004   0.002  0.00  0.00    -0.495 OA
ENDBRANCH  23  30
ENDBRANCH   1  26
TORSDOF 3
