REMARK  Name = ZINC13418337
REMARK  6 active torsions:
REMARK  status: ('A' for Active; 'I' for Inactive)
REMARK    1  A    between atoms: C_1  and  C_2
REMARK    2  A    between atoms: N_7  and  C_10
REMARK    3  A    between atoms: C_10  and  C_12
REMARK    4  A    between atoms: C_10  and  C_18
REMARK    5  A    between atoms: N_20  and  C_21
REMARK    6  A    between atoms: C_25  and  C_26
REMARK                            x       y       z     vdW  Elec       q    Type
REMARK                         _______ _______ _______ _____ _____    ______ ____
ROOT
ATOM      1  C   UNL     1       6.128   4.546   4.169  0.00  0.00    +0.046 C 
ATOM      2  C   UNL     1       4.954   5.344   3.662  0.00  0.00    -0.015 A 
ATOM      3  C   UNL     1       4.205   4.876   2.580  0.00  0.00    +0.076 A 
ATOM      4  C   UNL     1       3.124   5.694   2.179  0.00  0.00    +0.116 A 
ATOM      5  N   UNL     1       2.334   5.364   1.166  0.00  0.00    -0.230 NA
ATOM      6  C   UNL     1       2.520   4.267   0.483  0.00  0.00    +0.204 A 
ATOM      7  N   UNL     1       3.520   3.400   0.777  0.00  0.00    -0.283 N 
ATOM      8  C   UNL     1       4.380   3.638   1.786  0.00  0.00    +0.263 A 
ATOM      9  O   UNL     1       5.279   2.855   2.039  0.00  0.00    -0.267 OA
ATOM     10  S   UNL     1       3.203   7.058   3.313  0.00  0.00    -0.062 S 
ATOM     11  C   UNL     1       4.620   6.525   4.258  0.00  0.00    +0.106 A 
ENDROOT
BRANCH  11  12
ATOM     12  C   UNL     1       5.265   7.190   5.393  0.00  0.00    +0.393 C 
ATOM     13  O   UNL     1       6.232   6.682   5.926  0.00  0.00    -0.240 OA
ATOM     14  O   UNL     1       4.785   8.367   5.846  0.00  0.00    -0.240 OA
ENDBRANCH  11  12
BRANCH   7  15
ATOM     15  C   UNL     1       3.672   2.182  -0.023  0.00  0.00    +0.207 C 
BRANCH  15  16
ATOM     16  C   UNL     1       2.493   1.274   0.215  0.00  0.00    -0.016 A 
ATOM     17  C   UNL     1       1.221   1.686  -0.138  0.00  0.00    +0.006 A 
ATOM     18  C   UNL     1       0.140   0.853   0.081  0.00  0.00    +0.000 A 
ATOM     19  C   UNL     1       0.329  -0.391   0.653  0.00  0.00    +0.000 A 
ATOM     20  C   UNL     1       1.601  -0.802   1.008  0.00  0.00    +0.000 A 
ATOM     21  C   UNL     1       2.683   0.031   0.788  0.00  0.00    +0.006 A 
ENDBRANCH  15  16
BRANCH  15  22
ATOM     22  C   UNL     1       3.739   2.546  -1.484  0.00  0.00    +0.241 C 
ATOM     23  O   UNL     1       3.667   3.708  -1.823  0.00  0.00    -0.273 OA
ATOM     24  N   UNL     1       3.879   1.579  -2.413  0.00  0.00    -0.310 N 
ATOM     25  H   UNL     1       3.937   0.650  -2.141  0.00  0.00    +0.149 HD
BRANCH  24  26
ATOM     26  C   UNL     1       3.944   1.933  -3.833  0.00  0.00    +0.073 C 
ATOM     27  C   UNL     1       3.135   1.079  -4.811  0.00  0.00    +0.024 C 
ATOM     28  C   UNL     1       4.660   0.959  -4.771  0.00  0.00    +0.024 C 
ENDBRANCH  24  26
ENDBRANCH  15  22
ENDBRANCH   7  15
TORSDOF 5
