REMARK  Name = ZINC39494250
REMARK  11 active torsions:
REMARK  status: ('A' for Active; 'I' for Inactive)
REMARK    1  A    between atoms: C_1  and  C_2
REMARK    2  A    between atoms: C_2  and  C_3
REMARK    3  A    between atoms: C_3  and  C_4
REMARK    4  A    between atoms: C_4  and  C_6
REMARK    5  A    between atoms: C_6  and  C_8
REMARK    6  A    between atoms: C_6  and  C_15
REMARK    7  A    between atoms: C_13  and  O_14
REMARK    8  A    between atoms: C_15  and  C_17
REMARK    9  A    between atoms: C_15  and  N_23
REMARK   10  A    between atoms: C_24  and  C_26
REMARK   11  A    between atoms: C_31  and  O_32
REMARK                            x       y       z     vdW  Elec       q    Type
REMARK                         _______ _______ _______ _____ _____    ______ ____
ROOT
ATOM      1  C   UNL     1       0.231  -2.790  -3.562  0.00  0.00    +0.118 C 
ENDROOT
BRANCH   1   2
ATOM      2  C   UNL     1      -1.103  -3.335  -3.120  0.00  0.00    -0.026 A 
ATOM      3  C   UNL     1      -2.018  -2.505  -2.501  0.00  0.00    +0.005 A 
ATOM      4  C   UNL     1      -3.242  -3.005  -2.096  0.00  0.00    +0.000 A 
ATOM      5  C   UNL     1      -3.550  -4.335  -2.312  0.00  0.00    +0.000 A 
ATOM      6  C   UNL     1      -2.635  -5.165  -2.932  0.00  0.00    +0.000 A 
ATOM      7  C   UNL     1      -1.413  -4.664  -3.340  0.00  0.00    +0.005 A 
ENDBRANCH   1   2
BRANCH   1   8
ATOM      8  N   UNL     1       0.050  -1.448  -4.121  0.00  0.00    -0.303 N 
ATOM      9  C   UNL     1      -0.314  -1.299  -5.410  0.00  0.00    +0.248 C 
ATOM     10  O   UNL     1      -0.492  -2.278  -6.109  0.00  0.00    -0.270 OA
ATOM     11  H   UNL     1       0.192  -0.667  -3.563  0.00  0.00    +0.150 HD
BRANCH   9  12
ATOM     12  C   UNL     1      -0.497   0.053  -5.973  0.00  0.00    +0.078 A 
ATOM     13  C   UNL     1      -0.288   1.180  -5.175  0.00  0.00    +0.017 A 
ATOM     14  C   UNL     1      -0.460   2.440  -5.707  0.00  0.00    +0.001 A 
ATOM     15  C   UNL     1      -0.840   2.594  -7.030  0.00  0.00    +0.004 A 
ATOM     16  C   UNL     1      -1.049   1.488  -7.830  0.00  0.00    +0.046 A 
ATOM     17  C   UNL     1      -0.876   0.213  -7.312  0.00  0.00    +0.129 A 
BRANCH  17  18
ATOM     18  O   UNL     1      -1.076  -0.875  -8.098  0.00  0.00    -0.506 OA
ATOM     19  H   UNL     1      -1.985  -1.205  -8.088  0.00  0.00    +0.292 HD
ENDBRANCH  17  18
ENDBRANCH   9  12
ENDBRANCH   1   8
BRANCH   1  20
ATOM     20  C   UNL     1       1.175  -2.719  -2.360  0.00  0.00    +0.113 C 
BRANCH  20  21
ATOM     21  C   UNL     1       1.473  -4.113  -1.871  0.00  0.00    +0.006 A 
ATOM     22  C   UNL     1       0.444  -4.930  -1.444  0.00  0.00    +0.008 A 
ATOM     23  C   UNL     1       0.717  -6.209  -0.996  0.00  0.00    +0.001 A 
ATOM     24  C   UNL     1       2.019  -6.674  -0.973  0.00  0.00    +0.004 A 
ATOM     25  C   UNL     1       3.051  -5.861  -1.399  0.00  0.00    +0.046 A 
ATOM     26  C   UNL     1       2.780  -4.579  -1.855  0.00  0.00    +0.121 A 
BRANCH  26  27
ATOM     27  O   UNL     1       3.793  -3.779  -2.280  0.00  0.00    -0.506 OA
ATOM     28  H   UNL     1       4.186  -3.237  -1.581  0.00  0.00    +0.292 HD
ENDBRANCH  26  27
ENDBRANCH  20  21
BRANCH  20  29
ATOM     29  C   UNL     1       0.524  -1.928  -1.255  0.00  0.00    +0.143 C 
ATOM     30  O   UNL     1      -0.153  -2.490  -0.428  0.00  0.00    -0.297 OA
BRANCH  29  31
ATOM     31  C   UNL     1       0.716  -0.435  -1.183  0.00  0.00    +0.075 C 
BRANCH  31  33
ATOM     32  C   UNL     1       0.270   1.616   0.172  0.00  0.00    +0.004 C 
ATOM     33  C   UNL     1       0.075   0.101   0.099  0.00  0.00    +0.004 C 
ENDBRANCH  31  33
ENDBRANCH  29  31
ENDBRANCH  20  29
ENDBRANCH   1  20
TORSDOF 10
