REMARK  Name = ZINC67411025
REMARK  9 active torsions:
REMARK  status: ('A' for Active; 'I' for Inactive)
REMARK    1  A    between atoms: C_1  and  C_2
REMARK    2  A    between atoms: C_3  and  C_8
REMARK    3  A    between atoms: C_4  and  C_7
REMARK    4  A    between atoms: C_8  and  N_9
REMARK    5  A    between atoms: N_12  and  C_13
REMARK    6  A    between atoms: C_13  and  C_14
REMARK    7  A    between atoms: C_13  and  C_15
REMARK    8  A    between atoms: C_13  and  C_16
REMARK    9  A    between atoms: C_16  and  C_17
REMARK                            x       y       z     vdW  Elec       q    Type
REMARK                         _______ _______ _______ _____ _____    ______ ____
ROOT
ATOM      1  N   UNL     1       1.371  -0.174  -3.041  0.00  0.00    -0.295 N 
ATOM      2  C   UNL     1       1.606   0.247  -4.299  0.00  0.00    +0.300 C 
ATOM      3  O   UNL     1       0.675   0.484  -5.044  0.00  0.00    -0.253 OA
ATOM      4  N   UNL     1       2.872   0.407  -4.731  0.00  0.00    -0.294 N 
ATOM      5  H   UNL     1       2.114  -0.363  -2.446  0.00  0.00    +0.151 HD
ATOM      6  H   UNL     1       3.615   0.218  -4.137  0.00  0.00    +0.151 HD
ENDROOT
BRANCH   4   7
ATOM      7  C   UNL     1       3.127   0.865  -6.099  0.00  0.00    +0.034 C 
ATOM      8  C   UNL     1       2.520  -0.128  -7.091  0.00  0.00    +0.031 C 
ATOM      9  C   UNL     1       2.491   2.242  -6.302  0.00  0.00    +0.031 C 
BRANCH   7  10
ATOM     10  C   UNL     1       4.636   0.962  -6.332  0.00  0.00    +0.060 C 
BRANCH  10  11
ATOM     11  C   UNL     1       4.899   1.433  -7.739  0.00  0.00    -0.045 A 
ATOM     12  C   UNL     1       5.027   0.514  -8.763  0.00  0.00    +0.005 A 
ATOM     13  C   UNL     1       5.267   0.946 -10.054  0.00  0.00    +0.015 A 
ATOM     14  C   UNL     1       5.379   2.299 -10.321  0.00  0.00    +0.018 A 
ATOM     15  C   UNL     1       5.250   3.218  -9.295  0.00  0.00    +0.015 A 
ATOM     16  C   UNL     1       5.005   2.785  -8.006  0.00  0.00    +0.005 A 
ATOM     17 BR   UNL     1       5.708   2.890 -12.086  0.00  0.00    -0.050 Br
ENDBRANCH  10  11
ENDBRANCH   7  10
ENDBRANCH   4   7
BRANCH   1  18
ATOM     18  C   UNL     1      -0.005  -0.348  -2.571  0.00  0.00    +0.146 C 
BRANCH  18  21
ATOM     19  C   UNL     1      -0.018   1.503   0.010  0.00  0.00    +0.069 C 
ATOM     20  C   UNL     1       0.002  -0.004   0.002  0.00  0.00    +0.085 A 
ATOM     21  C   UNL     1       0.008  -0.824  -1.141  0.00  0.00    +0.034 A 
ATOM     22  C   UNL     1       0.027  -2.108  -0.735  0.00  0.00    +0.139 A 
ATOM     23  O   UNL     1       0.034  -2.119   0.606  0.00  0.00    -0.359 OA
ATOM     24  N   UNL     1       0.023  -0.775   1.052  0.00  0.00    -0.083 NA
ATOM     25  C   UNL     1       0.039  -3.320  -1.631  0.00  0.00    +0.089 C 
ENDBRANCH  18  21
ENDBRANCH   1  18
TORSDOF 5
