REMARK  Name = ZINC64746067
REMARK  6 active torsions:
REMARK  status: ('A' for Active; 'I' for Inactive)
REMARK    1  A    between atoms: C_1  and  C_2
REMARK    2  A    between atoms: C_2  and  N_3
REMARK    3  A    between atoms: C_12  and  N_27
REMARK    4  A    between atoms: C_13  and  C_17
REMARK    5  A    between atoms: C_20  and  C_23
REMARK    6  A    between atoms: N_27  and  C_28
REMARK                            x       y       z     vdW  Elec       q    Type
REMARK                         _______ _______ _______ _____ _____    ______ ____
ROOT
ATOM      1  N   UNL     1       0.713  -0.491   1.192  0.00  0.00    +0.382 N 
ATOM      2  C   UNL     1       2.119  -0.073   1.126  0.00  0.00    -0.060 C 
ATOM      3  C   UNL     1       2.833  -0.480   2.418  0.00  0.00    +0.088 C 
ATOM      4  N   UNL     1       2.638  -1.923   2.624  0.00  0.00    -0.312 N 
ATOM      5  C   UNL     1       1.269  -2.456   2.544  0.00  0.00    +0.088 C 
ATOM      6  C   UNL     1       0.628  -1.956   1.245  0.00  0.00    -0.060 C 
ATOM      7  C   UNL     1       3.713  -2.758   2.886  0.00  0.00    +0.184 A 
ATOM      8  N   UNL     1       3.720  -4.047   3.086  0.00  0.00    -0.140 NA
ATOM      9  N   UNL     1       4.904  -4.734   3.337  0.00  0.00    -0.190 N 
ATOM     10  C   UNL     1       5.314  -6.034   3.588  0.00  0.00    +0.150 A 
ATOM     11  C   UNL     1       6.667  -6.016   3.752  0.00  0.00    +0.114 A 
ATOM     12  N   UNL     1       7.085  -4.731   3.604  0.00  0.00    -0.218 NA
ATOM     13  C   UNL     1       6.052  -3.982   3.362  0.00  0.00    +0.199 A 
ATOM     14  S   UNL     1       5.444  -2.345   3.027  0.00  0.00    -0.013 S 
ATOM     15  H   UNL     1       0.287  -0.100   2.019  0.00  0.00    -0.082 HD
ENDROOT
BRANCH  11  16
ATOM     16  C   UNL     1       7.528  -7.186   4.038  0.00  0.00    +0.004 A 
ATOM     17  C   UNL     1       7.054  -8.224   4.841  0.00  0.00    +0.010 A 
ATOM     18  C   UNL     1       7.861  -9.312   5.104  0.00  0.00    +0.013 A 
ATOM     19  C   UNL     1       9.137  -9.374   4.573  0.00  0.00    +0.055 A 
ATOM     20  C   UNL     1       9.613  -8.348   3.776  0.00  0.00    +0.013 A 
ATOM     21  C   UNL     1       8.814  -7.258   3.502  0.00  0.00    +0.010 A 
BRANCH  19  22
ATOM     22  C   UNL     1      10.014 -10.565   4.865  0.00  0.00    +0.417 C 
ATOM     23  F   UNL     1       9.811 -11.545   3.887  0.00  0.00    -0.166 F 
ATOM     24  F   UNL     1      11.355 -10.170   4.858  0.00  0.00    -0.166 F 
ATOM     25  F   UNL     1       9.688 -11.087   6.122  0.00  0.00    -0.166 F 
ENDBRANCH  19  22
ENDBRANCH  11  16
BRANCH   1  27
ATOM     26  C   UNL     1      -0.019   1.526   0.010  0.00  0.00    -0.017 C 
ATOM     27  C   UNL     1       0.002  -0.004   0.002  0.00  0.00    -0.082 C 
ENDBRANCH   1  27
BRANCH  10  28
ATOM     28  N   UNL     1       4.489  -7.160   3.661  0.00  0.00    -0.324 N 
ATOM     29  H   UNL     1       4.874  -8.032   3.844  0.00  0.00    +0.148 HD
BRANCH  28  30
ATOM     30  C   UNL     1       3.044  -7.024   3.462  0.00  0.00    +0.072 C 
ATOM     31  C   UNL     1       2.400  -6.561   4.785  0.00  0.00    +0.022 C 
ATOM     32  C   UNL     1       1.064  -5.941   4.474  0.00  0.00    +0.002 C 
ATOM     33  C   UNL     1      -0.095  -6.948   4.594  0.00  0.00    +0.000 C 
ATOM     34  C   UNL     1       0.248  -8.328   4.001  0.00  0.00    +0.000 C 
ATOM     35  C   UNL     1       0.999  -8.226   2.701  0.00  0.00    +0.002 C 
ATOM     36  C   UNL     1       2.510  -8.297   3.001  0.00  0.00    +0.022 C 
ENDBRANCH  28  30
ENDBRANCH  10  28
TORSDOF 5
