REMARK  Name = ZINC06284203
REMARK  9 active torsions:
REMARK  status: ('A' for Active; 'I' for Inactive)
REMARK    1  A    between atoms: C_1  and  C_2
REMARK    2  A    between atoms: C_2  and  C_3
REMARK    3  A    between atoms: C_6  and  C_8
REMARK    4  A    between atoms: C_10  and  C_31
REMARK    5  A    between atoms: C_11  and  N_30
REMARK    6  A    between atoms: N_12  and  C_22
REMARK    7  A    between atoms: C_18  and  C_20
REMARK    8  A    between atoms: C_18  and  C_21
REMARK    9  A    between atoms: C_27  and  C_28
REMARK                            x       y       z     vdW  Elec       q    Type
REMARK                         _______ _______ _______ _____ _____    ______ ____
ROOT
ATOM      1  C   UNL     1      -4.399   6.540   0.080  0.00  0.00    +0.104 C 
ATOM      2  C   UNL     1      -4.010   5.803  -1.167  0.00  0.00    +0.077 C 
ATOM      3  C   UNL     1      -3.072   4.822  -1.139  0.00  0.00    +0.107 C 
ATOM      4  N   UNL     1      -2.466   4.480   0.048  0.00  0.00    -0.260 N 
ATOM      5  C   UNL     1      -3.050   4.802   1.245  0.00  0.00    +0.025 C 
ATOM      6  C   UNL     1      -3.976   5.785   1.314  0.00  0.00    +0.026 C 
ATOM      7  C   UNL     1      -4.575   6.129   2.538  0.00  0.00    +0.162 C 
ATOM      8  O   UNL     1      -5.418   7.004   2.564  0.00  0.00    -0.292 OA
ATOM      9  C   UNL     1      -4.193   5.435   3.817  0.00  0.00    +0.086 C 
ATOM     10  C   UNL     1      -2.744   4.950   3.706  0.00  0.00    -0.023 C 
ATOM     11  C   UNL     1      -2.628   4.045   2.478  0.00  0.00    +0.058 C 
ATOM     12  C   UNL     1      -1.810   6.152   3.549  0.00  0.00    +0.011 C 
ATOM     13  C   UNL     1      -2.366   4.166   4.965  0.00  0.00    +0.011 C 
ENDROOT
BRANCH   4  14
ATOM     14  C   UNL     1      -1.246   3.794   0.033  0.00  0.00    +0.044 A 
ATOM     15  C   UNL     1      -0.050   4.501   0.026  0.00  0.00    +0.024 A 
ATOM     16  C   UNL     1       1.153   3.822   0.012  0.00  0.00    +0.003 A 
ATOM     17  C   UNL     1       1.168   2.439   0.004  0.00  0.00    +0.020 A 
ATOM     18  C   UNL     1      -0.021   1.732   0.012  0.00  0.00    +0.046 A 
ATOM     19  C   UNL     1      -1.228   2.406   0.021  0.00  0.00    -0.010 A 
ATOM     20  C   UNL     1      -2.523   1.635   0.023  0.00  0.00    +0.047 C 
ATOM     21 CL   UNL     1       0.002  -0.004   0.002  0.00  0.00    -0.083 Cl
ENDBRANCH   4  14
BRANCH   1  25
ATOM     22  C   UNL     1      -2.151  10.076   0.067  0.00  0.00    -0.010 A 
ATOM     23  C   UNL     1      -3.496  10.241   0.103  0.00  0.00    +0.011 A 
ATOM     24  C   UNL     1      -4.309   9.124   0.110  0.00  0.00    +0.012 A 
ATOM     25  C   UNL     1      -3.738   7.895   0.080  0.00  0.00    +0.003 A 
ATOM     26  S   UNL     1      -1.999   8.297   0.047  0.00  0.00    -0.097 S 
BRANCH  22  28
ATOM     27  C   UNL     1      -0.662  11.457   1.489  0.00  0.00    +0.009 C 
ATOM     28  C   UNL     1      -1.066  11.121   0.052  0.00  0.00    +0.039 C 
ENDBRANCH  22  28
ENDBRANCH   1  25
BRANCH   3  29
ATOM     29  N   UNL     1      -2.728   4.168  -2.298  0.00  0.00    -0.345 N 
ATOM     30  H   UNL     1      -2.058   3.467  -2.279  0.00  0.00    +0.144 HD
ATOM     31  H   UNL     1      -3.155   4.408  -3.136  0.00  0.00    +0.144 HD
ENDBRANCH   3  29
BRANCH   2  32
ATOM     32  C   UNL     1      -4.639   6.141  -2.409  0.00  0.00    +0.099 C 
ATOM     33  N   UNL     1      -5.138   6.408  -3.394  0.00  0.00    -0.191 NA
ENDBRANCH   2  32
TORSDOF 5
