REMARK  Name = ZINC24845137
REMARK  6 active torsions:
REMARK  status: ('A' for Active; 'I' for Inactive)
REMARK    1  A    between atoms: C_1  and  C_2
REMARK    2  A    between atoms: C_9  and  C_16
REMARK    3  A    between atoms: C_11  and  O_12
REMARK    4  A    between atoms: C_16  and  S_17
REMARK    5  A    between atoms: S_17  and  C_18
REMARK    6  A    between atoms: C_21  and  C_23
REMARK                            x       y       z     vdW  Elec       q    Type
REMARK                         _______ _______ _______ _____ _____    ______ ____
ROOT
ATOM      1  C   UNL     1      -2.193   1.470   0.609  0.00  0.00    +0.109 C 
ATOM      2  C   UNL     1      -2.168  -0.036   0.609  0.00  0.00    +0.214 C 
ATOM      3  O   UNL     1      -3.058  -0.658   1.150  0.00  0.00    -0.276 OA
ATOM      4  N   UNL     1      -1.156  -0.694   0.009  0.00  0.00    -0.286 N 
ATOM      5  C   UNL     1      -1.081  -2.085   0.091  0.00  0.00    +0.037 A 
ATOM      6  C   UNL     1       0.164  -2.708   0.166  0.00  0.00    +0.024 A 
ATOM      7  C   UNL     1       0.253  -4.066   0.253  0.00  0.00    +0.013 A 
ATOM      8  C   UNL     1      -0.913  -4.841   0.254  0.00  0.00    +0.022 A 
ATOM      9  C   UNL     1      -0.848  -6.301   0.341  0.00  0.00    -0.020 A 
ATOM     10  C   UNL     1      -2.014  -6.998   0.339  0.00  0.00    +0.092 A 
ATOM     11  C   UNL     1      -3.242  -6.309   0.254  0.00  0.00    +0.285 A 
ATOM     12  O   UNL     1      -3.295  -4.971   0.176  0.00  0.00    -0.425 OA
ATOM     13  C   UNL     1      -2.173  -4.219   0.173  0.00  0.00    +0.141 A 
ATOM     14  C   UNL     1      -2.246  -2.837   0.092  0.00  0.00    +0.070 A 
ATOM     15  H   UNL     1      -0.388  -0.134  -0.545  0.00  0.00    +0.155 HD
ENDROOT
BRANCH  11  16
ATOM     16  O   UNL     1      -4.280  -6.946   0.253  0.00  0.00    -0.480 OA
ATOM     17  H   UNL     1      -5.246  -6.423   0.188  0.00  0.00    +0.295 HD
ENDBRANCH  11  16
BRANCH   9  18
ATOM     18  C   UNL     1       0.478  -7.013   0.429  0.00  0.00    +0.115 C 
BRANCH  18  19
ATOM     19  S   UNL     1       1.070  -7.395  -1.238  0.00  0.00    -0.061 S 
BRANCH  19  20
ATOM     20  C   UNL     1       2.589  -8.198  -0.846  0.00  0.00    +0.278 A 
ATOM     21  N   UNL     1       3.069  -8.412   0.355  0.00  0.00    -0.101 NA
ATOM     22  N   UNL     1       4.197  -9.023   0.261  0.00  0.00    -0.111 NA
ATOM     23  C   UNL     1       4.480  -9.223  -0.993  0.00  0.00    +0.221 A 
ATOM     24  O   UNL     1       3.470  -8.713  -1.725  0.00  0.00    -0.415 OA
BRANCH  23  25
ATOM     25  C   UNL     1       5.712  -9.906  -1.530  0.00  0.00    +0.077 C 
ATOM     26  C   UNL     1       5.773 -11.339  -0.997  0.00  0.00    +0.013 C 
ATOM     27  C   UNL     1       7.023 -12.032  -1.542  0.00  0.00    +0.001 C 
ATOM     28  C   UNL     1       8.269 -11.267  -1.091  0.00  0.00    +0.000 C 
ATOM     29  C   UNL     1       8.207  -9.834  -1.623  0.00  0.00    +0.001 C 
ATOM     30  C   UNL     1       6.957  -9.140  -1.079  0.00  0.00    +0.013 C 
ENDBRANCH  23  25
ENDBRANCH  19  20
ENDBRANCH  18  19
ENDBRANCH   9  18
TORSDOF 5
