REMARK  Name = ZINC04090153
REMARK  8 active torsions:
REMARK  status: ('A' for Active; 'I' for Inactive)
REMARK    1  A    between atoms: C_1  and  C_2
REMARK    2  A    between atoms: C_6  and  C_21
REMARK    3  A    between atoms: C_7  and  C_11
REMARK    4  A    between atoms: C_11  and  C_12
REMARK    5  A    between atoms: N_14  and  C_15
REMARK    6  A    between atoms: C_15  and  C_16
REMARK    7  A    between atoms: C_24  and  C_28
REMARK    8  A    between atoms: C_25  and  C_27
REMARK                            x       y       z     vdW  Elec       q    Type
REMARK                         _______ _______ _______ _____ _____    ______ ____
ROOT
ATOM      1  C   UNL     1      -8.209   6.343   0.951  0.00  0.00    +0.044 C 
ATOM      2  C   UNL     1      -7.116   5.308   1.029  0.00  0.00    -0.036 A 
ATOM      3  C   UNL     1      -6.586   4.794  -0.120  0.00  0.00    +0.051 A 
ATOM      4  C   UNL     1      -5.576   3.837  -0.066  0.00  0.00    +0.143 A 
ATOM      5  C   UNL     1      -5.096   3.394   1.178  0.00  0.00    +0.064 A 
ATOM      6  C   UNL     1      -4.039   2.384   1.214  0.00  0.00    -0.026 A 
ATOM      7  C   UNL     1      -3.553   1.919   0.033  0.00  0.00    +0.049 A 
ATOM      8  C   UNL     1      -4.080   2.407  -1.180  0.00  0.00    +0.341 A 
ATOM      9  O   UNL     1      -3.642   1.979  -2.233  0.00  0.00    -0.245 OA
ATOM     10  O   UNL     1      -5.053   3.330  -1.204  0.00  0.00    -0.422 OA
ATOM     11  C   UNL     1      -3.499   1.876   2.526  0.00  0.00    +0.045 C 
ATOM     12  C   UNL     1      -5.637   3.919   2.363  0.00  0.00    +0.147 A 
ATOM     13  C   UNL     1      -6.653   4.881   2.276  0.00  0.00    +0.027 A 
ATOM     14  C   UNL     1      -6.993   5.217   3.665  0.00  0.00    -0.002 A 
ATOM     15  C   UNL     1      -6.195   4.467   4.437  0.00  0.00    +0.106 A 
ATOM     16  O   UNL     1      -5.397   3.704   3.670  0.00  0.00    -0.459 OA
ATOM     17  C   UNL     1      -6.192   4.478   5.944  0.00  0.00    +0.086 C 
ATOM     18  C   UNL     1      -8.032   6.206   4.128  0.00  0.00    +0.048 C 
ENDROOT
BRANCH   7  19
ATOM     19  C   UNL     1      -2.460   0.881   0.020  0.00  0.00    +0.138 C 
BRANCH  19  20
ATOM     20  C   UNL     1      -1.117   1.566   0.005  0.00  0.00    +0.218 C 
ATOM     21  O   UNL     1      -1.055   2.778   0.005  0.00  0.00    -0.275 OA
ATOM     22  N   UNL     1       0.013   0.833  -0.008  0.00  0.00    -0.308 N 
ATOM     23  H   UNL     1      -0.037  -0.136  -0.008  0.00  0.00    +0.149 HD
BRANCH  22  24
ATOM     24  C   UNL     1       1.318   1.499  -0.029  0.00  0.00    +0.178 C 
BRANCH  24  25
ATOM     25  C   UNL     1       2.411   0.462  -0.047  0.00  0.00    +0.122 A 
ATOM     26  C   UNL     1       2.964  -0.079  -1.148  0.00  0.00    +0.046 A 
ATOM     27  C   UNL     1       3.941  -1.000  -0.705  0.00  0.00    +0.041 A 
ATOM     28  C   UNL     1       3.927  -0.967   0.639  0.00  0.00    +0.195 A 
ATOM     29  O   UNL     1       3.002  -0.075   1.032  0.00  0.00    -0.466 OA
ENDBRANCH  24  25
ENDBRANCH  22  24
ENDBRANCH  19  20
ENDBRANCH   7  19
TORSDOF 4
