REMARK  Name = ZINC03329499
REMARK  3 active torsions:
REMARK  status: ('A' for Active; 'I' for Inactive)
REMARK    1  A    between atoms: C_10  and  O_11
REMARK    2  A    between atoms: O_11  and  C_12
REMARK    3  A    between atoms: C_12  and  N_13
REMARK                            x       y       z     vdW  Elec       q    Type
REMARK                         _______ _______ _______ _____ _____    ______ ____
ROOT
ATOM      1  C   UNL     1       6.016  -0.719  -0.158  0.00  0.00    +0.379 C 
ENDROOT
BRANCH   1   2
ATOM      2  N   UNL     1       6.229  -1.078  -1.562  0.00  0.00    -0.174 N 
ATOM      3  C   UNL     1       5.598  -2.155  -2.088  0.00  0.00    +0.281 A 
ATOM      4  O   UNL     1       4.851  -2.841  -1.415  0.00  0.00    -0.265 OA
ATOM      5  C   UNL     1       5.852  -2.463  -3.503  0.00  0.00    +0.068 A 
ATOM      6  C   UNL     1       5.251  -3.550  -4.135  0.00  0.00    +0.015 A 
ATOM      7  C   UNL     1       5.520  -3.799  -5.463  0.00  0.00    +0.001 A 
ATOM      8  C   UNL     1       6.383  -2.975  -6.174  0.00  0.00    +0.002 A 
ATOM      9  C   UNL     1       6.987  -1.897  -5.569  0.00  0.00    +0.030 A 
ATOM     10  C   UNL     1       6.731  -1.624  -4.223  0.00  0.00    +0.100 A 
ATOM     11  N   UNL     1       7.308  -0.570  -3.594  0.00  0.00    -0.131 NA
ATOM     12  N   UNL     1       7.077  -0.305  -2.360  0.00  0.00    -0.059 NA
ENDBRANCH   1   2
BRANCH   1  13
ATOM     13  O   UNL     1       4.824   0.061  -0.041  0.00  0.00    -0.469 OA
BRANCH  13  23
ATOM     14  C   UNL     1       1.476   3.769  -0.520  0.00  0.00    +0.001 A 
ATOM     15  C   UNL     1       1.385   2.441  -0.105  0.00  0.00    +0.001 A 
ATOM     16  C   UNL     1       2.485   1.640  -0.073  0.00  0.00    +0.012 A 
ATOM     17  C   UNL     1       3.732   2.155  -0.462  0.00  0.00    +0.024 A 
ATOM     18  C   UNL     1       3.826   3.505  -0.883  0.00  0.00    -0.014 A 
ATOM     19  C   UNL     1       2.668   4.302  -0.904  0.00  0.00    +0.008 A 
ATOM     20  C   UNL     1       5.073   4.021  -1.273  0.00  0.00    +0.009 A 
ATOM     21  C   UNL     1       6.175   3.221  -1.242  0.00  0.00    +0.004 A 
ATOM     22  C   UNL     1       6.088   1.895  -0.828  0.00  0.00    +0.046 A 
ATOM     23  C   UNL     1       4.893   1.356  -0.442  0.00  0.00    +0.131 A 
ENDBRANCH  13  23
ENDBRANCH   1  13
TORSDOF 3
