REMARK  Name = ZINC26599838
REMARK  8 active torsions:
REMARK  status: ('A' for Active; 'I' for Inactive)
REMARK    1  A    between atoms: C_1  and  C_2
REMARK    2  A    between atoms: C_2  and  C_3
REMARK    3  A    between atoms: C_3  and  C_4
REMARK    4  A    between atoms: C_4  and  N_5
REMARK    5  A    between atoms: C_11  and  C_21
REMARK    6  A    between atoms: C_24  and  O_28
REMARK    7  A    between atoms: C_25  and  O_27
REMARK    8  A    between atoms: O_28  and  C_29
REMARK                            x       y       z     vdW  Elec       q    Type
REMARK                         _______ _______ _______ _____ _____    ______ ____
ROOT
ATOM      1  N   UNL     1       1.437  -2.977  -2.379  0.00  0.00    -0.222 N 
ATOM      2  C   UNL     1       0.722  -3.226  -3.496  0.00  0.00    +0.261 C 
ATOM      3  O   UNL     1      -0.468  -3.471  -3.434  0.00  0.00    -0.269 OA
ATOM      4  C   UNL     1       1.422  -3.192  -4.792  0.00  0.00    +0.116 C 
ATOM      5  C   UNL     1       0.755  -3.437  -5.979  0.00  0.00    +0.027 C 
ATOM      6  C   UNL     1       1.623  -3.805  -7.130  0.00  0.00    +0.071 C 
ATOM      7  C   UNL     1       1.003  -4.861  -7.999  0.00  0.00    +0.087 C 
ATOM      8  S   UNL     1      -0.360  -4.272  -8.992  0.00  0.00    -0.115 S 
ATOM      9  C   UNL     1      -1.739  -4.031  -7.947  0.00  0.00    +0.030 A 
ATOM     10  C   UNL     1      -2.999  -4.286  -8.506  0.00  0.00    +0.016 A 
ATOM     11  C   UNL     1      -4.156  -4.132  -7.781  0.00  0.00    +0.001 A 
ATOM     12  C   UNL     1      -4.080  -3.716  -6.463  0.00  0.00    +0.002 A 
ATOM     13  C   UNL     1      -2.854  -3.463  -5.900  0.00  0.00    +0.024 A 
ATOM     14  C   UNL     1      -1.660  -3.611  -6.627  0.00  0.00    +0.045 A 
ATOM     15  N   UNL     1      -0.525  -3.317  -5.923  0.00  0.00    -0.316 N 
ATOM     16  C   UNL     1       2.863  -2.886  -4.769  0.00  0.00    +0.258 C 
ATOM     17  O   UNL     1       3.509  -2.840  -5.800  0.00  0.00    -0.270 OA
ATOM     18  N   UNL     1       3.448  -2.658  -3.575  0.00  0.00    -0.235 N 
ATOM     19  C   UNL     1       2.747  -2.700  -2.433  0.00  0.00    +0.315 C 
ATOM     20  O   UNL     1       3.333  -2.481  -1.391  0.00  0.00    -0.252 OA
ATOM     21  H   UNL     1      -0.768  -2.857  -5.105  0.00  0.00    +0.152 HD
ATOM     22  H   UNL     1       4.396  -2.456  -3.542  0.00  0.00    +0.159 HD
ENDROOT
BRANCH   7  23
ATOM     23  C   UNL     1       2.063  -5.410  -8.919  0.00  0.00    -0.030 A 
ATOM     24  C   UNL     1       2.715  -4.568  -9.800  0.00  0.00    +0.008 A 
ATOM     25  C   UNL     1       3.688  -5.067 -10.646  0.00  0.00    +0.050 A 
ATOM     26  C   UNL     1       4.011  -6.414 -10.612  0.00  0.00    +0.161 A 
ATOM     27  C   UNL     1       3.355  -7.261  -9.725  0.00  0.00    +0.159 A 
ATOM     28  C   UNL     1       2.384  -6.754  -8.876  0.00  0.00    +0.054 A 
BRANCH  27  29
ATOM     29  O   UNL     1       3.669  -8.584  -9.687  0.00  0.00    -0.503 OA
ATOM     30  H   UNL     1       4.376  -8.803  -9.065  0.00  0.00    +0.292 HD
ENDBRANCH  27  29
BRANCH  26  31
ATOM     31  O   UNL     1       4.968  -6.906 -11.444  0.00  0.00    -0.491 OA
ATOM     32  C   UNL     1       5.599  -5.978 -12.328  0.00  0.00    +0.277 C 
ENDBRANCH  26  31
ENDBRANCH   7  23
BRANCH   1  33
ATOM     33  C   UNL     1       0.764  -3.004  -1.078  0.00  0.00    +0.118 C 
BRANCH  33  34
ATOM     34  C   UNL     1       0.228  -1.609  -0.752  0.00  0.00    +0.019 C 
BRANCH  34  36
ATOM     35  C   UNL     1      -1.011  -0.242   0.933  0.00  0.00    +0.004 C 
ATOM     36  C   UNL     1      -0.475  -1.637   0.607  0.00  0.00    -0.002 C 
ENDBRANCH  34  36
ENDBRANCH  33  34
ENDBRANCH   1  33
TORSDOF 6
