REMARK  Name = ZINC13510235
REMARK  11 active torsions:
REMARK  status: ('A' for Active; 'I' for Inactive)
REMARK    1  A    between atoms: C_1  and  C_2
REMARK    2  A    between atoms: C_2  and  C_3
REMARK    3  A    between atoms: C_2  and  C_4
REMARK    4  A    between atoms: C_2  and  C_5
REMARK    5  A    between atoms: C_14  and  N_24
REMARK    6  A    between atoms: C_16  and  C_18
REMARK    7  A    between atoms: N_24  and  C_25
REMARK    8  A    between atoms: C_25  and  C_26
REMARK    9  A    between atoms: C_26  and  N_27
REMARK   10  A    between atoms: C_28  and  C_30
REMARK   11  A    between atoms: C_33  and  N_36
REMARK                            x       y       z     vdW  Elec       q    Type
REMARK                         _______ _______ _______ _____ _____    ______ ____
ROOT
ATOM      1  C   UNL     1      -0.019   0.012   0.062  0.00  0.00    -0.000 C 
ATOM      2  C   UNL     1       0.727  -0.511   1.294  0.00  0.00    +0.009 C 
ATOM      3  C   UNL     1       0.973  -2.013   1.152  0.00  0.00    +0.037 C 
ATOM      4  C   UNL     1      -0.353  -2.705   0.847  0.00  0.00    -0.025 A 
ATOM      5  C   UNL     1      -1.405  -1.998   0.377  0.00  0.00    -0.004 A 
ATOM      6  S   UNL     1      -2.710  -3.183   0.168  0.00  0.00    -0.073 S 
ATOM      7  C   UNL     1      -1.847  -4.623   0.708  0.00  0.00    +0.114 A 
ATOM      8  C   UNL     1      -0.559  -4.132   1.037  0.00  0.00    +0.051 A 
ATOM      9  C   UNL     1       0.389  -5.081   1.516  0.00  0.00    +0.131 A 
ATOM     10  N   UNL     1      -0.043  -6.338   1.602  0.00  0.00    -0.217 NA
ATOM     11  C   UNL     1      -1.260  -6.723   1.276  0.00  0.00    +0.135 A 
ATOM     12  N   UNL     1      -2.191  -5.891   0.825  0.00  0.00    -0.224 NA
ATOM     13  C   UNL     1      -1.456  -0.528   0.093  0.00  0.00    +0.046 C 
ENDROOT
BRANCH  11  14
ATOM     14  C   UNL     1      -1.614  -8.181   1.424  0.00  0.00    +0.057 C 
ATOM     15  C   UNL     1      -2.020  -8.747   0.062  0.00  0.00    +0.011 C 
ATOM     16  C   UNL     1      -2.379 -10.227   0.212  0.00  0.00    +0.001 C 
ATOM     17  C   UNL     1      -3.545 -10.372   1.192  0.00  0.00    +0.000 C 
ATOM     18  C   UNL     1      -3.139  -9.805   2.554  0.00  0.00    +0.001 C 
ATOM     19  C   UNL     1      -2.780  -8.325   2.404  0.00  0.00    +0.011 C 
ENDBRANCH  11  14
BRANCH   1  21
ATOM     20  C   UNL     1       1.389   2.076   0.079  0.00  0.00    +0.011 C 
ATOM     21  C   UNL     1      -0.044   1.542   0.089  0.00  0.00    -0.035 C 
ATOM     22  C   UNL     1      -0.790   2.060  -1.143  0.00  0.00    +0.011 C 
ATOM     23  C   UNL     1      -0.758   2.018   1.355  0.00  0.00    +0.011 C 
ENDBRANCH   1  21
BRANCH   9  24
ATOM     24  N   UNL     1       1.677  -4.721   1.869  0.00  0.00    -0.327 N 
ATOM     25  H   UNL     1       1.985  -3.814   1.717  0.00  0.00    +0.148 HD
BRANCH  24  26
ATOM     26  C   UNL     1       2.574  -5.708   2.473  0.00  0.00    +0.121 C 
BRANCH  26  27
ATOM     27  C   UNL     1       3.927  -5.056   2.765  0.00  0.00    +0.123 C 
BRANCH  27  28
ATOM     28  N   UNL     1       4.825  -6.044   3.369  0.00  0.00    -0.310 N 
ATOM     29  C   UNL     1       6.080  -5.692   3.714  0.00  0.00    +0.244 C 
ATOM     30  O   UNL     1       6.466  -4.556   3.523  0.00  0.00    -0.270 OA
ATOM     31  H   UNL     1       4.516  -6.951   3.522  0.00  0.00    +0.149 HD
BRANCH  29  32
ATOM     32  C   UNL     1       6.986  -6.689   4.323  0.00  0.00    +0.037 A 
ATOM     33  C   UNL     1       6.543  -7.993   4.549  0.00  0.00    +0.015 A 
ATOM     34  C   UNL     1       7.395  -8.920   5.113  0.00  0.00    +0.033 A 
ATOM     35  C   UNL     1       8.683  -8.556   5.465  0.00  0.00    +0.126 A 
ATOM     36  C   UNL     1       9.126  -7.263   5.249  0.00  0.00    +0.033 A 
ATOM     37  C   UNL     1       8.286  -6.328   4.681  0.00  0.00    +0.015 A 
BRANCH  35  38
ATOM     38  N   UNL     1       9.590  -9.553   6.076  0.00  0.00    +0.056 N 
ATOM     39  O   UNL     1      10.724  -9.236   6.387  0.00  0.00    -0.126 OA
ATOM     40  O   UNL     1       9.202 -10.692   6.267  0.00  0.00    -0.126 OA
ENDBRANCH  35  38
ENDBRANCH  29  32
ENDBRANCH  27  28
ENDBRANCH  26  27
ENDBRANCH  24  26
ENDBRANCH   9  24
TORSDOF 8
