REMARK  Name = ZINC12774107
REMARK  7 active torsions:
REMARK  status: ('A' for Active; 'I' for Inactive)
REMARK    1  A    between atoms: C_5  and  N_7
REMARK    2  A    between atoms: N_7  and  S_8
REMARK    3  A    between atoms: S_8  and  C_11
REMARK    4  A    between atoms: C_15  and  C_17
REMARK    5  A    between atoms: N_19  and  C_20
REMARK    6  A    between atoms: C_20  and  C_21
REMARK    7  A    between atoms: C_21  and  C_22
REMARK                            x       y       z     vdW  Elec       q    Type
REMARK                         _______ _______ _______ _____ _____    ______ ____
ROOT
ATOM      1  C   UNL     1       9.139  -3.933  -3.970  0.00  0.00    +0.109 A 
ATOM      2  C   UNL     1       9.788  -4.310  -2.808  0.00  0.00    +0.029 A 
ATOM      3  C   UNL     1       9.207  -4.073  -1.575  0.00  0.00    +0.003 A 
ATOM      4  C   UNL     1       7.977  -3.453  -1.497  0.00  0.00    +0.013 A 
ATOM      5  C   UNL     1       7.315  -3.074  -2.665  0.00  0.00    +0.039 A 
ATOM      6  C   UNL     1       7.906  -3.316  -3.906  0.00  0.00    +0.041 A 
ENDROOT
BRANCH   5   7
ATOM      7  C   UNL     1       5.994  -2.413  -2.589  0.00  0.00    +0.244 C 
ATOM      8  O   UNL     1       5.422  -2.079  -3.608  0.00  0.00    -0.270 OA
ATOM      9  N   UNL     1       5.426  -2.180  -1.389  0.00  0.00    -0.311 N 
ATOM     10  H   UNL     1       5.883  -2.446  -0.576  0.00  0.00    +0.149 HD
BRANCH   9  11
ATOM     11  C   UNL     1       4.117  -1.525  -1.313  0.00  0.00    +0.109 C 
BRANCH  11  12
ATOM     12  C   UNL     1       3.703  -1.381   0.152  0.00  0.00    +0.054 C 
BRANCH  12  13
ATOM     13  C   UNL     1       2.357  -0.708   0.230  0.00  0.00    -0.042 A 
ATOM     14  C   UNL     1       1.203  -1.469   0.218  0.00  0.00    +0.007 A 
ATOM     15  C   UNL     1      -0.033  -0.854   0.288  0.00  0.00    +0.050 A 
ATOM     16  C   UNL     1      -0.119   0.527   0.371  0.00  0.00    +0.162 A 
ATOM     17  C   UNL     1       1.042   1.292   0.386  0.00  0.00    +0.162 A 
ATOM     18  C   UNL     1       2.279   0.669   0.314  0.00  0.00    +0.053 A 
ATOM     19  O   UNL     1       0.981   2.649   0.474  0.00  0.00    -0.485 OA
ATOM     20  C   UNL     1      -0.278   3.258   0.168  0.00  0.00    +0.270 C 
ATOM     21  C   UNL     1      -1.381   2.474   0.892  0.00  0.00    +0.270 C 
ATOM     22  O   UNL     1      -1.343   1.119   0.430  0.00  0.00    -0.485 OA
ENDBRANCH  12  13
ENDBRANCH  11  12
ENDBRANCH   9  11
ENDBRANCH   5   7
BRANCH   1  23
ATOM     23  S   UNL     1       9.887  -4.240  -5.535  0.00  0.00    +0.072 S 
ATOM     24  O   UNL     1      10.792  -5.320  -5.348  0.00  0.00    -0.150 OA
ATOM     25  O   UNL     1       8.834  -4.286  -6.488  0.00  0.00    -0.150 OA
BRANCH  23  26
ATOM     26  N   UNL     1      10.805  -2.913  -5.908  0.00  0.00    -0.215 N 
ATOM     27  H   UNL     1      10.612  -2.399  -6.707  0.00  0.00    +0.174 HD
BRANCH  26  32
ATOM     28  C   UNL     1      13.661  -3.125  -3.604  0.00  0.00    +0.002 A 
ATOM     29  C   UNL     1      13.943  -1.784  -3.412  0.00  0.00    +0.002 A 
ATOM     30  C   UNL     1      13.185  -0.818  -4.046  0.00  0.00    +0.022 A 
ATOM     31  C   UNL     1      12.143  -1.188  -4.875  0.00  0.00    +0.063 A 
ATOM     32  C   UNL     1      11.858  -2.534  -5.071  0.00  0.00    +0.066 A 
ATOM     33  C   UNL     1      12.618  -3.502  -4.427  0.00  0.00    +0.026 A 
ATOM     34 CL   UNL     1      11.191   0.026  -5.671  0.00  0.00    -0.082 Cl
ENDBRANCH  26  32
ENDBRANCH  23  26
ENDBRANCH   1  23
TORSDOF 7
