REMARK  Name = ZINC13239043
REMARK  3 active torsions:
REMARK  status: ('A' for Active; 'I' for Inactive)
REMARK    1  A    between atoms: N_11  and  C_12
REMARK    2  A    between atoms: N_15  and  S_18
REMARK    3  A    between atoms: S_18  and  C_21
REMARK                            x       y       z     vdW  Elec       q    Type
REMARK                         _______ _______ _______ _____ _____    ______ ____
ROOT
ATOM      1  C   UNL     1       4.875  -0.586  -0.046  0.00  0.00    +0.095 C 
ATOM      2  C   UNL     1       5.513  -1.178  -1.306  0.00  0.00    +0.042 C 
ATOM      3  C   UNL     1       7.004  -0.827  -1.332  0.00  0.00    +0.111 C 
ATOM      4  N   UNL     1       7.618  -1.278  -0.076  0.00  0.00    -0.176 NA
ATOM      5  C   UNL     1       7.027  -0.841   1.196  0.00  0.00    +0.111 C 
ATOM      6  C   UNL     1       5.536  -1.192   1.194  0.00  0.00    +0.042 C 
ENDROOT
BRANCH   1  17
ATOM      7  C   UNL     1      -0.017   1.377   0.010  0.00  0.00    +0.002 A 
ATOM      8  C   UNL     1       1.169   2.091   0.002  0.00  0.00    +0.002 A 
ATOM      9  C   UNL     1       2.381   1.429  -0.013  0.00  0.00    +0.028 A 
ATOM     10  C   UNL     1       2.410   0.043  -0.021  0.00  0.00    +0.070 A 
ATOM     11  C   UNL     1       1.214  -0.678  -0.013  0.00  0.00    +0.067 A 
ATOM     12  C   UNL     1       0.002  -0.004   0.002  0.00  0.00    +0.028 A 
ATOM     13  N   UNL     1       1.557  -2.028  -0.023  0.00  0.00    -0.306 N 
ATOM     14  H   UNL     1       0.934  -2.772  -0.021  0.00  0.00    +0.170 HD
ATOM     15  C   UNL     1       2.900  -2.124  -0.036  0.00  0.00    +0.328 A 
ATOM     16  O   UNL     1       3.528  -3.166  -0.047  0.00  0.00    -0.247 OA
ATOM     17  N   UNL     1       3.443  -0.892  -0.035  0.00  0.00    -0.289 N 
ENDBRANCH   1  17
BRANCH   4  18
ATOM     18  S   UNL     1       8.950  -2.261  -0.094  0.00  0.00    +0.067 S 
ATOM     19  O   UNL     1       8.961  -2.952   1.148  0.00  0.00    -0.152 OA
ATOM     20  O   UNL     1       8.938  -2.939  -1.343  0.00  0.00    -0.152 OA
BRANCH  18  21
ATOM     21  C   UNL     1      10.369  -1.216  -0.102  0.00  0.00    +0.144 A 
ATOM     22  C   UNL     1      11.069  -0.721   0.947  0.00  0.00    +0.038 A 
ATOM     23  C   UNL     1      12.162   0.089   0.701  0.00  0.00    +0.030 A 
ATOM     24  C   UNL     1      12.501   0.363  -0.584  0.00  0.00    +0.080 A 
ATOM     25  S   UNL     1      11.261  -0.543  -1.494  0.00  0.00    -0.057 S 
ATOM     26 CL   UNL     1      13.806   1.336  -1.187  0.00  0.00    -0.076 Cl
ENDBRANCH  18  21
ENDBRANCH   4  18
TORSDOF 3
