REMARK  Name = ZINC39686123
REMARK  8 active torsions:
REMARK  status: ('A' for Active; 'I' for Inactive)
REMARK    1  A    between atoms: C_1  and  C_2
REMARK    2  A    between atoms: C_3  and  C_13
REMARK    3  A    between atoms: C_4  and  C_7
REMARK    4  A    between atoms: C_17  and  C_26
REMARK    5  A    between atoms: N_28  and  C_29
REMARK    6  A    between atoms: C_35  and  C_37
REMARK    7  A    between atoms: C_37  and  C_38
REMARK    8  A    between atoms: C_37  and  C_39
REMARK                            x       y       z     vdW  Elec       q    Type
REMARK                         _______ _______ _______ _____ _____    ______ ____
ROOT
ATOM      1  C   UNL     1      -2.184  -1.278   1.665  0.00  0.00    +0.252 C 
ATOM      2  O   UNL     1      -3.025  -1.378   0.792  0.00  0.00    -0.270 OA
ATOM      3  N   UNL     1      -2.544  -0.905   2.909  0.00  0.00    -0.296 N 
ATOM      4  C   UNL     1      -1.661  -0.620   4.064  0.00  0.00    +0.121 C 
ATOM      5  C   UNL     1      -2.309   0.597   4.761  0.00  0.00    +0.100 C 
ATOM      6  C   UNL     1      -3.788   0.546   4.343  0.00  0.00    -0.004 C 
ATOM      7  C   UNL     1      -3.914  -0.682   3.429  0.00  0.00    +0.115 C 
ATOM      8  C   UNL     1      -4.164   1.809   3.575  0.00  0.00    -0.010 C 
ATOM      9  C   UNL     1      -5.653   1.761   3.220  0.00  0.00    -0.082 C 
ATOM     10  N   UNL     1      -6.448   1.657   4.450  0.00  0.00    +0.379 N 
ATOM     11  C   UNL     1      -6.147   0.395   5.136  0.00  0.00    -0.082 C 
ATOM     12  C   UNL     1      -4.679   0.385   5.572  0.00  0.00    -0.010 C 
ATOM     13  H   UNL     1      -6.225   2.431   5.059  0.00  0.00    -0.086 HD
ATOM     14  H   UNL     1      -7.429   1.687   4.219  0.00  0.00    -0.086 HD
ENDROOT
BRANCH   1  17
ATOM     15  C   UNL     1      -0.140   0.721   0.401  0.00  0.00    +0.090 C 
ATOM     16  C   UNL     1       0.133  -0.703   0.811  0.00  0.00    +0.147 A 
ATOM     17  C   UNL     1      -0.771  -1.563   1.362  0.00  0.00    +0.106 A 
ATOM     18  C   UNL     1      -0.063  -2.831   1.595  0.00  0.00    +0.126 A 
ATOM     19  N   UNL     1       1.169  -2.660   1.187  0.00  0.00    -0.077 NA
ATOM     20  O   UNL     1       1.300  -1.342   0.693  0.00  0.00    -0.359 OA
BRANCH  18  21
ATOM     21  C   UNL     1      -0.635  -4.068   2.181  0.00  0.00    +0.004 A 
ATOM     22  C   UNL     1      -1.605  -3.986   3.179  0.00  0.00    +0.010 A 
ATOM     23  C   UNL     1      -2.134  -5.140   3.720  0.00  0.00    +0.001 A 
ATOM     24  C   UNL     1      -1.704  -6.377   3.273  0.00  0.00    +0.000 A 
ATOM     25  C   UNL     1      -0.742  -6.464   2.283  0.00  0.00    +0.001 A 
ATOM     26  C   UNL     1      -0.210  -5.317   1.731  0.00  0.00    +0.010 A 
ENDBRANCH  18  21
ENDBRANCH   1  17
BRANCH   5  27
ATOM     27  C   UNL     1      -1.671   1.876   4.285  0.00  0.00    +0.218 C 
ATOM     28  O   UNL     1      -1.155   1.925   3.188  0.00  0.00    -0.275 OA
ATOM     29  N   UNL     1      -1.673   2.966   5.077  0.00  0.00    -0.312 N 
ATOM     30  H   UNL     1      -2.020   2.908   5.981  0.00  0.00    +0.149 HD
BRANCH  29  31
ATOM     31  C   UNL     1      -1.151   4.239   4.574  0.00  0.00    +0.076 C 
ATOM     32  C   UNL     1       0.376   4.238   4.671  0.00  0.00    +0.041 C 
ATOM     33  C   UNL     1       0.920   5.556   4.111  0.00  0.00    +0.109 C 
ATOM     34  N   UNL     1       0.272   6.672   4.814  0.00  0.00    -0.301 N 
ATOM     35  C   UNL     1      -1.196   6.720   4.859  0.00  0.00    +0.109 C 
ATOM     36  C   UNL     1      -1.716   5.389   5.410  0.00  0.00    +0.041 C 
ATOM     37  C   UNL     1       1.009   7.632   5.406  0.00  0.00    +0.218 C 
ATOM     38  O   UNL     1       2.215   7.637   5.277  0.00  0.00    -0.275 OA
BRANCH  37  39
ATOM     39  C   UNL     1       0.335   8.700   6.229  0.00  0.00    +0.069 C 
ATOM     40  C   UNL     1       1.396   9.538   6.945  0.00  0.00    +0.017 C 
ATOM     41  C   UNL     1      -0.495   9.601   5.313  0.00  0.00    +0.017 C 
ENDBRANCH  37  39
ENDBRANCH  29  31
ENDBRANCH   5  27
TORSDOF 5
