REMARK  Name = ZINC29923904
REMARK  7 active torsions:
REMARK  status: ('A' for Active; 'I' for Inactive)
REMARK    1  A    between atoms: C_6  and  O_7
REMARK    2  A    between atoms: O_7  and  C_8
REMARK    3  A    between atoms: N_15  and  C_16
REMARK    4  A    between atoms: C_16  and  C_17
REMARK    5  A    between atoms: C_17  and  C_19
REMARK    6  A    between atoms: C_20  and  N_31
REMARK    7  A    between atoms: N_21  and  C_28
REMARK                            x       y       z     vdW  Elec       q    Type
REMARK                         _______ _______ _______ _____ _____    ______ ____
ROOT
ATOM      1  C   UNL     1       2.698   4.420   0.935  0.00  0.00    +0.189 C 
ATOM      2  O   UNL     1       2.728   3.798   1.978  0.00  0.00    -0.290 OA
ENDROOT
BRANCH   1   3
ATOM      3  C   UNL     1       3.013   5.795   0.924  0.00  0.00    +0.121 A 
ATOM      4  C   UNL     1       3.231   6.499   2.122  0.00  0.00    +0.116 A 
ATOM      5  N   UNL     1       3.534   7.829   2.061  0.00  0.00    -0.278 N 
ATOM      6  C   UNL     1       3.625   8.471   0.885  0.00  0.00    +0.331 A 
ATOM      7  O   UNL     1       3.896   9.655   0.884  0.00  0.00    -0.246 OA
ATOM      8  N   UNL     1       3.427   7.852  -0.290  0.00  0.00    -0.274 N 
ATOM      9  H   UNL     1       3.503   8.356  -1.115  0.00  0.00    +0.173 HD
ATOM     10  C   UNL     1       3.129   6.537  -0.338  0.00  0.00    +0.266 A 
ATOM     11  O   UNL     1       2.955   5.978  -1.405  0.00  0.00    -0.267 OA
BRANCH   5  12
ATOM     12  C   UNL     1       3.763   8.571   3.303  0.00  0.00    +0.094 C 
ATOM     13  C   UNL     1       5.000   9.468   3.372  0.00  0.00    +0.027 C 
ATOM     14  C   UNL     1       4.960   8.158   4.162  0.00  0.00    +0.027 C 
ENDBRANCH   5  12
BRANCH   4  15
ATOM     15  N   UNL     1       3.142   5.864   3.322  0.00  0.00    -0.344 N 
ATOM     16  H   UNL     1       3.325   4.914   3.383  0.00  0.00    +0.144 HD
ATOM     17  H   UNL     1       2.896   6.363   4.117  0.00  0.00    +0.144 HD
ENDBRANCH   4  15
ENDBRANCH   1   3
BRANCH   1  18
ATOM     18  C   UNL     1       2.326   3.722  -0.348  0.00  0.00    +0.185 C 
BRANCH  18  28
ATOM     19  C   UNL     1      -1.490   2.455   0.909  0.00  0.00    +0.048 A 
ATOM     20  C   UNL     1      -0.205   2.844   0.589  0.00  0.00    +0.027 A 
ATOM     21  C   UNL     1       0.749   1.891   0.252  0.00  0.00    +0.033 A 
ATOM     22  C   UNL     1       0.414   0.546   0.238  0.00  0.00    -0.023 A 
ATOM     23  C   UNL     1      -0.877   0.160   0.557  0.00  0.00    +0.051 A 
ATOM     24  C   UNL     1      -1.828   1.110   0.892  0.00  0.00    +0.130 A 
ATOM     25  C   UNL     1       1.425  -0.513  -0.111  0.00  0.00    +0.038 C 
ATOM     26  C   UNL     1       2.586   0.093  -0.899  0.00  0.00    +0.024 C 
ATOM     27  C   UNL     1       3.122   1.311  -0.135  0.00  0.00    +0.106 C 
ATOM     28  N   UNL     1       2.047   2.311  -0.073  0.00  0.00    -0.322 N 
BRANCH  24  29
ATOM     29  O   UNL     1      -3.094   0.724   1.205  0.00  0.00    -0.406 OA
BRANCH  29  30
ATOM     30  C   UNL     1      -4.023   1.756   1.541  0.00  0.00    +0.575 C 
ATOM     31  F   UNL     1      -4.154   2.635   0.460  0.00  0.00    -0.133 F 
ATOM     32  F   UNL     1      -5.267   1.187   1.833  0.00  0.00    -0.133 F 
ATOM     33  F   UNL     1      -3.557   2.458   2.658  0.00  0.00    -0.133 F 
ENDBRANCH  29  30
ENDBRANCH  24  29
ENDBRANCH  18  28
ENDBRANCH   1  18
TORSDOF 7
