REMARK  Name = ZINC00915013
REMARK  10 active torsions:
REMARK  status: ('A' for Active; 'I' for Inactive)
REMARK    1  A    between atoms: C_1  and  C_2
REMARK    2  A    between atoms: C_7  and  C_8
REMARK    3  A    between atoms: C_12  and  C_15
REMARK    4  A    between atoms: C_15  and  C_16
REMARK    5  A    between atoms: N_18  and  C_19
REMARK    6  A    between atoms: C_20  and  C_26
REMARK    7  A    between atoms: C_21  and  C_25
REMARK    8  A    between atoms: C_22  and  C_24
REMARK    9  A    between atoms: C_26  and  O_28
REMARK   10  A    between atoms: O_28  and  C_29
REMARK                            x       y       z     vdW  Elec       q    Type
REMARK                         _______ _______ _______ _____ _____    ______ ____
ROOT
ATOM      1  C   UNL     1      -2.086  -4.007  -2.509  0.00  0.00    +0.127 C 
ENDROOT
BRANCH   1  13
ATOM      2  C   UNL     1      -0.018   1.503   0.010  0.00  0.00    +0.044 C 
ATOM      3  C   UNL     1       0.002  -0.004   0.002  0.00  0.00    -0.046 A 
ATOM      4  C   UNL     1       0.006  -0.688  -1.201  0.00  0.00    +0.028 A 
ATOM      5  C   UNL     1       0.022  -2.071  -1.205  0.00  0.00    +0.049 A 
ATOM      6  C   UNL     1       0.030  -2.776  -0.000  0.00  0.00    +0.055 A 
ATOM      7  C   UNL     1       0.032  -2.083   1.199  0.00  0.00    +0.028 A 
ATOM      8  C   UNL     1       0.023  -0.700   1.196  0.00  0.00    -0.046 A 
ATOM      9  C   UNL     1       0.029   0.053   2.502  0.00  0.00    +0.044 C 
ATOM     10  N   UNL     1       0.022  -4.176  -0.015  0.00  0.00    -0.282 N 
ATOM     11  C   UNL     1      -0.184  -4.853  -1.159  0.00  0.00    +0.238 C 
ATOM     12  O   UNL     1      -0.064  -6.060  -1.171  0.00  0.00    -0.273 OA
ATOM     13  C   UNL     1      -0.563  -4.129  -2.425  0.00  0.00    +0.166 C 
ATOM     14  N   UNL     1       0.039  -2.788  -2.410  0.00  0.00    -0.331 N 
ATOM     15  H   UNL     1       0.168  -4.663   0.811  0.00  0.00    +0.155 HD
ATOM     16  H   UNL     1       0.436  -2.410  -3.210  0.00  0.00    +0.147 HD
ENDBRANCH   1  13
BRANCH   1  17
ATOM     17  C   UNL     1      -2.469  -3.394  -3.831  0.00  0.00    +0.220 C 
ATOM     18  O   UNL     1      -1.609  -3.085  -4.628  0.00  0.00    -0.275 OA
ATOM     19  N   UNL     1      -3.768  -3.189  -4.128  0.00  0.00    -0.279 N 
ATOM     20  H   UNL     1      -4.456  -3.437  -3.491  0.00  0.00    +0.155 HD
BRANCH  19  21
ATOM     21  C   UNL     1      -4.120  -2.625  -5.344  0.00  0.00    +0.086 A 
ATOM     22  C   UNL     1      -5.394  -2.338  -5.814  0.00  0.00    +0.091 A 
ATOM     23  C   UNL     1      -5.479  -1.745  -7.130  0.00  0.00    -0.025 A 
ATOM     24  C   UNL     1      -4.306  -1.536  -7.756  0.00  0.00    -0.008 A 
ATOM     25  S   UNL     1      -3.105  -2.126  -6.583  0.00  0.00    -0.078 S 
ATOM     26  C   UNL     1      -4.066  -0.942  -9.120  0.00  0.00    +0.052 C 
ATOM     27  C   UNL     1      -6.798  -1.383  -7.762  0.00  0.00    +0.045 C 
BRANCH  22  28
ATOM     28  C   UNL     1      -6.591  -2.621  -5.019  0.00  0.00    +0.342 C 
ATOM     29  O   UNL     1      -7.030  -1.779  -4.260  0.00  0.00    -0.245 OA
BRANCH  28  30
ATOM     30  O   UNL     1      -7.206  -3.817  -5.129  0.00  0.00    -0.464 OA
ATOM     31  C   UNL     1      -8.368  -4.025  -4.324  0.00  0.00    +0.280 C 
ENDBRANCH  28  30
ENDBRANCH  22  28
ENDBRANCH  19  21
ENDBRANCH   1  17
TORSDOF 5
