REMARK  Name = ZINC50852405
REMARK  2 active torsions:
REMARK  status: ('A' for Active; 'I' for Inactive)
REMARK    1  A    between atoms: C_1  and  C_2
REMARK    2  A    between atoms: C_2  and  N_3
REMARK                            x       y       z     vdW  Elec       q    Type
REMARK                         _______ _______ _______ _____ _____    ______ ____
ROOT
ATOM      1  N   UNL     1       0.688  -0.476  -1.203  0.00  0.00    -0.329 N 
ATOM      2  C   UNL     1       0.831  -1.835  -1.431  0.00  0.00    +0.127 A 
ATOM      3  C   UNL     1       1.490  -2.296  -2.578  0.00  0.00    +0.014 A 
ATOM      4  C   UNL     1       1.613  -3.651  -2.765  0.00  0.00    +0.051 A 
ATOM      5  N   UNL     1       1.099  -4.477  -1.857  0.00  0.00    -0.219 NA
ATOM      6  C   UNL     1       0.480  -4.016  -0.783  0.00  0.00    +0.220 A 
ATOM      7  N   UNL     1       0.349  -2.716  -0.562  0.00  0.00    -0.199 NA
ATOM      8  N   UNL     1      -0.039  -4.912   0.135  0.00  0.00    -0.295 N 
ATOM      9  C   UNL     1       0.095  -6.364  -0.066  0.00  0.00    +0.136 C 
ATOM     10  C   UNL     1       0.657  -6.980   1.220  0.00  0.00    +0.179 C 
ATOM     11  O   UNL     1      -0.142  -6.563   2.331  0.00  0.00    -0.377 OA
ATOM     12  C   UNL     1      -0.136  -5.152   2.558  0.00  0.00    +0.179 C 
ATOM     13  C   UNL     1      -0.735  -4.442   1.343  0.00  0.00    +0.136 C 
ATOM     14  C   UNL     1       2.317  -4.244  -3.955  0.00  0.00    +0.056 C 
ATOM     15  C   UNL     1       2.451  -3.208  -5.069  0.00  0.00    +0.006 C 
ATOM     16  C   UNL     1       3.062  -1.932  -4.476  0.00  0.00    +0.005 C 
ATOM     17  C   UNL     1       2.029  -1.286  -3.553  0.00  0.00    +0.040 C 
ATOM     18  H   UNL     1       1.042   0.162  -1.842  0.00  0.00    +0.147 HD
ENDROOT
BRANCH   1  20
ATOM     19  C   UNL     1      -0.019   1.526   0.010  0.00  0.00    +0.024 C 
ATOM     20  C   UNL     1       0.002  -0.004   0.002  0.00  0.00    +0.099 C 
ENDBRANCH   1  20
TORSDOF 1
