REMARK  Name = ZINC65306009
REMARK  8 active torsions:
REMARK  status: ('A' for Active; 'I' for Inactive)
REMARK    1  A    between atoms: C_1  and  C_2
REMARK    2  A    between atoms: C_2  and  C_3
REMARK    3  A    between atoms: C_3  and  C_4
REMARK    4  A    between atoms: C_4  and  C_6
REMARK    5  A    between atoms: C_4  and  N_18
REMARK    6  A    between atoms: N_8  and  C_9
REMARK    7  A    between atoms: C_19  and  C_21
REMARK    8  A    between atoms: C_21  and  C_22
REMARK                            x       y       z     vdW  Elec       q    Type
REMARK                         _______ _______ _______ _____ _____    ______ ____
ROOT
ATOM      1  C   UNL     1       0.739  -2.027  -1.265  0.00  0.00    +0.159 C 
ENDROOT
BRANCH   1   2
ATOM      2  C   UNL     1       1.334  -2.514  -2.561  0.00  0.00    +0.236 C 
ATOM      3  O   UNL     1       2.335  -3.198  -2.550  0.00  0.00    -0.274 OA
ATOM      4  N   UNL     1       0.753  -2.190  -3.733  0.00  0.00    -0.277 N 
ATOM      5  H   UNL     1      -0.048  -1.643  -3.743  0.00  0.00    +0.152 HD
BRANCH   4   6
ATOM      6  C   UNL     1       1.331  -2.664  -4.993  0.00  0.00    +0.269 C 
ATOM      7  N   UNL     1       2.498  -1.847  -5.351  0.00  0.00    -0.348 N 
ATOM      8  C   UNL     1       2.244  -1.284  -6.497  0.00  0.00    +0.061 A 
ATOM      9  C   UNL     1       3.013  -0.371  -7.353  0.00  0.00    +0.027 A 
ATOM     10  C   UNL     1       2.480   0.058  -8.515  0.00  0.00    +0.002 A 
ATOM     11  C   UNL     1       1.203  -0.334  -8.954  0.00  0.00    +0.002 A 
ATOM     12  C   UNL     1       0.415  -1.167  -8.245  0.00  0.00    +0.027 A 
ATOM     13  C   UNL     1       0.892  -1.699  -6.962  0.00  0.00    +0.061 A 
ATOM     14  N   UNL     1       0.362  -2.502  -6.085  0.00  0.00    -0.348 N 
ATOM     15  H   UNL     1       3.309  -1.745  -4.829  0.00  0.00    +0.163 HD
ATOM     16  H   UNL     1      -0.512  -2.918  -6.142  0.00  0.00    +0.163 HD
ENDBRANCH   4   6
ENDBRANCH   1   2
BRANCH   1  17
ATOM     17  N   UNL     1       1.548  -2.511  -0.144  0.00  0.00    -0.304 N 
ATOM     18  C   UNL     1       0.993  -2.654   1.076  0.00  0.00    +0.218 C 
ATOM     19  O   UNL     1      -0.176  -2.382   1.245  0.00  0.00    -0.275 OA
ATOM     20  H   UNL     1       2.484  -2.728  -0.280  0.00  0.00    +0.149 HD
BRANCH  18  21
ATOM     21  C   UNL     1       1.826  -3.151   2.229  0.00  0.00    +0.130 C 
BRANCH  21  22
ATOM     22  C   UNL     1       0.975  -3.220   3.470  0.00  0.00    -0.039 A 
ATOM     23  C   UNL     1       0.880  -2.123   4.306  0.00  0.00    +0.005 A 
ATOM     24  C   UNL     1       0.100  -2.186   5.444  0.00  0.00    +0.020 A 
ATOM     25  C   UNL     1      -0.588  -3.347   5.748  0.00  0.00    +0.041 A 
ATOM     26  C   UNL     1      -0.493  -4.445   4.912  0.00  0.00    +0.020 A 
ATOM     27  C   UNL     1       0.283  -4.379   3.771  0.00  0.00    +0.005 A 
ATOM     28 CL   UNL     1      -1.568  -3.427   7.179  0.00  0.00    -0.084 Cl
ENDBRANCH  21  22
ENDBRANCH  18  21
ENDBRANCH   1  17
BRANCH   1  29
ATOM     29  C   UNL     1       0.718  -0.497  -1.257  0.00  0.00    +0.031 C 
BRANCH  29  31
ATOM     30  C   UNL     1      -0.019   1.526   0.010  0.00  0.00    +0.004 C 
ATOM     31  C   UNL     1       0.002  -0.004   0.002  0.00  0.00    -0.001 C 
ENDBRANCH  29  31
ENDBRANCH   1  29
TORSDOF 7
