REMARK  Name = ZINC39467294
REMARK  7 active torsions:
REMARK  status: ('A' for Active; 'I' for Inactive)
REMARK    1  A    between atoms: C_1  and  S_2
REMARK    2  A    between atoms: S_2  and  C_3
REMARK    3  A    between atoms: P_12  and  C_31
REMARK    4  A    between atoms: C_20  and  S_21
REMARK    5  A    between atoms: S_21  and  O_24
REMARK    6  A    between atoms: O_24  and  C_25
REMARK    7  A    between atoms: C_36  and  O_37
REMARK                            x       y       z     vdW  Elec       q    Type
REMARK                         _______ _______ _______ _____ _____    ______ ____
ROOT
ATOM      1  C   UNL     1       0.533  -0.239   1.182  0.00  0.00    +0.032 C 
ATOM      2  C   UNL     1       0.875   0.864   1.861  0.00  0.00    -0.006 C 
ATOM      3  C   UNL     1       1.643   0.738   3.150  0.00  0.00    +0.017 C 
ATOM      4  C   UNL     1       1.401   1.953   4.032  0.00  0.00    -0.003 C 
ATOM      5  C   UNL     1       1.601   1.610   5.515  0.00  0.00    -0.020 C 
ATOM      6  C   UNL     1       2.059   2.915   6.184  0.00  0.00    +0.157 C 
ATOM      7  O   UNL     1       2.248   2.715   7.593  0.00  0.00    -0.316 OA
ATOM      8  P   UNL     1       3.173   1.455   8.050  0.00  0.00    +0.291 P 
ATOM      9  O   UNL     1       2.871   1.076   9.449  0.00  0.00    -0.269 OA
ATOM     10  N   UNL     1       2.759   0.234   7.023  0.00  0.00    -0.288 NA
ATOM     11  N   UNL     1       2.576   0.541   5.690  0.00  0.00    +0.398 N 
ATOM     12  C   UNL     1       2.125  -0.729   5.098  0.00  0.00    -0.046 C 
ATOM     13  C   UNL     1       1.187  -0.510   3.903  0.00  0.00    +0.006 C 
ATOM     14  C   UNL     1       1.232  -1.703   2.986  0.00  0.00    +0.007 C 
ATOM     15  C   UNL     1       0.922  -1.565   1.704  0.00  0.00    +0.137 C 
ATOM     16  H   UNL     1       2.655  -0.673   7.350  0.00  0.00    +0.111 HD
ATOM     17  H   UNL     1       3.453   0.814   5.273  0.00  0.00    -0.055 HD
ENDROOT
BRANCH   8  18
ATOM     18  C   UNL     1       4.931   1.866   7.874  0.00  0.00    +0.091 A 
ATOM     19  C   UNL     1       5.585   1.610   6.684  0.00  0.00    +0.018 A 
ATOM     20  C   UNL     1       6.925   1.922   6.549  0.00  0.00    +0.001 A 
ATOM     21  C   UNL     1       7.614   2.492   7.604  0.00  0.00    +0.004 A 
ATOM     22  C   UNL     1       6.965   2.750   8.796  0.00  0.00    +0.046 A 
ATOM     23  C   UNL     1       5.619   2.442   8.932  0.00  0.00    +0.131 A 
BRANCH  23  24
ATOM     24  O   UNL     1       4.976   2.700  10.101  0.00  0.00    -0.506 OA
ATOM     25  H   UNL     1       5.007   1.972  10.736  0.00  0.00    +0.292 HD
ENDBRANCH  23  24
ENDBRANCH   8  18
BRANCH  15  26
ATOM     26  S   UNL     1       0.981  -2.958   0.626  0.00  0.00    +0.152 S 
ATOM     27  O   UNL     1       1.617  -2.521  -0.567  0.00  0.00    -0.131 OA
ATOM     28  O   UNL     1       1.472  -4.046   1.397  0.00  0.00    -0.131 OA
BRANCH  26  29
ATOM     29  O   UNL     1      -0.454  -3.300   0.254  0.00  0.00    -0.342 OA
BRANCH  29  30
ATOM     30  C   UNL     1      -1.154  -3.905   1.250  0.00  0.00    +0.157 A 
ATOM     31  C   UNL     1      -1.164  -5.288   1.351  0.00  0.00    +0.048 A 
ATOM     32  C   UNL     1      -1.876  -5.901   2.364  0.00  0.00    +0.004 A 
ATOM     33  C   UNL     1      -2.579  -5.136   3.276  0.00  0.00    +0.000 A 
ATOM     34  C   UNL     1      -2.572  -3.757   3.177  0.00  0.00    +0.004 A 
ATOM     35  C   UNL     1      -1.856  -3.140   2.170  0.00  0.00    +0.048 A 
ENDBRANCH  29  30
ENDBRANCH  26  29
ENDBRANCH  15  26
BRANCH   1  37
ATOM     36  C   UNL     1      -0.612   1.677  -0.539  0.00  0.00    +0.090 C 
ATOM     37  S   UNL     1      -0.380  -0.109  -0.320  0.00  0.00    -0.127 S 
ENDBRANCH   1  37
TORSDOF 6
