REMARK  Name = ZINC20615731
REMARK  4 active torsions:
REMARK  status: ('A' for Active; 'I' for Inactive)
REMARK    1  A    between atoms: C_1  and  C_2
REMARK    2  A    between atoms: N_10  and  N_11
REMARK    3  A    between atoms: N_19  and  C_22
REMARK    4  A    between atoms: C_22  and  C_23
REMARK                            x       y       z     vdW  Elec       q    Type
REMARK                         _______ _______ _______ _____ _____    ______ ____
ROOT
ATOM      1  N   UNL     1       3.616  -1.838  -0.025  0.00  0.00    -0.174 NA
ATOM      2  C   UNL     1       4.781  -2.435   0.065  0.00  0.00    +0.153 C 
ATOM      3  C   UNL     1       5.051  -3.891   0.067  0.00  0.00    +0.029 A 
ATOM      4  C   UNL     1       4.231  -5.011  -0.018  0.00  0.00    +0.027 A 
ATOM      5  C   UNL     1       4.792  -6.274   0.011  0.00  0.00    +0.019 A 
ATOM      6  C   UNL     1       6.165  -6.421   0.125  0.00  0.00    +0.017 A 
ATOM      7  C   UNL     1       6.986  -5.315   0.210  0.00  0.00    +0.025 A 
ATOM      8  C   UNL     1       6.439  -4.036   0.182  0.00  0.00    +0.046 A 
ATOM      9  N   UNL     1       7.028  -2.778   0.250  0.00  0.00    -0.261 N 
ATOM     10  C   UNL     1       6.109  -1.801   0.180  0.00  0.00    +0.272 C 
ATOM     11  O   UNL     1       6.331  -0.605   0.209  0.00  0.00    -0.268 OA
ATOM     12 BR   UNL     1       3.684  -7.802  -0.105  0.00  0.00    -0.050 Br
ENDROOT
BRANCH   1  22
ATOM     13  C   UNL     1       0.010   1.406  -0.942  0.00  0.00    +0.066 C 
ATOM     14  C   UNL     1       0.021  -0.069  -0.633  0.00  0.00    +0.047 A 
ATOM     15  C   UNL     1      -1.154  -0.760  -0.566  0.00  0.00    +0.093 A 
ATOM     16  C   UNL     1      -1.117  -2.136  -0.275  0.00  0.00    +0.253 A 
ATOM     17  O   UNL     1      -2.148  -2.785  -0.208  0.00  0.00    -0.268 OA
ATOM     18  N   UNL     1       0.082  -2.724  -0.073  0.00  0.00    -0.294 N 
ATOM     19  H   UNL     1       0.131  -3.672   0.128  0.00  0.00    +0.172 HD
ATOM     20  C   UNL     1       1.220  -1.983  -0.153  0.00  0.00    +0.216 A 
ATOM     21  N   UNL     1       1.177  -0.697  -0.431  0.00  0.00    -0.220 NA
ATOM     22  N   UNL     1       2.436  -2.590   0.054  0.00  0.00    -0.206 N 
ATOM     23  H   UNL     1       2.478  -3.538   0.255  0.00  0.00    +0.177 HD
ENDBRANCH   1  22
BRANCH   9  24
ATOM     24  C   UNL     1       8.470  -2.547   0.376  0.00  0.00    +0.150 C 
BRANCH  24  25
ATOM     25  C   UNL     1       9.084  -2.448  -0.997  0.00  0.00    -0.011 A 
ATOM     26  C   UNL     1       9.734  -3.539  -1.543  0.00  0.00    +0.006 A 
ATOM     27  C   UNL     1      10.298  -3.448  -2.802  0.00  0.00    +0.000 A 
ATOM     28  C   UNL     1      10.212  -2.267  -3.515  0.00  0.00    +0.001 A 
ATOM     29  C   UNL     1       9.562  -1.176  -2.970  0.00  0.00    +0.020 A 
ATOM     30  C   UNL     1       8.993  -1.268  -1.712  0.00  0.00    +0.046 A 
ATOM     31 CL   UNL     1       8.170   0.100  -1.029  0.00  0.00    -0.083 Cl
ENDBRANCH  24  25
ENDBRANCH   9  24
TORSDOF 3
