REMARK  Name = ZINC16935966
REMARK  5 active torsions:
REMARK  status: ('A' for Active; 'I' for Inactive)
REMARK    1  A    between atoms: C_1  and  C_2
REMARK    2  A    between atoms: C_2  and  N_3
REMARK    3  A    between atoms: C_7  and  C_8
REMARK    4  A    between atoms: N_17  and  C_18
REMARK    5  A    between atoms: C_21  and  O_24
REMARK                            x       y       z     vdW  Elec       q    Type
REMARK                         _______ _______ _______ _____ _____    ______ ____
ROOT
ATOM      1  N   UNL     1       4.517   0.710  -1.295  0.00  0.00    -0.246 N 
ATOM      2  C   UNL     1       5.405   1.338  -2.047  0.00  0.00    +0.259 C 
ATOM      3  O   UNL     1       6.549   0.935  -2.151  0.00  0.00    -0.269 OA
ATOM      4  C   UNL     1       4.946   2.550  -2.755  0.00  0.00    +0.078 C 
ATOM      5  C   UNL     1       5.634   3.377  -3.581  0.00  0.00    +0.028 C 
ATOM      6  S   UNL     1       3.237   2.630  -2.237  0.00  0.00    -0.049 S 
ATOM      7  C   UNL     1       3.226   1.183  -1.190  0.00  0.00    +0.168 C 
ATOM      8  N   UNL     1       2.229   0.687  -0.494  0.00  0.00    -0.225 NA
ENDROOT
BRANCH   5   9
ATOM      9  C   UNL     1       4.928   4.439  -4.313  0.00  0.00    -0.022 A 
ATOM     10  C   UNL     1       3.536   4.391  -4.453  0.00  0.00    +0.008 A 
ATOM     11  C   UNL     1       2.881   5.392  -5.138  0.00  0.00    +0.002 A 
ATOM     12  C   UNL     1       3.596   6.439  -5.693  0.00  0.00    +0.020 A 
ATOM     13  C   UNL     1       4.974   6.492  -5.563  0.00  0.00    +0.042 A 
ATOM     14  C   UNL     1       5.644   5.499  -4.878  0.00  0.00    +0.028 A 
ATOM     15 CL   UNL     1       5.860   7.809  -6.265  0.00  0.00    -0.084 Cl
ENDBRANCH   5   9
BRANCH   8  16
ATOM     16  C   UNL     1       1.006   1.303  -0.515  0.00  0.00    +0.067 A 
ATOM     17  C   UNL     1      -0.157   0.545  -0.665  0.00  0.00    +0.031 A 
ATOM     18  C   UNL     1      -1.387   1.170  -0.691  0.00  0.00    +0.047 A 
ATOM     19  C   UNL     1      -1.469   2.549  -0.557  0.00  0.00    +0.117 A 
ATOM     20  C   UNL     1      -0.315   3.306  -0.406  0.00  0.00    +0.047 A 
ATOM     21  C   UNL     1       0.918   2.690  -0.386  0.00  0.00    +0.031 A 
BRANCH  19  22
ATOM     22  O   UNL     1      -2.683   3.161  -0.578  0.00  0.00    -0.507 OA
ATOM     23  H   UNL     1      -2.976   3.423  -1.461  0.00  0.00    +0.292 HD
ENDBRANCH  19  22
ENDBRANCH   8  16
BRANCH   1  25
ATOM     24  C   UNL     1       4.657  -1.727  -1.442  0.00  0.00    +0.025 C 
ATOM     25  C   UNL     1       4.908  -0.499  -0.566  0.00  0.00    +0.112 C 
ENDBRANCH   1  25
TORSDOF 4
