REMARK  Name = ZINC10083231
REMARK  9 active torsions:
REMARK  status: ('A' for Active; 'I' for Inactive)
REMARK    1  A    between atoms: C_1  and  C_2
REMARK    2  A    between atoms: C_2  and  C_3
REMARK    3  A    between atoms: C_6  and  C_15
REMARK    4  A    between atoms: C_13  and  O_14
REMARK    5  A    between atoms: C_15  and  S_16
REMARK    6  A    between atoms: S_16  and  C_17
REMARK    7  A    between atoms: C_20  and  C_23
REMARK    8  A    between atoms: N_21  and  N_22
REMARK    9  A    between atoms: C_26  and  C_29
REMARK                            x       y       z     vdW  Elec       q    Type
REMARK                         _______ _______ _______ _____ _____    ______ ____
ROOT
ATOM      1  C   UNL     1      -0.173  -4.812  -0.085  0.00  0.00    +0.113 C 
ENDROOT
BRANCH   1   5
ATOM      2  C   UNL     1      -1.930  -6.995   3.211  0.00  0.00    -0.005 A 
ATOM      3  C   UNL     1      -1.378  -6.313   2.164  0.00  0.00    +0.019 A 
ATOM      4  C   UNL     1      -1.320  -6.909   0.900  0.00  0.00    +0.022 A 
ATOM      5  C   UNL     1      -0.733  -6.202  -0.241  0.00  0.00    -0.020 A 
ATOM      6  C   UNL     1      -0.701  -6.837  -1.442  0.00  0.00    +0.097 A 
ATOM      7  C   UNL     1      -1.230  -8.138  -1.562  0.00  0.00    +0.338 A 
ATOM      8  O   UNL     1      -1.196  -8.695  -2.644  0.00  0.00    -0.245 OA
ATOM      9  O   UNL     1      -1.772  -8.778  -0.514  0.00  0.00    -0.422 OA
ATOM     10  C   UNL     1      -1.835  -8.205   0.707  0.00  0.00    +0.143 A 
ATOM     11  C   UNL     1      -2.397  -8.880   1.779  0.00  0.00    +0.092 A 
ATOM     12  C   UNL     1      -2.436  -8.280   3.027  0.00  0.00    +0.124 A 
BRANCH   2  14
ATOM     13  C   UNL     1      -3.397  -5.794   4.809  0.00  0.00    +0.009 C 
ATOM     14  C   UNL     1      -1.992  -6.353   4.572  0.00  0.00    +0.035 C 
ENDBRANCH   2  14
BRANCH  12  15
ATOM     15  O   UNL     1      -2.983  -8.944   4.077  0.00  0.00    -0.506 OA
ATOM     16  H   UNL     1      -3.932  -8.796   4.185  0.00  0.00    +0.292 HD
ENDBRANCH  12  15
ENDBRANCH   1   5
BRANCH   1  17
ATOM     17  S   UNL     1      -1.476  -3.598  -0.410  0.00  0.00    -0.080 S 
BRANCH  17  18
ATOM     18  C   UNL     1      -0.571  -2.105  -0.164  0.00  0.00    +0.209 A 
ATOM     19  N   UNL     1       0.698  -2.008   0.164  0.00  0.00    -0.121 NA
ATOM     20  N   UNL     1       1.035  -0.772   0.262  0.00  0.00    -0.127 NA
ATOM     21  C   UNL     1       0.002  -0.004   0.002  0.00  0.00    +0.182 A 
ATOM     22  N   UNL     1      -1.060  -0.835  -0.273  0.00  0.00    -0.224 N 
BRANCH  21  23
ATOM     23  C   UNL     1      -0.018   1.474   0.010  0.00  0.00    +0.021 A 
ATOM     24  C   UNL     1      -1.234   2.159   0.020  0.00  0.00    +0.012 A 
ATOM     25  C   UNL     1      -1.246   3.538   0.033  0.00  0.00    +0.004 A 
ATOM     26  C   UNL     1      -0.056   4.243   0.026  0.00  0.00    -0.050 A 
ATOM     27  C   UNL     1       1.154   3.571   0.010  0.00  0.00    +0.004 A 
ATOM     28  C   UNL     1       1.179   2.191   0.003  0.00  0.00    +0.012 A 
ATOM     29  C   UNL     1      -0.076   5.750   0.035  0.00  0.00    +0.044 C 
ENDBRANCH  21  23
BRANCH  22  30
ATOM     30  N   UNL     1      -2.335  -0.466  -0.592  0.00  0.00    -0.295 N 
ATOM     31  H   UNL     1      -2.442  -0.360  -1.590  0.00  0.00    +0.163 HD
ATOM     32  H   UNL     1      -3.005  -1.124  -0.225  0.00  0.00    +0.163 HD
ENDBRANCH  22  30
ENDBRANCH  17  18
ENDBRANCH   1  17
TORSDOF 7
