REMARK  Name = ZINC39710266
REMARK  12 active torsions:
REMARK  status: ('A' for Active; 'I' for Inactive)
REMARK    1  A    between atoms: C_1  and  C_2
REMARK    2  A    between atoms: C_9  and  C_14
REMARK    3  A    between atoms: C_14  and  C_16
REMARK    4  A    between atoms: C_14  and  N_26
REMARK    5  A    between atoms: N_21  and  C_22
REMARK    6  A    between atoms: C_22  and  C_23
REMARK    7  A    between atoms: C_22  and  C_24
REMARK    8  A    between atoms: C_22  and  C_25
REMARK    9  A    between atoms: N_26  and  C_27
REMARK   10  A    between atoms: N_26  and  C_34
REMARK   11  A    between atoms: C_27  and  C_28
REMARK   12  A    between atoms: C_34  and  C_35
REMARK                            x       y       z     vdW  Elec       q    Type
REMARK                         _______ _______ _______ _____ _____    ______ ____
ROOT
ATOM      1  C   UNL     1      -1.140  -5.206   2.784  0.00  0.00    -0.008 C 
ENDROOT
BRANCH   1  10
ATOM      2  C   UNL     1      -2.513   0.735  -0.933  0.00  0.00    +0.044 C 
ATOM      3  C   UNL     1      -1.890  -0.625  -0.751  0.00  0.00    -0.050 A 
ATOM      4  C   UNL     1      -1.549  -1.376  -1.876  0.00  0.00    +0.005 A 
ATOM      5  C   UNL     1      -0.984  -2.608  -1.790  0.00  0.00    +0.024 A 
ATOM      6  C   UNL     1      -0.716  -3.186  -0.536  0.00  0.00    +0.040 A 
ATOM      7  N   UNL     1      -0.161  -4.396  -0.464  0.00  0.00    -0.285 N 
ATOM      8  C   UNL     1       0.117  -4.996   0.681  0.00  0.00    +0.223 C 
ATOM      9  O   UNL     1       0.624  -6.101   0.684  0.00  0.00    -0.275 OA
ATOM     10  C   UNL     1      -0.198  -4.302   1.987  0.00  0.00    +0.088 C 
ATOM     11  C   UNL     1      -0.829  -2.926   1.911  0.00  0.00    -0.006 C 
ATOM     12  C   UNL     1      -1.066  -2.415   0.670  0.00  0.00    -0.007 A 
ATOM     13  C   UNL     1      -1.667  -1.091   0.505  0.00  0.00    +0.012 A 
ATOM     14  H   UNL     1       0.049  -4.858  -1.291  0.00  0.00    +0.155 HD
ENDBRANCH   1  10
BRANCH   1  15
ATOM     15  C   UNL     1      -1.228  -4.707   4.227  0.00  0.00    +0.205 C 
ATOM     16  N   UNL     1      -2.325  -5.378   4.937  0.00  0.00    -0.152 NA
ATOM     17  N   UNL     1      -3.143  -4.530   5.299  0.00  0.00    -0.070 NA
ATOM     18  N   UNL     1      -2.780  -3.234   4.932  0.00  0.00    -0.179 N 
ATOM     19  N   UNL     1      -1.585  -3.273   4.256  0.00  0.00    -0.183 NA
ATOM     20  H   UNL     1      -3.291  -2.432   5.124  0.00  0.00    +0.191 HD
BRANCH  19  21
ATOM     21  C   UNL     1      -0.558  -2.488   4.954  0.00  0.00    +0.035 C 
ATOM     22  C   UNL     1       0.812  -2.782   4.340  0.00  0.00    +0.029 C 
ATOM     23  C   UNL     1      -0.871  -0.997   4.811  0.00  0.00    +0.029 C 
ATOM     24  C   UNL     1      -0.545  -2.867   6.436  0.00  0.00    +0.029 C 
ENDBRANCH  19  21
ENDBRANCH   1  15
BRANCH   1  25
ATOM     25  N   UNL     1      -0.626  -6.582   2.772  0.00  0.00    +0.392 N 
ATOM     26  H   UNL     1      -0.547  -6.904   1.819  0.00  0.00    -0.080 HD
BRANCH  25  27
ATOM     27  C   UNL     1       0.697  -6.616   3.410  0.00  0.00    -0.042 C 
BRANCH  27  28
ATOM     28  C   UNL     1       1.285  -7.996   3.275  0.00  0.00    -0.064 A 
ATOM     29  C   UNL     1       1.042  -8.950   4.246  0.00  0.00    +0.002 A 
ATOM     30  C   UNL     1       1.582 -10.216   4.122  0.00  0.00    +0.000 A 
ATOM     31  C   UNL     1       2.364 -10.530   3.026  0.00  0.00    +0.000 A 
ATOM     32  C   UNL     1       2.607  -9.577   2.054  0.00  0.00    +0.000 A 
ATOM     33  C   UNL     1       2.063  -8.311   2.177  0.00  0.00    +0.002 A 
ENDBRANCH  27  28
ENDBRANCH  25  27
BRANCH  25  34
ATOM     34  C   UNL     1      -1.548  -7.456   3.509  0.00  0.00    -0.002 C 
BRANCH  34  35
ATOM     35  C   UNL     1      -2.884  -7.478   2.813  0.00  0.00    +0.089 A 
ATOM     36  C   UNL     1      -3.289  -8.395   1.916  0.00  0.00    +0.042 A 
ATOM     37  C   UNL     1      -4.598  -8.033   1.523  0.00  0.00    +0.041 A 
ATOM     38  C   UNL     1      -4.915  -6.916   2.204  0.00  0.00    +0.195 A 
ATOM     39  O   UNL     1      -3.875  -6.588   2.988  0.00  0.00    -0.470 OA
ENDBRANCH  34  35
ENDBRANCH  25  34
ENDBRANCH   1  25
TORSDOF 8
