REMARK  Name = ZINC65966060
REMARK  6 active torsions:
REMARK  status: ('A' for Active; 'I' for Inactive)
REMARK    1  A    between atoms: C_1  and  C_2
REMARK    2  A    between atoms: C_6  and  C_30
REMARK    3  A    between atoms: C_7  and  N_8
REMARK    4  A    between atoms: C_9  and  C_13
REMARK    5  A    between atoms: C_13  and  N_14
REMARK    6  A    between atoms: C_17  and  C_20
REMARK                            x       y       z     vdW  Elec       q    Type
REMARK                         _______ _______ _______ _____ _____    ______ ____
ROOT
ATOM      1  N   UNL     1       1.664  -2.027   4.023  0.00  0.00    +0.385 N 
ATOM      2  C   UNL     1       2.321  -1.277   5.100  0.00  0.00    -0.078 C 
ATOM      3  C   UNL     1       3.834  -1.499   5.031  0.00  0.00    -0.009 C 
ATOM      4  C   UNL     1       4.133  -2.992   5.190  0.00  0.00    +0.032 C 
ATOM      5  C   UNL     1       3.382  -3.772   4.106  0.00  0.00    -0.009 C 
ATOM      6  C   UNL     1       1.887  -3.466   4.210  0.00  0.00    -0.078 C 
ATOM      7  H   UNL     1       2.046  -1.741   3.135  0.00  0.00    -0.081 HD
ENDROOT
BRANCH   4   8
ATOM      8  C   UNL     1       5.615  -3.228   5.045  0.00  0.00    +0.020 A 
ATOM      9  C   UNL     1       6.427  -2.543   4.224  0.00  0.00    +0.031 A 
ATOM     10  C   UNL     1       7.774  -3.092   4.398  0.00  0.00    -0.000 A 
ATOM     11  C   UNL     1       9.019  -2.805   3.835  0.00  0.00    +0.010 A 
ATOM     12  C   UNL     1      10.118  -3.520   4.221  0.00  0.00    +0.001 A 
ATOM     13  C   UNL     1      10.007  -4.529   5.168  0.00  0.00    +0.002 A 
ATOM     14  C   UNL     1       8.788  -4.828   5.736  0.00  0.00    +0.026 A 
ATOM     15  C   UNL     1       7.656  -4.113   5.358  0.00  0.00    +0.047 A 
ATOM     16  N   UNL     1       6.332  -4.167   5.734  0.00  0.00    -0.358 N 
ATOM     17  H   UNL     1       5.963  -4.780   6.389  0.00  0.00    +0.166 HD
ENDBRANCH   4   8
BRANCH   1  18
ATOM     18  C   UNL     1       0.221  -1.750   4.046  0.00  0.00    +0.001 C 
BRANCH  18  20
ATOM     19  N   UNL     1      -0.199   0.218   2.477  0.00  0.00    -0.199 N 
ATOM     20  C   UNL     1      -0.017  -0.300   3.711  0.00  0.00    +0.140 A 
ATOM     21  N   UNL     1      -0.085   0.691   4.562  0.00  0.00    -0.115 NA
ATOM     22  N   UNL     1      -0.298   1.799   3.950  0.00  0.00    -0.023 NA
ATOM     23  N   UNL     1      -0.374   1.599   2.679  0.00  0.00    -0.039 NA
BRANCH  19  30
ATOM     24  C   UNL     1      -2.635  -0.982   1.623  0.00  0.00    +0.046 C 
ATOM     25  C   UNL     1      -1.373  -1.072   0.803  0.00  0.00    -0.025 A 
ATOM     26  C   UNL     1      -1.379  -1.746  -0.402  0.00  0.00    +0.005 A 
ATOM     27  C   UNL     1      -0.222  -1.829  -1.155  0.00  0.00    +0.001 A 
ATOM     28  C   UNL     1       0.944  -1.238  -0.703  0.00  0.00    +0.005 A 
ATOM     29  C   UNL     1       0.955  -0.563   0.502  0.00  0.00    -0.025 A 
ATOM     30  C   UNL     1      -0.206  -0.472   1.256  0.00  0.00    +0.075 A 
ATOM     31  C   UNL     1       2.226   0.081   0.994  0.00  0.00    +0.046 C 
ENDBRANCH  19  30
ENDBRANCH  18  20
ENDBRANCH   1  18
TORSDOF 4
