REMARK  Name = ZINC40755841
REMARK  5 active torsions:
REMARK  status: ('A' for Active; 'I' for Inactive)
REMARK    1  A    between atoms: C_6  and  C_7
REMARK    2  A    between atoms: C_7  and  N_8
REMARK    3  A    between atoms: C_10  and  N_26
REMARK    4  A    between atoms: C_11  and  N_15
REMARK    5  A    between atoms: N_15  and  C_16
REMARK                            x       y       z     vdW  Elec       q    Type
REMARK                         _______ _______ _______ _____ _____    ______ ____
ROOT
ATOM      1  N   UNL     1      -1.726  -1.017  -1.368  0.00  0.00    -0.323 N 
ATOM      2  C   UNL     1      -2.902  -1.714  -1.615  0.00  0.00    +0.145 A 
ATOM      3  C   UNL     1      -3.322  -1.956  -2.924  0.00  0.00    +0.105 A 
ATOM      4  C   UNL     1      -4.511  -2.662  -3.115  0.00  0.00    +0.145 A 
ATOM      5  N   UNL     1      -5.195  -3.074  -2.050  0.00  0.00    -0.219 NA
ATOM      6  C   UNL     1      -4.763  -2.825  -0.831  0.00  0.00    +0.225 A 
ATOM      7  N   UNL     1      -3.644  -2.167  -0.606  0.00  0.00    -0.219 NA
ATOM      8  H   UNL     1      -1.191  -0.691  -2.109  0.00  0.00    +0.148 HD
ENDROOT
BRANCH   3   9
ATOM      9  N   UNL     1      -2.569  -1.502  -4.019  0.00  0.00    -0.353 N 
ATOM     10  H   UNL     1      -1.744  -1.012  -3.871  0.00  0.00    +0.143 HD
ATOM     11  H   UNL     1      -2.873  -1.677  -4.923  0.00  0.00    +0.143 HD
ENDBRANCH   3   9
BRANCH   4  12
ATOM     12  N   UNL     1      -4.974  -2.929  -4.398  0.00  0.00    -0.322 N 
ATOM     13  H   UNL     1      -4.470  -2.625  -5.169  0.00  0.00    +0.148 HD
BRANCH  12  14
ATOM     14  C   UNL     1      -6.224  -3.671  -4.586  0.00  0.00    +0.034 C 
ATOM     15  C   UNL     1      -7.375  -2.906  -3.929  0.00  0.00    +0.029 C 
ATOM     16  C   UNL     1      -8.679  -3.680  -4.126  0.00  0.00    -0.008 C 
ATOM     17  C   UNL     1      -8.959  -3.837  -5.622  0.00  0.00    +0.007 C 
ATOM     18  C   UNL     1      -7.808  -4.603  -6.278  0.00  0.00    -0.008 C 
ATOM     19  C   UNL     1      -6.503  -3.828  -6.082  0.00  0.00    +0.029 C 
ATOM     20  C   UNL     1      -7.683  -5.985  -5.635  0.00  0.00    +0.007 C 
ATOM     21  C   UNL     1      -7.403  -5.828  -4.139  0.00  0.00    -0.008 C 
ATOM     22  C   UNL     1      -8.554  -5.062  -3.482  0.00  0.00    +0.007 C 
ATOM     23  C   UNL     1      -6.098  -5.053  -3.942  0.00  0.00    +0.029 C 
ENDBRANCH  12  14
ENDBRANCH   4  12
BRANCH   1  24
ATOM     24  C   UNL     1      -1.293  -0.775   0.010  0.00  0.00    +0.138 C 
BRANCH  24  30
ATOM     25  C   UNL     1      -0.017   1.378   0.010  0.00  0.00    +0.008 A 
ATOM     26  C   UNL     1       1.170   2.086   0.002  0.00  0.00    +0.038 A 
ATOM     27  C   UNL     1       2.379   1.410  -0.013  0.00  0.00    +0.123 A 
ATOM     28  C   UNL     1       2.396   0.026  -0.021  0.00  0.00    +0.038 A 
ATOM     29  C   UNL     1       1.208  -0.680  -0.013  0.00  0.00    +0.008 A 
ATOM     30  C   UNL     1       0.002  -0.004   0.002  0.00  0.00    -0.030 A 
ATOM     31  F   UNL     1       3.540   2.101  -0.021  0.00  0.00    -0.205 F 
ENDBRANCH  24  30
ENDBRANCH   1  24
TORSDOF 5
