REMARK  Name = ZINC65340371
REMARK  3 active torsions:
REMARK  status: ('A' for Active; 'I' for Inactive)
REMARK    1  A    between atoms: C_1  and  C_2
REMARK    2  A    between atoms: C_4  and  C_9
REMARK    3  A    between atoms: C_6  and  O_8
REMARK                            x       y       z     vdW  Elec       q    Type
REMARK                         _______ _______ _______ _____ _____    ______ ____
ROOT
ATOM      1  C   UNL     1      -0.018   1.503   0.010  0.00  0.00    +0.044 C 
ATOM      2  C   UNL     1       0.002  -0.004   0.002  0.00  0.00    -0.046 A 
ATOM      3  C   UNL     1       0.006  -0.686  -1.198  0.00  0.00    +0.012 A 
ATOM      4  C   UNL     1       0.025  -2.079  -1.208  0.00  0.00    -0.014 A 
ATOM      5  C   UNL     1       0.041  -2.780  -0.004  0.00  0.00    +0.054 A 
ATOM      6  C   UNL     1       0.037  -2.088   1.195  0.00  0.00    +0.118 A 
ATOM      7  C   UNL     1       0.023  -0.700   1.196  0.00  0.00    +0.048 A 
ENDROOT
BRANCH   4   8
ATOM      8  C   UNL     1       0.029  -2.814  -2.497  0.00  0.00    -0.014 A 
ATOM      9  C   UNL     1       0.018  -2.113  -3.701  0.00  0.00    +0.012 A 
ATOM     10  C   UNL     1       0.022  -2.797  -4.899  0.00  0.00    +0.050 A 
ATOM     11  C   UNL     1       0.035  -4.184  -4.910  0.00  0.00    +0.166 A 
ATOM     12  C   UNL     1       0.045  -4.891  -3.708  0.00  0.00    +0.167 A 
ATOM     13  C   UNL     1       0.048  -4.208  -2.505  0.00  0.00    +0.058 A 
ATOM     14  O   UNL     1       0.057  -6.227  -3.989  0.00  0.00    -0.453 OA
ATOM     15  C   UNL     1      -0.359  -6.335  -5.363  0.00  0.00    +0.466 C 
ATOM     16  O   UNL     1       0.041  -5.078  -5.941  0.00  0.00    -0.453 OA
ENDBRANCH   4   8
BRANCH   6  17
ATOM     17  O   UNL     1       0.052  -2.768   2.372  0.00  0.00    -0.507 OA
ATOM     18  H   UNL     1       0.939  -2.953   2.708  0.00  0.00    +0.292 HD
ENDBRANCH   6  17
TORSDOF 2
