REMARK  Name = ZINC02372555
REMARK  5 active torsions:
REMARK  status: ('A' for Active; 'I' for Inactive)
REMARK    1  A    between atoms: C_1  and  C_2
REMARK    2  A    between atoms: C_2  and  C_4
REMARK    3  A    between atoms: C_2  and  N_10
REMARK    4  A    between atoms: N_10  and  C_11
REMARK    5  A    between atoms: N_18  and  C_21
REMARK                            x       y       z     vdW  Elec       q    Type
REMARK                         _______ _______ _______ _____ _____    ______ ____
ROOT
ATOM      1  C   UNL     1      -2.051  -0.643  -1.145  0.00  0.00    +0.086 C 
ATOM      2  C   UNL     1      -3.308  -1.217  -1.148  0.00  0.00    +0.113 C 
ATOM      3  C   UNL     1      -4.031  -1.482  -2.405  0.00  0.00    +0.256 C 
ATOM      4  O   UNL     1      -3.537  -1.200  -3.481  0.00  0.00    -0.270 OA
ATOM      5  N   UNL     1      -5.254  -2.045  -2.331  0.00  0.00    -0.263 N 
ATOM      6  C   UNL     1      -5.810  -2.361  -1.153  0.00  0.00    +0.151 C 
ATOM      7  S   UNL     1      -7.367  -3.073  -1.155  0.00  0.00    -0.018 S 
ATOM      8  N   UNL     1      -5.211  -2.149   0.028  0.00  0.00    -0.217 N 
ATOM      9  C   UNL     1      -3.983  -1.597   0.106  0.00  0.00    +0.263 C 
ATOM     10  O   UNL     1      -3.448  -1.414   1.184  0.00  0.00    -0.269 OA
ATOM     11  H   UNL     1      -5.743  -2.226  -3.149  0.00  0.00    +0.157 HD
ENDROOT
BRANCH   8  12
ATOM     12  C   UNL     1      -5.873  -2.512   1.204  0.00  0.00    +0.051 A 
ATOM     13  C   UNL     1      -5.704  -3.772   1.736  0.00  0.00    +0.024 A 
ATOM     14  C   UNL     1      -6.358  -4.144   2.907  0.00  0.00    +0.002 A 
ATOM     15  C   UNL     1      -7.182  -3.277   3.558  0.00  0.00    +0.008 A 
ATOM     16  C   UNL     1      -7.381  -1.983   3.048  0.00  0.00    -0.016 A 
ATOM     17  C   UNL     1      -6.716  -1.591   1.861  0.00  0.00    +0.004 A 
ATOM     18  C   UNL     1      -6.912  -0.295   1.356  0.00  0.00    +0.010 A 
ATOM     19  C   UNL     1      -7.732   0.568   2.016  0.00  0.00    +0.001 A 
ATOM     20  C   UNL     1      -8.382   0.185   3.188  0.00  0.00    +0.001 A 
ATOM     21  C   UNL     1      -8.226  -1.067   3.699  0.00  0.00    +0.008 A 
ENDBRANCH   8  12
BRANCH   1  22
ATOM     22  N   UNL     1      -1.347  -0.568   0.002  0.00  0.00    -0.342 N 
ATOM     23  H   UNL     1      -1.686  -0.987   0.808  0.00  0.00    +0.146 HD
BRANCH  22  25
ATOM     24  C   UNL     1      -0.324   1.639   0.262  0.00  0.00    +0.033 C 
ATOM     25  C   UNL     1      -0.068   0.148   0.031  0.00  0.00    +0.097 C 
BRANCH  25  26
ATOM     26  C   UNL     1       0.786  -0.395   1.148  0.00  0.00    -0.028 A 
ATOM     27  C   UNL     1       0.210  -0.722   2.362  0.00  0.00    +0.005 A 
ATOM     28  C   UNL     1       0.994  -1.219   3.386  0.00  0.00    +0.000 A 
ATOM     29  C   UNL     1       2.352  -1.390   3.197  0.00  0.00    +0.000 A 
ATOM     30  C   UNL     1       2.928  -1.064   1.983  0.00  0.00    +0.000 A 
ATOM     31  C   UNL     1       2.143  -0.570   0.957  0.00  0.00    +0.005 A 
ENDBRANCH  25  26
ENDBRANCH  22  25
ENDBRANCH   1  22
TORSDOF 4
