REMARK  Name = ZINC22077450
REMARK  6 active torsions:
REMARK  status: ('A' for Active; 'I' for Inactive)
REMARK    1  A    between atoms: C_6  and  C_7
REMARK    2  A    between atoms: N_9  and  C_10
REMARK    3  A    between atoms: C_10  and  C_11
REMARK    4  A    between atoms: N_13  and  N_14
REMARK    5  A    between atoms: C_15  and  C_16
REMARK    6  A    between atoms: C_21  and  O_22
REMARK                            x       y       z     vdW  Elec       q    Type
REMARK                         _______ _______ _______ _____ _____    ______ ____
ROOT
ATOM      1  C   UNL     1       4.982  -2.762  -0.074  0.00  0.00    +0.202 C 
ENDROOT
BRANCH   1   4
ATOM      2  C   UNL     1       3.690  -0.696  -0.046  0.00  0.00    +0.245 C 
ATOM      3  O   UNL     1       4.736  -0.076  -0.055  0.00  0.00    -0.270 OA
ATOM      4  N   UNL     1       3.705  -2.044  -0.054  0.00  0.00    -0.303 N 
ATOM      5  H   UNL     1       2.759  -2.604  -0.046  0.00  0.00    +0.150 HD
BRANCH   2  11
ATOM      6  C   UNL     1       1.201  -0.682  -0.016  0.00  0.00    +0.017 A 
ATOM      7  C   UNL     1       0.002  -0.004   0.002  0.00  0.00    +0.050 A 
ATOM      8  C   UNL     1      -0.017   1.385   0.010  0.00  0.00    +0.162 A 
ATOM      9  C   UNL     1       1.179   2.099   0.002  0.00  0.00    +0.163 A 
ATOM     10  C   UNL     1       2.386   1.425  -0.017  0.00  0.00    +0.062 A 
ATOM     11  C   UNL     1       2.404   0.028  -0.026  0.00  0.00    +0.040 A 
ATOM     12  O   UNL     1       1.178   3.461   0.018  0.00  0.00    -0.485 OA
ATOM     13  C   UNL     1      -0.049   4.107  -0.339  0.00  0.00    +0.270 C 
ATOM     14  C   UNL     1      -1.194   3.411   0.409  0.00  0.00    +0.270 C 
ATOM     15  O   UNL     1      -1.212   2.034   0.019  0.00  0.00    -0.485 OA
ENDBRANCH   2  11
ENDBRANCH   1   4
BRANCH   1  16
ATOM     16  C   UNL     1       4.723  -4.247  -0.080  0.00  0.00    +0.249 C 
ATOM     17  O   UNL     1       3.584  -4.664  -0.068  0.00  0.00    -0.272 OA
ATOM     18  N   UNL     1       5.757  -5.111  -0.097  0.00  0.00    -0.206 N 
ATOM     19  H   UNL     1       6.790  -4.732  -0.108  0.00  0.00    +0.177 HD
BRANCH  18  20
ATOM     20  N   UNL     1       5.517  -6.491  -0.102  0.00  0.00    -0.188 NA
ATOM     21  C   UNL     1       6.513  -7.323  -0.119  0.00  0.00    +0.142 C 
BRANCH  21  22
ATOM     22  C   UNL     1       6.260  -8.775  -0.125  0.00  0.00    +0.037 A 
ATOM     23  C   UNL     1       7.328  -9.674  -0.143  0.00  0.00    +0.028 A 
ATOM     24  C   UNL     1       7.084 -11.032  -0.148  0.00  0.00    +0.019 A 
ATOM     25  C   UNL     1       5.783 -11.508  -0.135  0.00  0.00    +0.019 A 
ATOM     26  C   UNL     1       4.718 -10.628  -0.117  0.00  0.00    +0.047 A 
ATOM     27  C   UNL     1       4.945  -9.261  -0.106  0.00  0.00    +0.126 A 
ATOM     28 BR   UNL     1       8.531 -12.249  -0.174  0.00  0.00    -0.050 Br
BRANCH  27  29
ATOM     29  O   UNL     1       3.898  -8.396  -0.082  0.00  0.00    -0.506 OA
ATOM     30  H   UNL     1       2.868  -8.780  -0.067  0.00  0.00    +0.292 HD
ENDBRANCH  27  29
ENDBRANCH  21  22
ENDBRANCH  18  20
ENDBRANCH   1  16
TORSDOF 6
