REMARK  Name = ZINC64292781
REMARK  3 active torsions:
REMARK  status: ('A' for Active; 'I' for Inactive)
REMARK    1  A    between atoms: C_6  and  N_7
REMARK    2  A    between atoms: C_8  and  C_10
REMARK    3  A    between atoms: C_17  and  C_20
REMARK                            x       y       z     vdW  Elec       q    Type
REMARK                         _______ _______ _______ _____ _____    ______ ____
ROOT
ATOM      1  C   UNL     1      -0.012   1.378   0.198  0.00  0.00    +0.025 A 
ATOM      2  C   UNL     1       1.165   2.094   0.198  0.00  0.00    +0.029 A 
ATOM      3  C   UNL     1       2.374   1.439   0.007  0.00  0.00    +0.067 A 
ATOM      4  C   UNL     1       2.397   0.046  -0.186  0.00  0.00    +0.091 A 
ATOM      5  C   UNL     1       1.196  -0.670  -0.184  0.00  0.00    +0.053 A 
ATOM      6  C   UNL     1       0.001  -0.002   0.007  0.00  0.00    +0.036 A 
ATOM      7  N   UNL     1       3.694  -0.316  -0.344  0.00  0.00    -0.228 NA
ATOM      8  C   UNL     1       4.460   0.745  -0.262  0.00  0.00    +0.142 A 
ATOM      9  N   UNL     1       3.691   1.856  -0.045  0.00  0.00    -0.338 N 
ATOM     10  H   UNL     1       4.011   2.767   0.052  0.00  0.00    +0.167 HD
ENDROOT
BRANCH   8  11
ATOM     11  C   UNL     1       5.933   0.741  -0.385  0.00  0.00    +0.055 A 
ATOM     12  C   UNL     1       6.649   1.934  -0.275  0.00  0.00    +0.052 A 
ATOM     13  C   UNL     1       8.025   1.923  -0.390  0.00  0.00    +0.124 A 
ATOM     14  C   UNL     1       8.696   0.731  -0.616  0.00  0.00    +0.041 A 
ATOM     15  C   UNL     1       7.993  -0.454  -0.726  0.00  0.00    +0.042 A 
ATOM     16  C   UNL     1       6.615  -0.458  -0.607  0.00  0.00    +0.134 A 
ATOM     17  F   UNL     1       5.931  -1.618  -0.709  0.00  0.00    -0.205 F 
ATOM     18  F   UNL     1       8.720   3.077  -0.283  0.00  0.00    -0.205 F 
ENDBRANCH   8  11
BRANCH   6  19
ATOM     19  N   UNL     1      -1.204  -0.717   0.010  0.00  0.00    -0.284 N 
ATOM     20  C   UNL     1      -2.327  -0.147  -0.470  0.00  0.00    +0.238 C 
ATOM     21  O   UNL     1      -2.277   0.948  -0.991  0.00  0.00    -0.273 OA
ATOM     22  H   UNL     1      -1.230  -1.623   0.356  0.00  0.00    +0.155 HD
BRANCH  20  23
ATOM     23  C   UNL     1      -3.645  -0.869  -0.359  0.00  0.00    +0.160 C 
ATOM     24  C   UNL     1      -3.795  -1.887  -1.510  0.00  0.00    +0.041 C 
ATOM     25  C   UNL     1      -4.564  -1.059  -2.566  0.00  0.00    +0.098 C 
ATOM     26  C   UNL     1      -5.288  -0.006  -1.756  0.00  0.00    +0.214 C 
ATOM     27  O   UNL     1      -6.213   0.666  -2.160  0.00  0.00    -0.276 OA
ATOM     28  N   UNL     1      -4.757   0.075  -0.524  0.00  0.00    -0.304 N 
ATOM     29  H   UNL     1      -5.068   0.681   0.167  0.00  0.00    +0.149 HD
ENDBRANCH  20  23
ENDBRANCH   6  19
TORSDOF 3
