REMARK  Name = ZINC39663956
REMARK  12 active torsions:
REMARK  status: ('A' for Active; 'I' for Inactive)
REMARK    1  A    between atoms: C_1  and  C_2
REMARK    2  A    between atoms: C_6  and  C_8
REMARK    3  A    between atoms: C_8  and  C_9
REMARK    4  A    between atoms: C_13  and  C_22
REMARK    5  A    between atoms: N_24  and  C_25
REMARK    6  A    between atoms: C_25  and  C_26
REMARK    7  A    between atoms: C_26  and  C_28
REMARK    8  A    between atoms: C_26  and  N_36
REMARK    9  A    between atoms: C_31  and  O_34
REMARK   10  A    between atoms: O_34  and  C_35
REMARK   11  A    between atoms: N_36  and  C_37
REMARK   12  A    between atoms: N_36  and  C_38
REMARK                            x       y       z     vdW  Elec       q    Type
REMARK                         _______ _______ _______ _____ _____    ______ ____
ROOT
ATOM      1  C   UNL     1       1.703  -3.002   4.350  0.00  0.00    +0.220 C 
ATOM      2  O   UNL     1       2.592  -2.468   3.721  0.00  0.00    -0.275 OA
ATOM      3  N   UNL     1       2.002  -3.864   5.342  0.00  0.00    -0.300 N 
ATOM      4  C   UNL     1       1.063  -4.613   6.210  0.00  0.00    +0.121 C 
ATOM      5  C   UNL     1       1.706  -6.009   6.369  0.00  0.00    +0.100 C 
ATOM      6  C   UNL     1       3.205  -5.782   6.107  0.00  0.00    -0.004 C 
ATOM      7  C   UNL     1       3.347  -4.283   5.806  0.00  0.00    +0.115 C 
ATOM      8  C   UNL     1       3.661  -6.601   4.904  0.00  0.00    -0.010 C 
ATOM      9  C   UNL     1       5.166  -6.404   4.699  0.00  0.00    -0.082 C 
ATOM     10  N   UNL     1       5.885  -6.828   5.906  0.00  0.00    +0.379 N 
ATOM     11  C   UNL     1       5.509  -5.974   7.039  0.00  0.00    -0.082 C 
ATOM     12  C   UNL     1       4.019  -6.153   7.343  0.00  0.00    -0.010 C 
ATOM     13  H   UNL     1       5.651  -7.787   6.117  0.00  0.00    -0.086 HD
ATOM     14  H   UNL     1       6.879  -6.755   5.747  0.00  0.00    -0.086 HD
ENDROOT
BRANCH   5  15
ATOM     15  C   UNL     1       1.134  -6.968   5.357  0.00  0.00    +0.218 C 
ATOM     16  O   UNL     1       0.719  -6.554   4.296  0.00  0.00    -0.275 OA
ATOM     17  N   UNL     1       1.084  -8.287   5.633  0.00  0.00    -0.316 N 
ATOM     18  H   UNL     1       1.416  -8.618   6.482  0.00  0.00    +0.149 HD
BRANCH  17  19
ATOM     19  C   UNL     1       0.528  -9.220   4.649  0.00  0.00    +0.093 C 
BRANCH  19  20
ATOM     20  C   UNL     1       0.474 -10.625   5.253  0.00  0.00    -0.021 C 
BRANCH  20  21
ATOM     21  C   UNL     1      -0.481 -10.635   6.419  0.00  0.00    -0.059 A 
ATOM     22  C   UNL     1      -1.842 -10.722   6.194  0.00  0.00    +0.005 A 
ATOM     23  C   UNL     1      -2.720 -10.732   7.261  0.00  0.00    +0.046 A 
ATOM     24  C   UNL     1      -2.234 -10.653   8.558  0.00  0.00    +0.120 A 
ATOM     25  C   UNL     1      -0.867 -10.566   8.781  0.00  0.00    +0.046 A 
ATOM     26  C   UNL     1       0.006 -10.563   7.711  0.00  0.00    +0.005 A 
BRANCH  24  27
ATOM     27  O   UNL     1      -3.095 -10.662   9.610  0.00  0.00    -0.495 OA
ATOM     28  C   UNL     1      -2.524 -10.578  10.917  0.00  0.00    +0.277 C 
ENDBRANCH  24  27
ENDBRANCH  20  21
BRANCH  20  29
ATOM     29  N   UNL     1       0.014 -11.578   4.234  0.00  0.00    +0.382 N 
ATOM     30  C   UNL     1       0.970 -11.602   3.119  0.00  0.00    -0.096 C 
ATOM     31  C   UNL     1      -0.081 -12.919   4.827  0.00  0.00    -0.096 C 
ATOM     32  H   UNL     1      -0.893 -11.295   3.894  0.00  0.00    -0.082 HD
ENDBRANCH  20  29
ENDBRANCH  19  20
ENDBRANCH  17  19
ENDBRANCH   5  15
BRANCH   1  33
ATOM     33  C   UNL     1       0.263  -2.701   4.023  0.00  0.00    +0.131 C 
BRANCH  33  39
ATOM     34  C   UNL     1       0.108   2.027   2.390  0.00  0.00    +0.044 C 
ATOM     35  C   UNL     1       0.127   0.547   2.104  0.00  0.00    -0.050 A 
ATOM     36  C   UNL     1       0.088   0.095   0.798  0.00  0.00    +0.003 A 
ATOM     37  C   UNL     1       0.106  -1.262   0.536  0.00  0.00    +0.001 A 
ATOM     38  C   UNL     1       0.163  -2.167   1.580  0.00  0.00    +0.004 A 
ATOM     39  C   UNL     1       0.202  -1.714   2.885  0.00  0.00    -0.038 A 
ATOM     40  C   UNL     1       0.189  -0.357   3.147  0.00  0.00    +0.007 A 
ENDBRANCH  33  39
ENDBRANCH   1  33
TORSDOF 8
