REMARK  Name = ZINC39953056
REMARK  7 active torsions:
REMARK  status: ('A' for Active; 'I' for Inactive)
REMARK    1  A    between atoms: C_1  and  C_2
REMARK    2  A    between atoms: C_2  and  C_4
REMARK    3  A    between atoms: C_2  and  N_12
REMARK    4  A    between atoms: C_4  and  C_5
REMARK    5  A    between atoms: C_5  and  C_6
REMARK    6  A    between atoms: N_12  and  S_13
REMARK    7  A    between atoms: S_13  and  C_16
REMARK                            x       y       z     vdW  Elec       q    Type
REMARK                         _______ _______ _______ _____ _____    ______ ____
ROOT
ATOM      1  S   UNL     1      -0.188  -0.875  -2.551  0.00  0.00    +0.059 S 
ATOM      2  O   UNL     1       0.751  -1.265  -3.545  0.00  0.00    -0.153 OA
ATOM      3  O   UNL     1      -1.236  -1.730  -2.117  0.00  0.00    -0.153 OA
ENDROOT
BRANCH   1   4
ATOM      4  C   UNL     1      -0.951   0.603  -3.133  0.00  0.00    +0.107 A 
ATOM      5  C   UNL     1      -2.228   0.950  -2.648  0.00  0.00    +0.030 A 
ATOM      6  C   UNL     1      -2.867   2.070  -3.054  0.00  0.00    +0.027 A 
ATOM      7  C   UNL     1      -2.244   2.930  -3.996  0.00  0.00    +0.055 A 
ATOM      8  N   UNL     1      -2.842   4.027  -4.410  0.00  0.00    -0.276 N 
ATOM      9  C   UNL     1      -2.230   4.830  -5.305  0.00  0.00    +0.304 C 
ATOM     10  O   UNL     1      -2.776   5.843  -5.691  0.00  0.00    -0.265 OA
ATOM     11  C   UNL     1      -0.875   4.461  -5.819  0.00  0.00    +0.304 C 
ATOM     12  O   UNL     1      -0.312   5.174  -6.625  0.00  0.00    -0.265 OA
ATOM     13  N   UNL     1      -0.281   3.332  -5.381  0.00  0.00    -0.276 N 
ATOM     14  C   UNL     1      -0.897   2.564  -4.507  0.00  0.00    +0.057 A 
ATOM     15  C   UNL     1      -0.291   1.374  -4.027  0.00  0.00    +0.053 A 
ATOM     16  H   UNL     1       0.598   3.086  -5.710  0.00  0.00    +0.155 HD
ATOM     17  H   UNL     1      -3.721   4.258  -4.071  0.00  0.00    +0.155 HD
ENDBRANCH   1   4
BRANCH   1  18
ATOM     18  N   UNL     1       0.688  -0.476  -1.203  0.00  0.00    -0.187 NA
ATOM     19  H   UNL     1       1.655  -0.556  -1.212  0.00  0.00    +0.148 HD
BRANCH  18  21
ATOM     20  C   UNL     1      -0.019   1.526   0.010  0.00  0.00    +0.025 C 
ATOM     21  C   UNL     1       0.002  -0.004   0.002  0.00  0.00    +0.074 C 
BRANCH  21  22
ATOM     22  C   UNL     1       0.742  -0.511   1.242  0.00  0.00    +0.025 C 
BRANCH  22  23
ATOM     23  C   UNL     1       0.655  -2.037   1.299  0.00  0.00    +0.037 C 
BRANCH  23  24
ATOM     24  C   UNL     1       1.384  -2.537   2.519  0.00  0.00    -0.047 A 
ATOM     25  C   UNL     1       2.731  -2.841   2.444  0.00  0.00    +0.003 A 
ATOM     26  C   UNL     1       3.399  -3.299   3.564  0.00  0.00    +0.000 A 
ATOM     27  C   UNL     1       2.722  -3.452   4.759  0.00  0.00    +0.000 A 
ATOM     28  C   UNL     1       1.375  -3.146   4.835  0.00  0.00    +0.000 A 
ATOM     29  C   UNL     1       0.708  -2.684   3.716  0.00  0.00    +0.003 A 
ENDBRANCH  23  24
ENDBRANCH  22  23
ENDBRANCH  21  22
ENDBRANCH  18  21
ENDBRANCH   1  18
TORSDOF 6
