REMARK  Name = ZINC39670062
REMARK  6 active torsions:
REMARK  status: ('A' for Active; 'I' for Inactive)
REMARK    1  A    between atoms: C_1  and  C_2
REMARK    2  A    between atoms: C_7  and  C_11
REMARK    3  A    between atoms: C_11  and  N_12
REMARK    4  A    between atoms: C_13  and  C_15
REMARK    5  A    between atoms: C_26  and  C_28
REMARK    6  A    between atoms: C_31  and  C_35
REMARK                            x       y       z     vdW  Elec       q    Type
REMARK                         _______ _______ _______ _____ _____    ______ ____
ROOT
ATOM      1  C   UNL     1       3.494  -7.221   4.165  0.00  0.00    +0.100 C 
ATOM      2  C   UNL     1       4.105  -7.520   2.778  0.00  0.00    +0.121 C 
ATOM      3  N   UNL     1       4.925  -8.737   2.985  0.00  0.00    -0.296 N 
ATOM      4  C   UNL     1       4.116  -9.574   3.903  0.00  0.00    +0.115 C 
ATOM      5  C   UNL     1       3.502  -8.572   4.900  0.00  0.00    -0.004 C 
ATOM      6  C   UNL     1       2.078  -8.988   5.256  0.00  0.00    -0.010 C 
ATOM      7  C   UNL     1       2.116 -10.305   6.037  0.00  0.00    -0.082 C 
ATOM      8  N   UNL     1       2.915 -10.130   7.256  0.00  0.00    +0.379 N 
ATOM      9  C   UNL     1       4.306  -9.821   6.902  0.00  0.00    -0.082 C 
ATOM     10  C   UNL     1       4.361  -8.484   6.158  0.00  0.00    -0.010 C 
ATOM     11  C   UNL     1       6.133  -9.019   2.458  0.00  0.00    +0.249 C 
ATOM     12  O   UNL     1       6.640 -10.107   2.649  0.00  0.00    -0.270 OA
ATOM     13  H   UNL     1       2.533  -9.373   7.802  0.00  0.00    -0.086 HD
ATOM     14  H   UNL     1       2.889 -10.980   7.799  0.00  0.00    -0.086 HD
ENDROOT
BRANCH  11  15
ATOM     15  C   UNL     1       6.840  -8.007   1.648  0.00  0.00    +0.072 A 
ATOM     16  C   UNL     1       6.119  -7.138   0.825  0.00  0.00    +0.016 A 
ATOM     17  C   UNL     1       6.785  -6.195   0.072  0.00  0.00    +0.013 A 
ATOM     18  C   UNL     1       8.166  -6.106   0.129  0.00  0.00    +0.058 A 
ATOM     19  C   UNL     1       8.888  -6.962   0.939  0.00  0.00    +0.051 A 
ATOM     20  C   UNL     1       8.233  -7.909   1.705  0.00  0.00    +0.136 A 
ATOM     21  F   UNL     1       8.939  -8.742   2.502  0.00  0.00    -0.205 F 
BRANCH  18  22
ATOM     22  C   UNL     1       8.885  -5.072  -0.699  0.00  0.00    +0.418 C 
ATOM     23  F   UNL     1       9.012  -3.890   0.039  0.00  0.00    -0.166 F 
ATOM     24  F   UNL     1      10.156  -5.548  -1.039  0.00  0.00    -0.166 F 
ATOM     25  F   UNL     1       8.155  -4.817  -1.865  0.00  0.00    -0.166 F 
ENDBRANCH  18  22
ENDBRANCH  11  15
BRANCH   1  27
ATOM     26  N   UNL     1       1.569  -5.873   4.939  0.00  0.00    -0.309 N 
ATOM     27  C   UNL     1       2.083  -6.712   4.018  0.00  0.00    +0.219 C 
ATOM     28  O   UNL     1       1.410  -7.057   3.070  0.00  0.00    -0.275 OA
ATOM     29  H   UNL     1       2.108  -5.597   5.697  0.00  0.00    +0.149 HD
BRANCH  26  30
ATOM     30  C   UNL     1       0.198  -5.379   4.796  0.00  0.00    +0.159 C 
BRANCH  30  37
ATOM     31  C   UNL     1      -1.770  -2.193  11.186  0.00  0.00    +0.044 C 
ATOM     32  C   UNL     1      -1.293  -2.380   9.769  0.00  0.00    -0.046 A 
ATOM     33  C   UNL     1      -0.935  -1.265   8.992  0.00  0.00    +0.021 A 
ATOM     34  C   UNL     1      -0.506  -1.429   7.723  0.00  0.00    +0.093 A 
ATOM     35  N   UNL     1      -0.414  -2.675   7.176  0.00  0.00    -0.308 N 
ATOM     36  C   UNL     1      -0.021  -3.118   5.942  0.00  0.00    +0.115 A 
ATOM     37  C   UNL     1      -0.130  -4.465   5.949  0.00  0.00    +0.051 A 
ATOM     38  N   UNL     1      -0.576  -4.851   7.146  0.00  0.00    -0.342 N 
ATOM     39  C   UNL     1      -0.756  -3.782   7.909  0.00  0.00    +0.116 A 
ATOM     40  C   UNL     1      -1.201  -3.628   9.238  0.00  0.00    +0.048 A 
ATOM     41  H   UNL     1      -0.742  -5.768   7.415  0.00  0.00    +0.167 HD
ENDBRANCH  30  37
ENDBRANCH  26  30
ENDBRANCH   1  27
TORSDOF 5
