REMARK  Name = ZINC65192776
REMARK  5 active torsions:
REMARK  status: ('A' for Active; 'I' for Inactive)
REMARK    1  A    between atoms: C_4  and  C_8
REMARK    2  A    between atoms: C_9  and  C_10
REMARK    3  A    between atoms: N_12  and  N_13
REMARK    4  A    between atoms: N_16  and  C_17
REMARK    5  A    between atoms: C_17  and  C_18
REMARK                            x       y       z     vdW  Elec       q    Type
REMARK                         _______ _______ _______ _____ _____    ______ ____
ROOT
ATOM      1  C   UNL     1       4.994  -2.740  -0.063  0.00  0.00    +0.253 C 
ATOM      2  O   UNL     1       6.037  -2.114  -0.070  0.00  0.00    -0.269 OA
ATOM      3  N   UNL     1       5.016  -4.087  -0.070  0.00  0.00    -0.230 N 
ATOM      4  H   UNL     1       4.184  -4.586  -0.064  0.00  0.00    +0.173 HD
ENDROOT
BRANCH   3   5
ATOM      5  N   UNL     1       6.240  -4.768  -0.087  0.00  0.00    -0.218 N 
ATOM      6  C   UNL     1       6.263  -6.115  -0.094  0.00  0.00    +0.316 C 
ATOM      7  O   UNL     1       7.326  -6.705  -0.108  0.00  0.00    -0.251 OA
ATOM      8  N   UNL     1       5.107  -6.808  -0.086  0.00  0.00    -0.298 N 
ATOM      9  H   UNL     1       7.072  -4.269  -0.092  0.00  0.00    +0.174 HD
ATOM     10  H   UNL     1       4.259  -6.337  -0.075  0.00  0.00    +0.150 HD
BRANCH   8  11
ATOM     11  C   UNL     1       5.131  -8.273  -0.094  0.00  0.00    +0.109 C 
BRANCH  11  12
ATOM     12  C   UNL     1       3.697  -8.807  -0.082  0.00  0.00    +0.006 C 
ATOM     13  C   UNL     1       3.258  -9.625   1.134  0.00  0.00    +0.005 C 
ATOM     14  C   UNL     1       3.506 -10.320  -0.206  0.00  0.00    +0.005 C 
ENDBRANCH  11  12
ENDBRANCH   8  11
ENDBRANCH   3   5
BRANCH   1  16
ATOM     15  C   UNL     1       3.692  -0.681  -0.038  0.00  0.00    +0.014 C 
ATOM     16  C   UNL     1       3.714  -2.029  -0.046  0.00  0.00    +0.069 C 
BRANCH  15  20
ATOM     17  C   UNL     1      -0.017   1.381   0.010  0.00  0.00    +0.021 A 
ATOM     18  C   UNL     1       1.167   2.096   0.002  0.00  0.00    +0.022 A 
ATOM     19  C   UNL     1       2.378   1.433  -0.013  0.00  0.00    +0.048 A 
ATOM     20  C   UNL     1       2.406   0.034  -0.021  0.00  0.00    -0.005 A 
ATOM     21  C   UNL     1       1.204  -0.681  -0.013  0.00  0.00    +0.029 A 
ATOM     22  C   UNL     1       0.002  -0.004   0.002  0.00  0.00    +0.042 A 
ATOM     23 CL   UNL     1      -1.491  -0.890   0.011  0.00  0.00    -0.084 Cl
ATOM     24 CL   UNL     1       3.863   2.333  -0.024  0.00  0.00    -0.083 Cl
ENDBRANCH  15  20
ENDBRANCH   1  16
TORSDOF 5
