REMARK  Name = ZINC63514069
REMARK  9 active torsions:
REMARK  status: ('A' for Active; 'I' for Inactive)
REMARK    1  A    between atoms: C_1  and  C_2
REMARK    2  A    between atoms: C_4  and  C_14
REMARK    3  A    between atoms: C_14  and  C_15
REMARK    4  A    between atoms: C_15  and  N_16
REMARK    5  A    between atoms: N_16  and  C_17
REMARK    6  A    between atoms: C_17  and  C_23
REMARK    7  A    between atoms: N_27  and  C_28
REMARK    8  A    between atoms: C_31  and  O_34
REMARK    9  A    between atoms: O_34  and  C_35
REMARK                            x       y       z     vdW  Elec       q    Type
REMARK                         _______ _______ _______ _____ _____    ______ ____
ROOT
ATOM      1  C   UNL     1      -5.738  -0.385  -0.922  0.00  0.00    -0.005 C 
ATOM      2  C   UNL     1      -5.813  -1.725  -1.657  0.00  0.00    -0.005 C 
ATOM      3  C   UNL     1      -5.213  -1.573  -3.056  0.00  0.00    -0.001 C 
ATOM      4  C   UNL     1      -6.001  -0.519  -3.837  0.00  0.00    -0.000 C 
ATOM      5  C   UNL     1      -5.926   0.821  -3.102  0.00  0.00    -0.001 C 
ATOM      6  C   UNL     1      -6.526   0.669  -1.703  0.00  0.00    -0.005 C 
ENDROOT
BRANCH   1   7
ATOM      7  C   UNL     1      -6.329  -0.535   0.456  0.00  0.00    +0.146 A 
ATOM      8  N   UNL     1      -7.583  -0.363   0.785  0.00  0.00    -0.114 NA
ATOM      9  N   UNL     1      -7.753  -0.568   2.041  0.00  0.00    -0.023 NA
ATOM     10  N   UNL     1      -6.633  -0.882   2.598  0.00  0.00    -0.039 NA
ATOM     11  N   UNL     1      -5.663  -0.876   1.580  0.00  0.00    -0.199 N 
BRANCH  11  12
ATOM     12  C   UNL     1      -4.294  -1.162   1.706  0.00  0.00    +0.069 A 
ATOM     13  C   UNL     1      -3.721  -2.165   0.936  0.00  0.00    +0.031 A 
ATOM     14  C   UNL     1      -2.374  -2.445   1.060  0.00  0.00    +0.048 A 
ATOM     15  C   UNL     1      -1.595  -1.725   1.954  0.00  0.00    +0.120 A 
ATOM     16  C   UNL     1      -2.168  -0.723   2.724  0.00  0.00    +0.048 A 
ATOM     17  C   UNL     1      -3.513  -0.438   2.596  0.00  0.00    +0.031 A 
BRANCH  15  18
ATOM     18  O   UNL     1      -0.270  -2.001   2.076  0.00  0.00    -0.495 OA
ATOM     19  C   UNL     1       0.449  -1.298   3.091  0.00  0.00    +0.277 C 
ENDBRANCH  15  18
ENDBRANCH  11  12
ENDBRANCH   1   7
BRANCH   1  20
ATOM     20  N   UNL     1      -4.335   0.034  -0.810  0.00  0.00    +0.388 N 
ATOM     21  H   UNL     1      -3.911   0.038  -1.726  0.00  0.00    -0.084 HD
ATOM     22  H   UNL     1      -3.838  -0.609  -0.213  0.00  0.00    -0.084 HD
BRANCH  20  23
ATOM     23  C   UNL     1      -4.272   1.385  -0.236  0.00  0.00    -0.077 C 
BRANCH  23  24
ATOM     24  C   UNL     1      -2.815   1.849  -0.184  0.00  0.00    +0.014 C 
BRANCH  24  27
ATOM     25  C   UNL     1      -1.298   2.820   2.511  0.00  0.00    +0.035 C 
ATOM     26  C   UNL     1      -2.600   3.435   1.993  0.00  0.00    +0.103 C 
ATOM     27  C   UNL     1      -2.739   3.186   0.507  0.00  0.00    -0.039 C 
ATOM     28  C   UNL     1      -2.780   4.406  -0.075  0.00  0.00    +0.019 A 
ATOM     29  C   UNL     1      -2.903   4.837  -1.474  0.00  0.00    +0.050 A 
ATOM     30  C   UNL     1      -2.915   6.162  -1.754  0.00  0.00    +0.022 A 
ATOM     31  C   UNL     1      -2.812   7.128  -0.746  0.00  0.00    +0.023 A 
ATOM     32  C   UNL     1      -2.696   6.810   0.562  0.00  0.00    +0.065 A 
ATOM     33  C   UNL     1      -2.673   5.447   0.972  0.00  0.00    +0.063 A 
ATOM     34  N   UNL     1      -2.571   4.893   2.157  0.00  0.00    -0.377 N 
ATOM     35 CL   UNL     1      -2.574   8.070   1.750  0.00  0.00    -0.081 Cl
ATOM     36 CL   UNL     1      -3.031   3.665  -2.749  0.00  0.00    -0.083 Cl
ATOM     37  H   UNL     1      -2.490   5.366   3.000  0.00  0.00    +0.160 HD
ENDBRANCH  24  27
ENDBRANCH  23  24
ENDBRANCH  20  23
ENDBRANCH   1  20
TORSDOF 7
