REMARK  Name = ZINC13498818
REMARK  12 active torsions:
REMARK  status: ('A' for Active; 'I' for Inactive)
REMARK    1  A    between atoms: C_1  and  C_2
REMARK    2  A    between atoms: C_2  and  C_3
REMARK    3  A    between atoms: C_2  and  C_4
REMARK    4  A    between atoms: C_4  and  C_6
REMARK    5  A    between atoms: C_4  and  N_72
REMARK    6  A    between atoms: N_10  and  C_11
REMARK    7  A    between atoms: C_11  and  C_12
REMARK    8  A    between atoms: C_12  and  O_13
REMARK    9  A    between atoms: O_13  and  C_14
REMARK   10  A    between atoms: C_15  and  C_16
REMARK   11  A    between atoms: C_15  and  N_72
REMARK   12  A    between atoms: C_32  and  N_72
REMARK                            x       y       z     vdW  Elec       q    Type
REMARK                         _______ _______ _______ _____ _____    ______ ____
ROOT
ATOM      1  N   UNL     1      -3.136   0.917  -1.101  0.00  0.00    +0.391 N 
ATOM      2  H   UNL     1      -3.156   1.889  -1.433  0.00  0.00    -0.080 HD
ENDROOT
BRANCH   1   3
ATOM      3  C   UNL     1      -1.929   0.252  -1.637  0.00  0.00    -0.067 C 
ATOM      4  C   UNL     1      -1.898   0.433  -3.155  0.00  0.00    -0.015 C 
ATOM      5  C   UNL     1      -0.641  -0.231  -3.722  0.00  0.00    -0.002 C 
ATOM      6  C   UNL     1      -0.658  -1.724  -3.387  0.00  0.00    -0.000 C 
ATOM      7  C   UNL     1      -0.689  -1.905  -1.868  0.00  0.00    -0.002 C 
ATOM      8  C   UNL     1      -1.946  -1.240  -1.301  0.00  0.00    -0.015 C 
ENDBRANCH   1   3
BRANCH   1   9
ATOM      9  C   UNL     1      -4.349   0.221  -1.579  0.00  0.00    +0.006 C 
BRANCH   9  10
ATOM     10  C   UNL     1      -4.572  -1.048  -0.797  0.00  0.00    +0.138 A 
ATOM     11  N   UNL     1      -4.344  -1.230   0.481  0.00  0.00    -0.115 NA
ATOM     12  N   UNL     1      -4.659  -2.445   0.772  0.00  0.00    -0.023 NA
ATOM     13  N   UNL     1      -5.081  -3.043  -0.287  0.00  0.00    -0.044 NA
ATOM     14  N   UNL     1      -5.048  -2.213  -1.275  0.00  0.00    -0.229 N 
BRANCH  14  15
ATOM     15  C   UNL     1      -5.449  -2.488  -2.656  0.00  0.00    +0.175 C 
BRANCH  15  16
ATOM     16  C   UNL     1      -4.289  -3.149  -3.403  0.00  0.00    +0.183 C 
BRANCH  16  17
ATOM     17  O   UNL     1      -4.649  -3.339  -4.772  0.00  0.00    -0.381 OA
ATOM     18  C   UNL     1      -3.629  -3.953  -5.562  0.00  0.00    +0.194 C 
ENDBRANCH  16  17
ENDBRANCH  15  16
ENDBRANCH  14  15
ENDBRANCH   9  10
BRANCH   9  20
ATOM     19  C   UNL     1      -5.370   2.397  -2.263  0.00  0.00    +0.006 C 
ATOM     20  C   UNL     1      -5.551   1.150  -1.396  0.00  0.00    -0.024 C 
ATOM     21  C   UNL     1      -6.829   0.419  -1.814  0.00  0.00    +0.006 C 
ENDBRANCH   9  20
ENDBRANCH   1   9
BRANCH   1  22
ATOM     22  C   UNL     1      -3.101   0.915   0.376  0.00  0.00    -0.036 C 
BRANCH  22  23
ATOM     23  C   UNL     1      -2.167   2.003   0.838  0.00  0.00    +0.001 A 
ATOM     24  C   UNL     1      -2.656   3.235   1.133  0.00  0.00    +0.017 A 
ATOM     25  C   UNL     1      -1.723   4.271   1.574  0.00  0.00    +0.002 A 
ATOM     26  C   UNL     1      -2.170   5.560   1.886  0.00  0.00    +0.059 A 
ATOM     27  C   UNL     1      -1.268   6.517   2.301  0.00  0.00    +0.163 A 
ATOM     28  C   UNL     1       0.090   6.202   2.410  0.00  0.00    +0.164 A 
ATOM     29  C   UNL     1       0.541   4.930   2.103  0.00  0.00    +0.075 A 
ATOM     30  C   UNL     1      -0.355   3.956   1.683  0.00  0.00    +0.053 A 
ATOM     31  N   UNL     1       0.078   2.683   1.372  0.00  0.00    -0.322 N 
ATOM     32  H   UNL     1       1.020   2.466   1.447  0.00  0.00    +0.169 HD
ATOM     33  C   UNL     1      -0.788   1.737   0.968  0.00  0.00    +0.251 A 
ATOM     34  O   UNL     1      -0.371   0.623   0.703  0.00  0.00    -0.268 OA
ATOM     35  O   UNL     1       0.987   7.139   2.823  0.00  0.00    -0.485 OA
ATOM     36  C   UNL     1       0.564   8.505   2.765  0.00  0.00    +0.270 C 
ATOM     37  C   UNL     1      -0.844   8.600   3.368  0.00  0.00    +0.270 C 
ATOM     38  O   UNL     1      -1.718   7.767   2.598  0.00  0.00    -0.485 OA
ENDBRANCH  22  23
ENDBRANCH   1  22
TORSDOF 9
