REMARK  Name = ZINC44713570
REMARK  7 active torsions:
REMARK  status: ('A' for Active; 'I' for Inactive)
REMARK    1  A    between atoms: C_1  and  C_2
REMARK    2  A    between atoms: C_2  and  N_3
REMARK    3  A    between atoms: C_4  and  C_10
REMARK    4  A    between atoms: C_6  and  C_8
REMARK    5  A    between atoms: C_14  and  C_23
REMARK    6  A    between atoms: N_25  and  C_26
REMARK    7  A    between atoms: C_26  and  C_27
REMARK                            x       y       z     vdW  Elec       q    Type
REMARK                         _______ _______ _______ _____ _____    ______ ____
ROOT
ATOM      1  C   UNL     1      -1.427  -0.678   2.719  0.00  0.00    +0.266 C 
ATOM      2  O   UNL     1      -2.083  -1.034   3.680  0.00  0.00    -0.268 OA
ATOM      3  N   UNL     1      -0.183  -0.190   2.895  0.00  0.00    -0.295 N 
ATOM      4  C   UNL     1       0.789   0.217   1.853  0.00  0.00    +0.121 C 
ATOM      5  C   UNL     1       1.459   1.488   2.420  0.00  0.00    +0.100 C 
ATOM      6  C   UNL     1       1.282   1.379   3.943  0.00  0.00    -0.004 C 
ATOM      7  C   UNL     1       0.519   0.067   4.175  0.00  0.00    +0.115 C 
ATOM      8  C   UNL     1       0.465   2.557   4.466  0.00  0.00    -0.010 C 
ATOM      9  C   UNL     1       0.351   2.457   5.990  0.00  0.00    -0.082 C 
ATOM     10  N   UNL     1       1.693   2.465   6.584  0.00  0.00    +0.379 N 
ATOM     11  C   UNL     1       2.441   1.279   6.149  0.00  0.00    -0.082 C 
ATOM     12  C   UNL     1       2.643   1.329   4.632  0.00  0.00    -0.010 C 
ATOM     13  H   UNL     1       2.184   3.296   6.292  0.00  0.00    -0.086 HD
ATOM     14  H   UNL     1       1.614   2.460   7.590  0.00  0.00    -0.086 HD
ENDROOT
BRANCH   1  16
ATOM     15  N   UNL     1      -1.876  -1.839   0.506  0.00  0.00    -0.258 N 
ATOM     16  C   UNL     1      -1.992  -0.782   1.365  0.00  0.00    +0.138 A 
ATOM     17  C   UNL     1      -2.748   0.172   0.704  0.00  0.00    +0.071 A 
ATOM     18  C   UNL     1      -3.044  -0.389  -0.541  0.00  0.00    +0.075 A 
ATOM     19  N   UNL     1      -2.493  -1.574  -0.589  0.00  0.00    -0.175 NA
ATOM     20  C   UNL     1      -3.851   0.259  -1.637  0.00  0.00    +0.069 C 
ATOM     21 BR   UNL     1      -3.268   1.872   1.349  0.00  0.00    -0.046 Br
BRANCH  15  23
ATOM     22  C   UNL     1       0.323  -2.906   0.425  0.00  0.00    +0.029 C 
ATOM     23  C   UNL     1      -1.153  -3.081   0.788  0.00  0.00    +0.141 C 
ENDBRANCH  15  23
ENDBRANCH   1  16
BRANCH   5  24
ATOM     24  C   UNL     1       0.771   2.722   1.896  0.00  0.00    +0.219 C 
ATOM     25  O   UNL     1      -0.425   2.709   1.692  0.00  0.00    -0.275 OA
ATOM     26  N   UNL     1       1.483   3.840   1.654  0.00  0.00    -0.309 N 
ATOM     27  H   UNL     1       2.449   3.830   1.747  0.00  0.00    +0.149 HD
BRANCH  26  28
ATOM     28  C   UNL     1       0.800   5.072   1.252  0.00  0.00    +0.157 C 
BRANCH  28  29
ATOM     29  C   UNL     1       1.815   6.166   1.045  0.00  0.00    +0.034 A 
ATOM     30  C   UNL     1       2.171   7.072   1.970  0.00  0.00    +0.032 A 
ATOM     31  C   UNL     1       3.179   7.939   1.354  0.00  0.00    -0.000 A 
ATOM     32  C   UNL     1       3.913   9.040   1.798  0.00  0.00    +0.010 A 
ATOM     33  C   UNL     1       4.801   9.648   0.956  0.00  0.00    +0.001 A 
ATOM     34  C   UNL     1       4.979   9.179  -0.339  0.00  0.00    +0.002 A 
ATOM     35  C   UNL     1       4.265   8.094  -0.797  0.00  0.00    +0.026 A 
ATOM     36  C   UNL     1       3.355   7.460   0.043  0.00  0.00    +0.047 A 
ATOM     37  N   UNL     1       2.516   6.379  -0.111  0.00  0.00    -0.357 N 
ATOM     38  H   UNL     1       2.433   5.849  -0.918  0.00  0.00    +0.166 HD
ENDBRANCH  28  29
ENDBRANCH  26  28
ENDBRANCH   5  24
TORSDOF 5
