REMARK  Name = ZINC06168745
REMARK  7 active torsions:
REMARK  status: ('A' for Active; 'I' for Inactive)
REMARK    1  A    between atoms: N_13  and  C_14
REMARK    2  A    between atoms: C_14  and  C_15
REMARK    3  A    between atoms: C_15  and  C_17
REMARK    4  A    between atoms: C_15  and  O_33
REMARK    5  A    between atoms: C_17  and  N_59
REMARK    6  A    between atoms: N_20  and  S_23
REMARK    7  A    between atoms: S_23  and  C_26
REMARK                            x       y       z     vdW  Elec       q    Type
REMARK                         _______ _______ _______ _____ _____    ______ ____
ROOT
ATOM      1  C   UNL     1      -4.250   3.669  -3.100  0.00  0.00    -0.045 C 
ENDROOT
BRANCH   1   7
ATOM      2  C   UNL     1      -2.076   3.886  -2.056  0.00  0.00    -0.061 C 
ATOM      3  C   UNL     1      -0.706   3.213  -1.915  0.00  0.00    +0.091 C 
ATOM      4  N   UNL     1      -0.897   1.885  -1.312  0.00  0.00    -0.180 NA
ATOM      5  C   UNL     1      -1.887   0.982  -1.919  0.00  0.00    +0.091 C 
ATOM      6  C   UNL     1      -3.215   1.745  -2.057  0.00  0.00    -0.061 C 
ATOM      7  N   UNL     1      -2.969   2.988  -2.820  0.00  0.00    +0.383 N 
ATOM      8  H   UNL     1      -2.517   2.748  -3.710  0.00  0.00    -0.082 HD
BRANCH   4   9
ATOM      9  S   UNL     1      -0.017   1.417   0.010  0.00  0.00    +0.061 S 
ATOM     10  O   UNL     1       0.002  -0.004   0.002  0.00  0.00    -0.153 OA
ATOM     11  O   UNL     1       1.172   2.195   0.003  0.00  0.00    -0.153 OA
BRANCH   9  12
ATOM     12  C   UNL     1      -0.927   1.900   1.439  0.00  0.00    +0.106 A 
ATOM     13  C   UNL     1      -0.717   3.145   2.004  0.00  0.00    +0.030 A 
ATOM     14  C   UNL     1      -1.434   3.527   3.122  0.00  0.00    +0.022 A 
ATOM     15  C   UNL     1      -2.354   2.659   3.683  0.00  0.00    +0.041 A 
ATOM     16  C   UNL     1      -2.559   1.411   3.121  0.00  0.00    +0.022 A 
ATOM     17  C   UNL     1      -1.846   1.033   2.000  0.00  0.00    +0.030 A 
ATOM     18 CL   UNL     1      -3.251   3.135   5.091  0.00  0.00    -0.084 Cl
ENDBRANCH   9  12
ENDBRANCH   4   9
ENDBRANCH   1   7
BRANCH   1  19
ATOM     19  C   UNL     1      -5.253   2.648  -3.639  0.00  0.00    +0.118 C 
BRANCH  19  20
ATOM     20  O   UNL     1      -4.732   2.050  -4.828  0.00  0.00    -0.392 OA
ATOM     21  H   UNL     1      -4.555   2.679  -5.540  0.00  0.00    +0.210 HD
ENDBRANCH  19  20
BRANCH  19  22
ATOM     22  C   UNL     1      -6.574   3.351  -3.959  0.00  0.00    +0.151 C 
BRANCH  22  35
ATOM     23  C   UNL     1      -8.639   0.758  -8.032  0.00  0.00    +0.001 A 
ATOM     24  C   UNL     1      -7.623   1.701  -8.044  0.00  0.00    +0.002 A 
ATOM     25  C   UNL     1      -7.199   2.289  -6.872  0.00  0.00    +0.026 A 
ATOM     26  C   UNL     1      -7.791   1.938  -5.662  0.00  0.00    +0.050 A 
ATOM     27  C   UNL     1      -8.816   0.982  -5.652  0.00  0.00    +0.008 A 
ATOM     28  C   UNL     1      -9.233   0.392  -6.843  0.00  0.00    +0.010 A 
ATOM     29  C   UNL     1      -9.236   0.833  -4.246  0.00  0.00    +0.008 A 
ATOM     30  C   UNL     1     -10.197   0.050  -3.611  0.00  0.00    +0.010 A 
ATOM     31  C   UNL     1     -10.356   0.136  -2.245  0.00  0.00    +0.001 A 
ATOM     32  C   UNL     1      -9.563   0.997  -1.502  0.00  0.00    +0.002 A 
ATOM     33  C   UNL     1      -8.608   1.777  -2.118  0.00  0.00    +0.026 A 
ATOM     34  C   UNL     1      -8.432   1.705  -3.497  0.00  0.00    +0.050 A 
ATOM     35  N   UNL     1      -7.571   2.356  -4.362  0.00  0.00    -0.337 N 
ENDBRANCH  22  35
ENDBRANCH  19  22
ENDBRANCH   1  19
TORSDOF 7
