REMARK  Name = ZINC39635009
REMARK  8 active torsions:
REMARK  status: ('A' for Active; 'I' for Inactive)
REMARK    1  A    between atoms: C_1  and  O_2
REMARK    2  A    between atoms: O_2  and  C_3
REMARK    3  A    between atoms: C_6  and  C_9
REMARK    4  A    between atoms: C_9  and  C_10
REMARK    5  A    between atoms: C_10  and  N_11
REMARK    6  A    between atoms: C_12  and  C_14
REMARK    7  A    between atoms: C_25  and  C_27
REMARK    8  A    between atoms: C_27  and  C_28
REMARK                            x       y       z     vdW  Elec       q    Type
REMARK                         _______ _______ _______ _____ _____    ______ ____
ROOT
ATOM      1  C   UNL     1      -8.677  -4.563  -2.550  0.00  0.00    +0.100 C 
ATOM      2  C   UNL     1      -8.523  -6.002  -2.009  0.00  0.00    +0.121 C 
ATOM      3  N   UNL     1      -9.457  -6.812  -2.828  0.00  0.00    -0.300 N 
ATOM      4  C   UNL     1      -9.323  -6.257  -4.196  0.00  0.00    +0.115 C 
ATOM      5  C   UNL     1      -9.201  -4.735  -3.986  0.00  0.00    -0.004 C 
ATOM      6  C   UNL     1     -10.568  -4.071  -4.132  0.00  0.00    -0.010 C 
ATOM      7  C   UNL     1     -11.042  -4.205  -5.581  0.00  0.00    -0.082 C 
ATOM      8  N   UNL     1     -10.069  -3.570  -6.478  0.00  0.00    +0.379 N 
ATOM      9  C   UNL     1      -8.783  -4.273  -6.399  0.00  0.00    -0.082 C 
ATOM     10  C   UNL     1      -8.212  -4.142  -4.984  0.00  0.00    -0.010 C 
ATOM     11  C   UNL     1     -10.248  -7.823  -2.420  0.00  0.00    +0.220 C 
ATOM     12  O   UNL     1     -10.963  -8.393  -3.217  0.00  0.00    -0.275 OA
ATOM     13  H   UNL     1     -10.413  -3.607  -7.426  0.00  0.00    -0.086 HD
ATOM     14  H   UNL     1      -9.941  -2.607  -6.206  0.00  0.00    -0.086 HD
ENDROOT
BRANCH   1  16
ATOM     15  N   UNL     1      -7.287  -2.521  -2.426  0.00  0.00    -0.315 N 
ATOM     16  C   UNL     1      -7.344  -3.861  -2.559  0.00  0.00    +0.218 C 
ATOM     17  O   UNL     1      -6.322  -4.501  -2.686  0.00  0.00    -0.275 OA
ATOM     18  H   UNL     1      -8.104  -2.008  -2.325  0.00  0.00    +0.149 HD
BRANCH  15  19
ATOM     19  C   UNL     1      -5.991  -1.838  -2.435  0.00  0.00    +0.109 C 
BRANCH  19  20
ATOM     20  C   UNL     1      -6.207  -0.332  -2.269  0.00  0.00    +0.054 C 
BRANCH  20  24
ATOM     21  C   UNL     1      -2.426   1.660  -2.295  0.00  0.00    +0.120 A 
ATOM     22  C   UNL     1      -3.112   1.457  -3.483  0.00  0.00    +0.046 A 
ATOM     23  C   UNL     1      -4.334   0.812  -3.472  0.00  0.00    +0.007 A 
ATOM     24  C   UNL     1      -4.873   0.370  -2.278  0.00  0.00    -0.046 A 
ATOM     25  C   UNL     1      -4.191   0.571  -1.092  0.00  0.00    +0.007 A 
ATOM     26  C   UNL     1      -2.966   1.210  -1.099  0.00  0.00    +0.046 A 
BRANCH  21  28
ATOM     27  C   UNL     1      -0.728   2.729  -3.570  0.00  0.00    +0.277 C 
ATOM     28  O   UNL     1      -1.224   2.293  -2.303  0.00  0.00    -0.495 OA
ENDBRANCH  21  28
ENDBRANCH  20  24
ENDBRANCH  19  20
ENDBRANCH  15  19
ENDBRANCH   1  16
BRANCH  11  29
ATOM     29  C   UNL     1     -10.246  -8.247  -0.974  0.00  0.00    +0.131 C 
BRANCH  29  30
ATOM     30  C   UNL     1     -11.210  -9.389  -0.783  0.00  0.00    -0.039 A 
ATOM     31  C   UNL     1     -12.532  -9.132  -0.471  0.00  0.00    +0.005 A 
ATOM     32  C   UNL     1     -13.417 -10.180  -0.296  0.00  0.00    +0.020 A 
ATOM     33  C   UNL     1     -12.979 -11.485  -0.432  0.00  0.00    +0.041 A 
ATOM     34  C   UNL     1     -11.656 -11.741  -0.745  0.00  0.00    +0.020 A 
ATOM     35  C   UNL     1     -10.773 -10.693  -0.925  0.00  0.00    +0.005 A 
ATOM     36 CL   UNL     1     -14.090 -12.801  -0.212  0.00  0.00    -0.084 Cl
ENDBRANCH  29  30
ENDBRANCH  11  29
TORSDOF 7
