REMARK  Name = ZINC14943531
REMARK  5 active torsions:
REMARK  status: ('A' for Active; 'I' for Inactive)
REMARK    1  A    between atoms: C_5  and  C_7
REMARK    2  A    between atoms: C_9  and  N_26
REMARK    3  A    between atoms: C_11  and  C_19
REMARK    4  A    between atoms: C_14  and  N_18
REMARK    5  A    between atoms: C_15  and  C_16
REMARK                            x       y       z     vdW  Elec       q    Type
REMARK                         _______ _______ _______ _____ _____    ______ ____
ROOT
ATOM      1  C   UNL     1       2.452   3.936   0.000  0.00  0.00    +0.094 C 
ATOM      2  C   UNL     1       3.243   3.587   1.256  0.00  0.00    +0.200 C 
ATOM      3  C   UNL     1       4.593   4.312   1.217  0.00  0.00    +0.113 C 
ATOM      4  S   UNL     1       5.644   3.486  -0.006  0.00  0.00    -0.099 S 
ATOM      5  C   UNL     1       4.527   3.414  -1.363  0.00  0.00    +0.073 C 
ATOM      6  C   UNL     1       3.203   3.608  -1.246  0.00  0.00    +0.066 C 
ENDROOT
BRANCH   1  11
ATOM      7  C   UNL     1      -0.013   1.076   0.008  0.00  0.00    +0.000 A 
ATOM      8  C   UNL     1      -1.219   1.750   0.017  0.00  0.00    +0.001 A 
ATOM      9  C   UNL     1      -1.239   3.132   0.031  0.00  0.00    +0.020 A 
ATOM     10  C   UNL     1      -0.050   3.841   0.023  0.00  0.00    +0.045 A 
ATOM     11  C   UNL     1       1.157   3.165   0.008  0.00  0.00    -0.019 A 
ATOM     12  C   UNL     1       1.175   1.783   0.000  0.00  0.00    +0.006 A 
ATOM     13 CL   UNL     1      -0.074   5.576   0.033  0.00  0.00    -0.083 Cl
ENDBRANCH   1  11
BRANCH   3  14
ATOM     14  C   UNL     1       5.245   4.247   2.575  0.00  0.00    -0.032 A 
ATOM     15  C   UNL     1       5.539   3.021   3.141  0.00  0.00    +0.007 A 
ATOM     16  C   UNL     1       6.140   2.960   4.384  0.00  0.00    +0.038 A 
ATOM     17  C   UNL     1       6.439   4.127   5.066  0.00  0.00    +0.123 A 
ATOM     18  C   UNL     1       6.139   5.354   4.500  0.00  0.00    +0.038 A 
ATOM     19  C   UNL     1       5.543   5.413   3.255  0.00  0.00    +0.007 A 
ATOM     20  F   UNL     1       7.023   4.068   6.283  0.00  0.00    -0.205 F 
ENDBRANCH   3  14
BRANCH   5  21
ATOM     21  N   UNL     1       5.037   3.142  -2.610  0.00  0.00    -0.352 N 
ATOM     22  H   UNL     1       4.365   3.089  -3.479  0.00  0.00    +0.143 HD
ATOM     23  H   UNL     1       6.117   2.976  -2.739  0.00  0.00    +0.143 HD
ENDBRANCH   5  21
BRANCH   2  24
ATOM     24  N   UNL     1       3.464   2.140   1.309  0.00  0.00    +0.028 N 
ATOM     25  O   UNL     1       4.074   1.584   0.414  0.00  0.00    -0.131 OA
ATOM     26  O   UNL     1       3.037   1.493   2.249  0.00  0.00    -0.131 OA
ENDBRANCH   2  24
BRANCH   6  27
ATOM     27  C   UNL     1       2.432   3.489  -2.447  0.00  0.00    +0.098 C 
ATOM     28  N   UNL     1       1.820   3.395  -3.399  0.00  0.00    -0.191 NA
ENDBRANCH   6  27
TORSDOF 5
