REMARK  Name = ZINC50618985
REMARK  7 active torsions:
REMARK  status: ('A' for Active; 'I' for Inactive)
REMARK    1  A    between atoms: C_1  and  C_2
REMARK    2  A    between atoms: C_2  and  N_3
REMARK    3  A    between atoms: N_3  and  C_4
REMARK    4  A    between atoms: C_4  and  C_6
REMARK    5  A    between atoms: C_4  and  C_7
REMARK    6  A    between atoms: C_10  and  C_12
REMARK    7  A    between atoms: C_17  and  N_18
REMARK                            x       y       z     vdW  Elec       q    Type
REMARK                         _______ _______ _______ _____ _____    ______ ____
ROOT
ATOM      1  C   UNL     1       1.653  -1.848   3.005  0.00  0.00    +0.204 A 
ATOM      2  N   UNL     1       2.700  -1.510   3.705  0.00  0.00    -0.114 NA
ATOM      3  N   UNL     1       2.858  -2.344   4.672  0.00  0.00    -0.107 NA
ATOM      4  C   UNL     1       1.909  -3.249   4.622  0.00  0.00    +0.251 A 
ATOM      5  O   UNL     1       1.125  -2.949   3.568  0.00  0.00    -0.422 OA
ENDROOT
BRANCH   4   6
ATOM      6  C   UNL     1       1.731  -4.385   5.553  0.00  0.00    +0.071 A 
ATOM      7  C   UNL     1       0.529  -4.539   6.247  0.00  0.00    +0.056 A 
ATOM      8  C   UNL     1       0.368  -5.601   7.114  0.00  0.00    +0.159 A 
ATOM      9  C   UNL     1       1.399  -6.513   7.296  0.00  0.00    +0.161 A 
ATOM     10  C   UNL     1       2.592  -6.363   6.609  0.00  0.00    +0.074 A 
ATOM     11  C   UNL     1       2.761  -5.308   5.735  0.00  0.00    +0.141 A 
ATOM     12  F   UNL     1       1.238  -7.550   8.147  0.00  0.00    -0.202 F 
ATOM     13  F   UNL     1      -0.793  -5.753   7.787  0.00  0.00    -0.202 F 
BRANCH  11  14
ATOM     14  N   UNL     1       4.035  -5.153   4.998  0.00  0.00    +0.057 N 
ATOM     15  O   UNL     1       4.969  -5.880   5.245  0.00  0.00    -0.126 OA
ATOM     16  O   UNL     1       4.141  -4.300   4.148  0.00  0.00    -0.126 OA
ENDBRANCH  11  14
ENDBRANCH   4   6
BRANCH   1  17
ATOM     17  C   UNL     1       1.127  -1.131   1.788  0.00  0.00    +0.015 C 
ATOM     18  C   UNL     1       2.023  -1.440   0.587  0.00  0.00    -0.004 C 
BRANCH  17  19
ATOM     19  N   UNL     1       1.123   0.317   2.037  0.00  0.00    +0.386 N 
ATOM     20  H   UNL     1       2.072   0.641   2.148  0.00  0.00    -0.085 HD
ATOM     21  H   UNL     1       0.600   0.512   2.877  0.00  0.00    -0.085 HD
BRANCH  19  23
ATOM     22  C   UNL     1       0.496   2.515   1.159  0.00  0.00    -0.017 C 
ATOM     23  C   UNL     1       0.500   1.007   0.900  0.00  0.00    -0.085 C 
ENDBRANCH  19  23
ENDBRANCH  17  19
ENDBRANCH   1  17
TORSDOF 5
