REMARK  Name = ZINC15416971
REMARK  11 active torsions:
REMARK  status: ('A' for Active; 'I' for Inactive)
REMARK    1  A    between atoms: C_1  and  C_2
REMARK    2  A    between atoms: N_11  and  C_12
REMARK    3  A    between atoms: C_12  and  C_13
REMARK    4  A    between atoms: N_15  and  C_16
REMARK    5  A    between atoms: N_15  and  C_20
REMARK    6  A    between atoms: C_16  and  C_17
REMARK    7  A    between atoms: C_17  and  C_18
REMARK    8  A    between atoms: C_17  and  C_19
REMARK    9  A    between atoms: C_21  and  N_36
REMARK   10  A    between atoms: N_22  and  C_29
REMARK   11  A    between atoms: C_29  and  C_30
REMARK                            x       y       z     vdW  Elec       q    Type
REMARK                         _______ _______ _______ _____ _____    ______ ____
ROOT
ATOM      1  C   UNL     1       4.993  -0.824   3.656  0.00  0.00    +0.140 A 
ATOM      2  C   UNL     1       4.412  -0.573   4.882  0.00  0.00    +0.128 A 
ATOM      3  N   UNL     1       5.014  -1.054   6.021  0.00  0.00    -0.276 N 
ATOM      4  C   UNL     1       6.155  -1.762   5.941  0.00  0.00    +0.331 A 
ATOM      5  O   UNL     1       6.672  -2.179   6.960  0.00  0.00    -0.246 OA
ATOM      6  N   UNL     1       6.736  -2.017   4.755  0.00  0.00    -0.273 N 
ATOM      7  H   UNL     1       7.559  -2.530   4.725  0.00  0.00    +0.173 HD
ATOM      8  C   UNL     1       6.185  -1.572   3.609  0.00  0.00    +0.277 A 
ATOM      9  O   UNL     1       6.717  -1.813   2.539  0.00  0.00    -0.266 OA
ENDROOT
BRANCH   1  12
ATOM     10  C   UNL     1       3.158  -0.743   2.126  0.00  0.00    +0.234 C 
ATOM     11  O   UNL     1       2.582  -1.576   2.795  0.00  0.00    -0.274 OA
ATOM     12  N   UNL     1       4.400  -0.345   2.469  0.00  0.00    -0.263 N 
BRANCH  10  13
ATOM     13  C   UNL     1       2.484  -0.154   0.913  0.00  0.00    +0.181 C 
BRANCH  13  23
ATOM     14  C   UNL     1       0.075   1.391   0.206  0.00  0.00    +0.031 C 
ATOM     15  C   UNL     1       0.370  -0.033  -0.269  0.00  0.00    +0.101 C 
ATOM     16  C   UNL     1      -0.924  -0.780  -0.477  0.00  0.00    +0.036 A 
ATOM     17  C   UNL     1      -2.039  -0.353  -1.089  0.00  0.00    +0.024 A 
ATOM     18  C   UNL     1      -2.979  -1.404  -1.032  0.00  0.00    +0.019 A 
ATOM     19  C   UNL     1      -2.395  -2.436  -0.385  0.00  0.00    +0.086 A 
ATOM     20  N   UNL     1      -1.135  -2.063  -0.043  0.00  0.00    -0.348 N 
ATOM     21  C   UNL     1      -0.120  -2.851   0.666  0.00  0.00    +0.137 C 
ATOM     22  C   UNL     1       1.243  -2.182   0.449  0.00  0.00    +0.107 C 
ATOM     23  N   UNL     1       1.150  -0.748   0.757  0.00  0.00    -0.284 NA
ENDBRANCH  13  23
ENDBRANCH  10  13
BRANCH  12  24
ATOM     24  C   UNL     1       5.134   0.586   1.608  0.00  0.00    +0.117 C 
BRANCH  24  25
ATOM     25  C   UNL     1       4.757   2.024   1.973  0.00  0.00    +0.001 C 
ATOM     26  C   UNL     1       5.239   2.333   3.391  0.00  0.00    +0.009 C 
ATOM     27  C   UNL     1       5.417   2.990   0.988  0.00  0.00    +0.009 C 
ENDBRANCH  24  25
ENDBRANCH  12  24
ENDBRANCH   1  12
BRANCH   2  28
ATOM     28  N   UNL     1       3.246   0.150   4.963  0.00  0.00    -0.343 N 
ATOM     29  H   UNL     1       2.795   0.435   4.154  0.00  0.00    +0.144 HD
ATOM     30  H   UNL     1       2.875   0.375   5.831  0.00  0.00    +0.144 HD
ENDBRANCH   2  28
BRANCH   3  31
ATOM     31  C   UNL     1       4.408  -0.794   7.330  0.00  0.00    +0.163 C 
BRANCH  31  32
ATOM     32  C   UNL     1       3.448  -1.906   7.668  0.00  0.00    -0.028 A 
ATOM     33  C   UNL     1       2.122  -1.814   7.288  0.00  0.00    +0.005 A 
ATOM     34  C   UNL     1       1.242  -2.833   7.599  0.00  0.00    +0.000 A 
ATOM     35  C   UNL     1       1.688  -3.945   8.289  0.00  0.00    +0.000 A 
ATOM     36  C   UNL     1       3.014  -4.037   8.669  0.00  0.00    +0.000 A 
ATOM     37  C   UNL     1       3.895  -3.020   8.354  0.00  0.00    +0.005 A 
ENDBRANCH  31  32
ENDBRANCH   3  31
TORSDOF 8
