REMARK  Name = ZINC37176224
REMARK  4 active torsions:
REMARK  status: ('A' for Active; 'I' for Inactive)
REMARK    1  A    between atoms: C_1  and  C_2
REMARK    2  A    between atoms: C_7  and  C_12
REMARK    3  A    between atoms: C_12  and  C_14
REMARK    4  A    between atoms: C_12  and  N_22
REMARK                            x       y       z     vdW  Elec       q    Type
REMARK                         _______ _______ _______ _____ _____    ______ ____
ROOT
ATOM      1  C   UNL     1       5.883  -1.186  -1.171  0.00  0.00    -0.013 C 
ENDROOT
BRANCH   1   7
ATOM      2  C   UNL     1      -0.019   1.526   0.010  0.00  0.00    +0.052 C 
ATOM      3  C   UNL     1       0.002  -0.004   0.002  0.00  0.00    +0.175 C 
ATOM      4  C   UNL     1       0.775  -0.535  -1.228  0.00  0.00    +0.083 C 
ATOM      5  C   UNL     1       2.175  -0.704  -0.670  0.00  0.00    -0.002 A 
ATOM      6  C   UNL     1       3.399  -0.875  -1.278  0.00  0.00    +0.009 A 
ATOM      7  C   UNL     1       4.542  -0.999  -0.508  0.00  0.00    -0.057 A 
ATOM      8  C   UNL     1       4.450  -0.950   0.871  0.00  0.00    +0.006 A 
ATOM      9  C   UNL     1       3.225  -0.783   1.482  0.00  0.00    +0.046 A 
ATOM     10  C   UNL     1       2.069  -0.661   0.714  0.00  0.00    +0.124 A 
ATOM     11  O   UNL     1       0.770  -0.509   1.108  0.00  0.00    -0.488 OA
ENDBRANCH   1   7
BRANCH   1  12
ATOM     12  C   UNL     1       6.614   0.131  -1.207  0.00  0.00    -0.054 A 
ATOM     13  C   UNL     1       7.277   0.585  -0.082  0.00  0.00    +0.040 A 
ATOM     14  C   UNL     1       7.949   1.795  -0.116  0.00  0.00    +0.125 A 
ATOM     15  C   UNL     1       7.955   2.550  -1.276  0.00  0.00    +0.053 A 
ATOM     16  C   UNL     1       7.291   2.095  -2.400  0.00  0.00    +0.021 A 
ATOM     17  C   UNL     1       6.625   0.883  -2.367  0.00  0.00    +0.017 A 
ATOM     18 BR   UNL     1       7.299   3.126  -3.986  0.00  0.00    -0.050 Br
ATOM     19  F   UNL     1       8.597   2.239   0.983  0.00  0.00    -0.205 F 
ENDBRANCH   1  12
BRANCH   1  20
ATOM     20  N   UNL     1       6.672  -2.163  -0.409  0.00  0.00    +0.385 N 
ATOM     21  H   UNL     1       6.183  -3.045  -0.385  0.00  0.00    -0.089 HD
ATOM     22  H   UNL     1       7.570  -2.289  -0.853  0.00  0.00    -0.089 HD
ATOM     23  H   UNL     1       6.807  -1.827   0.532  0.00  0.00    -0.089 HD
ENDBRANCH   1  20
TORSDOF 3
