REMARK  Name = ZINC58767860
REMARK  7 active torsions:
REMARK  status: ('A' for Active; 'I' for Inactive)
REMARK    1  A    between atoms: C_1  and  N_2
REMARK    2  A    between atoms: C_10  and  C_11
REMARK    3  A    between atoms: C_11  and  O_13
REMARK    4  A    between atoms: O_13  and  C_14
REMARK    5  A    between atoms: C_14  and  C_15
REMARK    6  A    between atoms: N_17  and  C_18
REMARK    7  A    between atoms: C_22  and  N_24
REMARK                            x       y       z     vdW  Elec       q    Type
REMARK                         _______ _______ _______ _____ _____    ______ ____
ROOT
ATOM      1  O   UNL     1       0.012   0.974   2.780  0.00  0.00    -0.451 OA
ENDROOT
BRANCH   1   2
ATOM      2  C   UNL     1       0.021  -0.348   2.513  0.00  0.00    +0.358 C 
ATOM      3  O   UNL     1       0.032  -1.152   3.426  0.00  0.00    -0.243 OA
BRANCH   2  13
ATOM      4  C   UNL     1      -0.006   1.460   0.010  0.00  0.00    +0.149 C 
ATOM      5  N   UNL     1       0.005  -0.005   0.002  0.00  0.00    -0.337 N 
ATOM      6  C   UNL     1       0.011  -0.799  -1.120  0.00  0.00    +0.051 A 
ATOM      7  C   UNL     1       0.009  -0.520  -2.484  0.00  0.00    +0.026 A 
ATOM      8  C   UNL     1       0.017  -1.552  -3.394  0.00  0.00    +0.002 A 
ATOM      9  C   UNL     1       0.028  -2.874  -2.966  0.00  0.00    +0.001 A 
ATOM     10  C   UNL     1       0.030  -3.173  -1.635  0.00  0.00    +0.011 A 
ATOM     11  C   UNL     1       0.022  -2.140  -0.688  0.00  0.00    +0.019 A 
ATOM     12  C   UNL     1       0.023  -2.119   0.728  0.00  0.00    +0.081 A 
ATOM     13  C   UNL     1       0.018  -0.816   1.123  0.00  0.00    +0.146 A 
ATOM     14 CL   UNL     1       0.034  -3.506   1.773  0.00  0.00    -0.080 Cl
ENDBRANCH   2  13
ENDBRANCH   1   2
BRANCH   1  15
ATOM     15  C   UNL     1       0.016   1.359   4.156  0.00  0.00    +0.328 C 
BRANCH  15  16
ATOM     16  C   UNL     1       0.004   2.862   4.257  0.00  0.00    +0.255 C 
ATOM     17  O   UNL     1      -0.007   3.538   3.250  0.00  0.00    -0.272 OA
ATOM     18  N   UNL     1       0.005   3.456   5.467  0.00  0.00    -0.283 N 
ATOM     19  H   UNL     1      -0.054   2.918   6.272  0.00  0.00    +0.155 HD
BRANCH  18  20
ATOM     20  C   UNL     1       0.092   4.849   5.562  0.00  0.00    +0.036 A 
ATOM     21  C   UNL     1       0.795   5.433   6.609  0.00  0.00    +0.023 A 
ATOM     22  C   UNL     1       0.879   6.808   6.700  0.00  0.00    +0.004 A 
ATOM     23  C   UNL     1       0.264   7.605   5.751  0.00  0.00    +0.033 A 
ATOM     24  C   UNL     1      -0.437   7.027   4.709  0.00  0.00    +0.128 A 
ATOM     25  C   UNL     1      -0.519   5.652   4.608  0.00  0.00    +0.056 A 
BRANCH  24  26
ATOM     26  N   UNL     1      -1.095   7.883   3.696  0.00  0.00    +0.056 N 
ATOM     27  O   UNL     1      -1.019   9.086   3.781  0.00  0.00    -0.126 OA
ATOM     28  O   UNL     1      -1.708   7.378   2.784  0.00  0.00    -0.126 OA
ENDBRANCH  24  26
ENDBRANCH  18  20
ENDBRANCH  15  16
ENDBRANCH   1  15
TORSDOF 6
