REMARK  Name = ZINC08777499
REMARK  4 active torsions:
REMARK  status: ('A' for Active; 'I' for Inactive)
REMARK    1  A    between atoms: C_1  and  C_2
REMARK    2  A    between atoms: C_2  and  C_21
REMARK    3  A    between atoms: N_5  and  C_9
REMARK    4  A    between atoms: C_9  and  C_10
REMARK                            x       y       z     vdW  Elec       q    Type
REMARK                         _______ _______ _______ _____ _____    ______ ____
ROOT
ATOM      1  C   UNL     1      -3.045   4.056   1.485  0.00  0.00    +0.047 C 
ATOM      2  C   UNL     1      -2.569   3.842   0.047  0.00  0.00    +0.135 C 
ATOM      3  C   UNL     1      -3.596   3.061  -0.748  0.00  0.00    +0.251 C 
ATOM      4  O   UNL     1      -3.991   1.936  -0.528  0.00  0.00    -0.272 OA
ATOM      5  N   UNL     1      -3.978   3.877  -1.751  0.00  0.00    -0.220 N 
ATOM      6  C   UNL     1      -3.341   5.052  -1.700  0.00  0.00    +0.310 C 
ATOM      7  O   UNL     1      -3.518   5.952  -2.498  0.00  0.00    -0.252 OA
ATOM      8  N   UNL     1      -2.483   5.128  -0.667  0.00  0.00    -0.281 N 
ATOM      9  H   UNL     1      -1.917   5.882  -0.437  0.00  0.00    +0.152 HD
ENDROOT
BRANCH   2  10
ATOM     10  C   UNL     1      -1.237   3.137   0.031  0.00  0.00    -0.015 A 
ATOM     11  C   UNL     1      -1.198   1.744   0.017  0.00  0.00    +0.007 A 
ATOM     12  C   UNL     1      -0.013   1.076   0.008  0.00  0.00    +0.009 A 
ATOM     13  C   UNL     1       1.193   1.799   0.000  0.00  0.00    -0.018 A 
ATOM     14  C   UNL     1       2.436   1.144  -0.015  0.00  0.00    +0.008 A 
ATOM     15  C   UNL     1       3.583   1.877  -0.022  0.00  0.00    +0.001 A 
ATOM     16  C   UNL     1       3.544   3.270  -0.015  0.00  0.00    +0.001 A 
ATOM     17  C   UNL     1       2.358   3.938   0.000  0.00  0.00    +0.008 A 
ATOM     18  C   UNL     1       1.153   3.215   0.008  0.00  0.00    -0.018 A 
ATOM     19  C   UNL     1      -0.090   3.870   0.023  0.00  0.00    +0.014 A 
ENDBRANCH   2  10
BRANCH   5  20
ATOM     20  C   UNL     1      -4.967   3.520  -2.771  0.00  0.00    +0.153 C 
BRANCH  20  21
ATOM     21  C   UNL     1      -4.271   2.873  -3.941  0.00  0.00    -0.025 A 
ATOM     22  C   UNL     1      -3.819   3.650  -4.990  0.00  0.00    +0.054 A 
ATOM     23  C   UNL     1      -3.174   3.059  -6.066  0.00  0.00    +0.164 A 
ATOM     24  C   UNL     1      -2.992   1.681  -6.090  0.00  0.00    +0.180 A 
ATOM     25  C   UNL     1      -3.453   0.905  -5.037  0.00  0.00    +0.086 A 
ATOM     26  C   UNL     1      -4.092   1.502  -3.965  0.00  0.00    +0.029 A 
ATOM     27 CL   UNL     1      -3.228  -0.816  -5.063  0.00  0.00    -0.080 Cl
ATOM     28  O   UNL     1      -2.361   1.081  -7.137  0.00  0.00    -0.483 OA
ATOM     29  C   UNL     1      -2.244   1.844  -8.342  0.00  0.00    +0.270 C 
ATOM     30  C   UNL     1      -1.768   3.255  -7.973  0.00  0.00    +0.270 C 
ATOM     31  O   UNL     1      -2.734   3.838  -7.091  0.00  0.00    -0.485 OA
ENDBRANCH  20  21
ENDBRANCH   5  20
TORSDOF 3
