REMARK  Name = ZINC11948004
REMARK  6 active torsions:
REMARK  status: ('A' for Active; 'I' for Inactive)
REMARK    1  A    between atoms: C_1  and  C_2
REMARK    2  A    between atoms: C_7  and  C_8
REMARK    3  A    between atoms: C_8  and  N_65
REMARK    4  A    between atoms: C_14  and  C_16
REMARK    5  A    between atoms: C_16  and  C_17
REMARK    6  A    between atoms: C_22  and  C_25
REMARK                            x       y       z     vdW  Elec       q    Type
REMARK                         _______ _______ _______ _____ _____    ______ ____
ROOT
ATOM      1  C   UNL     1      -2.487  -2.101   5.269  0.00  0.00    -0.058 C 
ATOM      2  C   UNL     1      -3.945  -1.652   5.375  0.00  0.00    +0.085 C 
ATOM      3  N   UNL     1      -4.014  -0.200   5.509  0.00  0.00    -0.318 N 
ATOM      4  C   UNL     1      -3.000   0.609   5.185  0.00  0.00    +0.200 C 
ATOM      5  O   UNL     1      -3.152   1.806   5.298  0.00  0.00    -0.278 OA
ATOM      6  C   UNL     1      -1.679   0.096   4.686  0.00  0.00    +0.028 C 
ATOM      7  H   UNL     1      -4.832   0.196   5.848  0.00  0.00    +0.149 HD
ATOM      8  N   UNL     1      -1.836  -1.294   4.217  0.00  0.00    +0.391 N 
ATOM      9  H   UNL     1      -2.425  -1.300   3.376  0.00  0.00    -0.080 HD
ENDROOT
BRANCH   8  10
ATOM     10  C   UNL     1      -0.513  -1.868   3.881  0.00  0.00    -0.042 C 
BRANCH  10  17
ATOM     11  C   UNL     1      -1.487  -2.675   1.284  0.00  0.00    +0.044 C 
ATOM     12  C   UNL     1      -1.142  -3.717   2.317  0.00  0.00    -0.049 A 
ATOM     13  C   UNL     1      -1.293  -5.059   2.021  0.00  0.00    +0.003 A 
ATOM     14  C   UNL     1      -0.977  -6.015   2.968  0.00  0.00    +0.000 A 
ATOM     15  C   UNL     1      -0.510  -5.629   4.211  0.00  0.00    +0.000 A 
ATOM     16  C   UNL     1      -0.356  -4.288   4.505  0.00  0.00    +0.002 A 
ATOM     17  C   UNL     1      -0.677  -3.331   3.559  0.00  0.00    -0.061 A 
ENDBRANCH  10  17
ENDBRANCH   8  10
BRANCH   6  18
ATOM     18  C   UNL     1      -1.205   0.964   3.518  0.00  0.00    +0.090 C 
BRANCH  18  19
ATOM     19  C   UNL     1      -2.198   0.873   2.389  0.00  0.00    +0.214 C 
ATOM     20  O   UNL     1      -3.218   0.231   2.528  0.00  0.00    -0.276 OA
ATOM     21  N   UNL     1      -1.954   1.506   1.224  0.00  0.00    -0.301 N 
ATOM     22  C   UNL     1      -0.723   2.287   1.040  0.00  0.00    +0.108 C 
ATOM     23  C   UNL     1      -0.012   1.795  -0.225  0.00  0.00    +0.032 C 
ATOM     24  C   UNL     1      -0.981   1.860  -1.408  0.00  0.00    +0.078 C 
ATOM     25  C   UNL     1      -2.178   0.945  -1.140  0.00  0.00    +0.032 C 
ATOM     26  C   UNL     1      -2.913   1.427   0.114  0.00  0.00    +0.108 C 
BRANCH  24  27
ATOM     27  C   UNL     1      -0.274   1.410  -2.660  0.00  0.00    +0.219 C 
ATOM     28  O   UNL     1       0.783   0.820  -2.581  0.00  0.00    -0.275 OA
ATOM     29  N   UNL     1      -0.817   1.662  -3.868  0.00  0.00    -0.301 N 
ATOM     30  C   UNL     1      -0.277   1.215  -5.160  0.00  0.00    +0.108 C 
ATOM     31  C   UNL     1      -1.213   1.757  -6.260  0.00  0.00    +0.020 C 
ATOM     32  C   UNL     1      -1.905   2.958  -5.564  0.00  0.00    +0.020 C 
ATOM     33  C   UNL     1      -2.047   2.437  -4.112  0.00  0.00    +0.108 C 
ENDBRANCH  24  27
ENDBRANCH  18  19
ENDBRANCH   6  18
TORSDOF 5
