REMARK  Name = ZINC05041060
REMARK  7 active torsions:
REMARK  status: ('A' for Active; 'I' for Inactive)
REMARK    1  A    between atoms: C_1  and  C_2
REMARK    2  A    between atoms: N_11  and  C_15
REMARK    3  A    between atoms: C_15  and  C_16
REMARK    4  A    between atoms: C_16  and  O_18
REMARK    5  A    between atoms: O_18  and  C_19
REMARK    6  A    between atoms: C_19  and  C_21
REMARK    7  A    between atoms: C_19  and  C_22
REMARK                            x       y       z     vdW  Elec       q    Type
REMARK                         _______ _______ _______ _____ _____    ______ ____
ROOT
ATOM      1  C   UNL     1       5.630   6.152  -1.159  0.00  0.00    +0.326 C 
ATOM      2  O   UNL     1       6.596   5.575  -1.599  0.00  0.00    -0.249 OA
ENDROOT
BRANCH   1   3
ATOM      3  C   UNL     1       5.453   7.627  -1.413  0.00  0.00    +0.238 C 
BRANCH   3  13
ATOM      4  C   UNL     1       9.536   6.695  -2.939  0.00  0.00    +0.010 C 
ATOM      5  C   UNL     1       9.868   8.188  -2.885  0.00  0.00    +0.018 C 
ATOM      6  C   UNL     1      10.700   8.570  -4.112  0.00  0.00    +0.006 C 
ATOM      7  C   UNL     1      11.014  10.067  -4.067  0.00  0.00    +0.000 C 
ATOM      8  C   UNL     1       9.709  10.865  -4.077  0.00  0.00    +0.003 C 
ATOM      9  C   UNL     1       8.874  10.491  -2.850  0.00  0.00    +0.035 C 
ATOM     10  C   UNL     1       8.576   8.996  -2.873  0.00  0.00    +0.115 C 
ATOM     11  C   UNL     1       7.720   8.614  -1.687  0.00  0.00    +0.247 C 
ATOM     12  O   UNL     1       8.002   8.723  -0.513  0.00  0.00    -0.273 OA
ATOM     13  N   UNL     1       6.577   8.123  -2.210  0.00  0.00    -0.213 N 
ATOM     14  C   UNL     1       6.596   8.152  -3.549  0.00  0.00    +0.310 C 
ATOM     15  O   UNL     1       5.678   7.766  -4.245  0.00  0.00    -0.252 OA
ATOM     16  N   UNL     1       7.746   8.656  -4.036  0.00  0.00    -0.285 N 
ATOM     17  H   UNL     1       7.980   8.771  -4.970  0.00  0.00    +0.151 HD
ENDBRANCH   3  13
ENDBRANCH   1   3
BRANCH   1  18
ATOM     18  O   UNL     1       4.715   5.480  -0.444  0.00  0.00    -0.451 OA
BRANCH  18  19
ATOM     19  C   UNL     1       4.950   4.062  -0.239  0.00  0.00    +0.259 C 
ATOM     20  C   UNL     1       5.760   3.859   1.043  0.00  0.00    +0.062 C 
BRANCH  19  21
ATOM     21  C   UNL     1       3.629   3.346  -0.116  0.00  0.00    +0.259 C 
ATOM     22  O   UNL     1       2.595   3.980  -0.103  0.00  0.00    -0.271 OA
ATOM     23  N   UNL     1       3.597   2.002  -0.021  0.00  0.00    -0.267 N 
ATOM     24  C   UNL     1       2.374   1.332  -0.015  0.00  0.00    +0.125 A 
ATOM     25  C   UNL     1       2.350  -0.058  -0.025  0.00  0.00    +0.045 A 
ATOM     26  C   UNL     1       1.130  -0.710  -0.018  0.00  0.00    +0.025 A 
ATOM     27  C   UNL     1      -0.030   0.054  -0.003  0.00  0.00    +0.059 A 
ATOM     28  C   UNL     1       0.069   1.433   0.006  0.00  0.00    +0.132 A 
ATOM     29  N   UNL     1       1.247   2.026  -0.001  0.00  0.00    -0.239 NA
ATOM     30 CL   UNL     1      -1.587  -0.714   0.005  0.00  0.00    -0.082 Cl
ATOM     31  H   UNL     1       4.425   1.501   0.042  0.00  0.00    +0.156 HD
ENDBRANCH  19  21
ENDBRANCH  18  19
ENDBRANCH   1  18
TORSDOF 5
