REMARK  Name = ZINC09087952
REMARK  3 active torsions:
REMARK  status: ('A' for Active; 'I' for Inactive)
REMARK    1  A    between atoms: C_1  and  C_2
REMARK    2  A    between atoms: N_23  and  C_26
REMARK    3  A    between atoms: C_31  and  C_32
REMARK                            x       y       z     vdW  Elec       q    Type
REMARK                         _______ _______ _______ _____ _____    ______ ____
ROOT
ATOM      1  C   UNL     1      -1.616   6.941   4.209  0.00  0.00    +0.045 C 
ATOM      2  C   UNL     1      -1.309   5.537   3.757  0.00  0.00    -0.029 A 
ATOM      3  C   UNL     1      -2.007   4.474   4.292  0.00  0.00    +0.005 A 
ATOM      4  C   UNL     1      -1.734   3.182   3.883  0.00  0.00    +0.001 A 
ATOM      5  C   UNL     1      -0.755   2.953   2.932  0.00  0.00    +0.004 A 
ATOM      6  C   UNL     1      -0.055   4.011   2.396  0.00  0.00    -0.027 A 
ATOM      7  C   UNL     1      -0.321   5.316   2.800  0.00  0.00    +0.039 A 
ATOM      8  N   UNL     1       0.509   6.210   2.122  0.00  0.00    -0.286 N 
ATOM      9  C   UNL     1       1.339   5.584   1.266  0.00  0.00    +0.212 C 
ATOM     10  O   UNL     1       2.167   6.105   0.548  0.00  0.00    -0.277 OA
ATOM     11  C   UNL     1       1.042   4.112   1.374  0.00  0.00    +0.053 C 
ATOM     12  C   UNL     1       0.607   3.531   0.024  0.00  0.00    +0.089 C 
ATOM     13  C   UNL     1       1.208   2.099   0.002  0.00  0.00    +0.074 C 
ATOM     14  C   UNL     1       1.955   1.953   1.340  0.00  0.00    -0.054 C 
ATOM     15  C   UNL     1       3.404   3.775   0.980  0.00  0.00    -0.076 C 
ATOM     16  C   UNL     1       4.293   2.520   0.867  0.00  0.00    -0.020 C 
ATOM     17  C   UNL     1       3.329   1.306   1.089  0.00  0.00    -0.016 C 
ATOM     18  C   UNL     1      -0.014   1.208   0.009  0.00  0.00    +0.228 C 
ATOM     19  O   UNL     1       0.002  -0.004   0.002  0.00  0.00    -0.275 OA
ATOM     20  N   UNL     1      -1.117   1.966   0.017  0.00  0.00    -0.210 N 
ATOM     21  C   UNL     1      -0.885   3.284   0.032  0.00  0.00    +0.229 C 
ATOM     22  O   UNL     1      -1.737   4.146   0.044  0.00  0.00    -0.275 OA
ATOM     23  H   UNL     1       0.489   7.172   2.251  0.00  0.00    +0.155 HD
ATOM     24  N   UNL     1       2.225   3.317   1.735  0.00  0.00    +0.395 N 
ATOM     25  H   UNL     1       2.403   3.379   2.744  0.00  0.00    -0.079 HD
ENDROOT
BRANCH  20  26
ATOM     26  C   UNL     1      -2.410   1.425   0.015  0.00  0.00    +0.048 A 
ATOM     27  C   UNL     1      -3.049   1.146   1.216  0.00  0.00    +0.024 A 
ATOM     28  C   UNL     1      -4.323   0.612   1.212  0.00  0.00    +0.003 A 
ATOM     29  C   UNL     1      -4.962   0.354   0.013  0.00  0.00    +0.020 A 
ATOM     30  C   UNL     1      -4.328   0.631  -1.186  0.00  0.00    +0.046 A 
ATOM     31  C   UNL     1      -3.055   1.171  -1.187  0.00  0.00    -0.010 A 
ATOM     32  C   UNL     1      -2.368   1.478  -2.492  0.00  0.00    +0.047 C 
ATOM     33 CL   UNL     1      -5.134   0.307  -2.688  0.00  0.00    -0.083 Cl
ENDBRANCH  20  26
TORSDOF 1
