REMARK  Name = ZINC59869371
REMARK  8 active torsions:
REMARK  status: ('A' for Active; 'I' for Inactive)
REMARK    1  A    between atoms: C_1  and  C_2
REMARK    2  A    between atoms: C_2  and  C_4
REMARK    3  A    between atoms: C_2  and  N_23
REMARK    4  A    between atoms: C_4  and  O_6
REMARK    5  A    between atoms: O_6  and  C_7
REMARK    6  A    between atoms: C_7  and  C_8
REMARK    7  A    between atoms: N_10  and  C_11
REMARK    8  A    between atoms: C_12  and  C_20
REMARK                            x       y       z     vdW  Elec       q    Type
REMARK                         _______ _______ _______ _____ _____    ______ ____
ROOT
ATOM      1  C   UNL     1       4.068  -0.188   2.660  0.00  0.00    +0.255 C 
ATOM      2  O   UNL     1       4.503   0.522   1.779  0.00  0.00    -0.272 OA
ATOM      3  N   UNL     1       4.860  -0.545   3.691  0.00  0.00    -0.277 N 
ATOM      4  H   UNL     1       4.512  -1.113   4.396  0.00  0.00    +0.155 HD
ENDROOT
BRANCH   3   5
ATOM      5  C   UNL     1       6.172  -0.100   3.744  0.00  0.00    +0.084 A 
ATOM      6  C   UNL     1       7.125  -0.368   4.714  0.00  0.00    +0.068 A 
ATOM      7  C   UNL     1       8.439   0.224   4.537  0.00  0.00    -0.023 A 
ATOM      8  C   UNL     1       8.560   0.975   3.421  0.00  0.00    -0.004 A 
ATOM      9  S   UNL     1       6.975   0.881   2.642  0.00  0.00    -0.077 S 
ATOM     10  C   UNL     1       9.779   1.714   2.962  0.00  0.00    +0.043 C 
ATOM     11  C   UNL     1      10.763   1.799   4.138  0.00  0.00    +0.005 C 
ATOM     12  C   UNL     1      10.900   0.412   4.771  0.00  0.00    +0.005 C 
ATOM     13  C   UNL     1       9.605   0.039   5.496  0.00  0.00    +0.037 C 
BRANCH   6  14
ATOM     14  C   UNL     1       6.818  -1.214   5.872  0.00  0.00    +0.244 C 
ATOM     15  O   UNL     1       7.001  -2.416   5.814  0.00  0.00    -0.270 OA
ATOM     16  N   UNL     1       6.333  -0.660   7.001  0.00  0.00    -0.325 N 
ATOM     17  H   UNL     1       6.187   0.298   7.048  0.00  0.00    +0.145 HD
ATOM     18  H   UNL     1       6.130  -1.219   7.768  0.00  0.00    +0.145 HD
ENDBRANCH   6  14
ENDBRANCH   3   5
BRANCH   1  19
ATOM     19  C   UNL     1       2.642  -0.672   2.603  0.00  0.00    +0.328 C 
BRANCH  19  20
ATOM     20  O   UNL     1       2.014  -0.163   1.425  0.00  0.00    -0.454 OA
BRANCH  20  21
ATOM     21  C   UNL     1       0.731  -0.503   1.223  0.00  0.00    +0.328 C 
ATOM     22  O   UNL     1       0.161  -1.210   2.020  0.00  0.00    -0.249 OA
BRANCH  21  24
ATOM     23  C   UNL     1      -0.019   1.526   0.010  0.00  0.00    +0.040 C 
ATOM     24  C   UNL     1       0.002  -0.004   0.002  0.00  0.00    +0.189 C 
BRANCH  24  25
ATOM     25  N   UNL     1      -1.372  -0.511   0.012  0.00  0.00    -0.228 N 
ATOM     26  C   UNL     1      -2.262  -0.237   1.004  0.00  0.00    +0.226 C 
ATOM     27  O   UNL     1      -2.020   0.255   2.086  0.00  0.00    -0.275 OA
ATOM     28  C   UNL     1      -3.599  -0.664   0.489  0.00  0.00    +0.087 C 
ATOM     29  C   UNL     1      -4.631  -1.211   1.446  0.00  0.00    +0.013 C 
ATOM     30  C   UNL     1      -5.856  -1.605   0.599  0.00  0.00    +0.001 C 
ATOM     31  C   UNL     1      -5.497  -2.596  -0.502  0.00  0.00    +0.001 C 
ATOM     32  C   UNL     1      -4.328  -2.091  -1.372  0.00  0.00    +0.013 C 
ATOM     33  C   UNL     1      -3.171  -1.845  -0.433  0.00  0.00    +0.087 C 
ATOM     34  C   UNL     1      -1.885  -1.298  -0.972  0.00  0.00    +0.226 C 
ATOM     35  O   UNL     1      -1.399  -1.513  -2.062  0.00  0.00    -0.275 OA
ENDBRANCH  24  25
ENDBRANCH  21  24
ENDBRANCH  20  21
ENDBRANCH  19  20
ENDBRANCH   1  19
TORSDOF 7
