REMARK  Name = ZINC65182013
REMARK  9 active torsions:
REMARK  status: ('A' for Active; 'I' for Inactive)
REMARK    1  A    between atoms: C_1  and  C_2
REMARK    2  A    between atoms: C_6  and  C_8
REMARK    3  A    between atoms: N_10  and  C_11
REMARK    4  A    between atoms: N_10  and  C_12
REMARK    5  A    between atoms: C_12  and  C_13
REMARK    6  A    between atoms: C_13  and  C_14
REMARK    7  A    between atoms: C_17  and  C_20
REMARK    8  A    between atoms: C_26  and  O_30
REMARK    9  A    between atoms: O_30  and  C_31
REMARK                            x       y       z     vdW  Elec       q    Type
REMARK                         _______ _______ _______ _____ _____    ______ ____
ROOT
ATOM      1  C   UNL     1      -2.146  -5.585   5.239  0.00  0.00    +0.139 C 
ATOM      2  N   UNL     1      -1.262  -6.145   5.981  0.00  0.00    -0.072 NA
ATOM      3  O   UNL     1      -1.858  -6.748   7.115  0.00  0.00    -0.367 OA
ATOM      4  C   UNL     1      -3.269  -6.500   7.008  0.00  0.00    +0.318 C 
ATOM      5  N   UNL     1      -3.410  -5.729   5.762  0.00  0.00    -0.291 N 
ATOM      6  H   UNL     1      -4.235  -5.389   5.383  0.00  0.00    +0.151 HD
ENDROOT
BRANCH   4   7
ATOM      7  C   UNL     1      -3.761  -5.680   8.202  0.00  0.00    +0.165 C 
ATOM      8  C   UNL     1      -5.250  -5.444   8.094  0.00  0.00    +0.012 C 
ATOM      9  C   UNL     1      -5.802  -6.016   9.187  0.00  0.00    -0.004 A 
ATOM     10  C   UNL     1      -7.189  -6.128   9.656  0.00  0.00    +0.013 A 
ATOM     11  C   UNL     1      -7.440  -6.774  10.815  0.00  0.00    +0.046 A 
ATOM     12  C   UNL     1      -6.406  -7.342  11.583  0.00  0.00    +0.122 A 
ATOM     13  C   UNL     1      -5.102  -7.277  11.211  0.00  0.00    +0.071 A 
ATOM     14  C   UNL     1      -4.731  -6.622  10.011  0.00  0.00    +0.046 A 
ATOM     15  N   UNL     1      -3.559  -6.428   9.447  0.00  0.00    -0.373 N 
ATOM     16  H   UNL     1      -2.705  -6.730   9.795  0.00  0.00    +0.160 HD
BRANCH  12  17
ATOM     17  O   UNL     1      -6.724  -7.977  12.738  0.00  0.00    -0.495 OA
ATOM     18  C   UNL     1      -8.108  -8.023  13.093  0.00  0.00    +0.277 C 
ENDBRANCH  12  17
ENDBRANCH   4   7
BRANCH   1  19
ATOM     19  C   UNL     1      -1.838  -4.855   3.957  0.00  0.00    +0.094 C 
BRANCH  19  20
ATOM     20  C   UNL     1      -0.332  -4.900   3.694  0.00  0.00    +0.115 C 
BRANCH  20  23
ATOM     21  C   UNL     1       0.240  -2.871   2.473  0.00  0.00    +0.246 C 
ATOM     22  O   UNL     1       0.324  -2.288   3.536  0.00  0.00    -0.270 OA
ATOM     23  N   UNL     1      -0.032  -4.191   2.448  0.00  0.00    -0.300 N 
ATOM     24  C   UNL     1      -0.028  -4.915   1.175  0.00  0.00    +0.132 C 
BRANCH  21  30
ATOM     25  C   UNL     1      -0.431   1.238  -0.278  0.00  0.00    +0.044 C 
ATOM     26  C   UNL     1       0.116  -0.157  -0.121  0.00  0.00    -0.050 A 
ATOM     27  C   UNL     1       0.804  -0.750  -1.165  0.00  0.00    +0.003 A 
ATOM     28  C   UNL     1       1.310  -2.031  -1.028  0.00  0.00    +0.001 A 
ATOM     29  C   UNL     1       1.131  -2.725   0.150  0.00  0.00    +0.013 A 
ATOM     30  C   UNL     1       0.437  -2.133   1.207  0.00  0.00    +0.037 A 
ATOM     31  C   UNL     1      -0.066  -0.838   1.065  0.00  0.00    +0.016 A 
ENDBRANCH  21  30
ENDBRANCH  20  23
ENDBRANCH  19  20
ENDBRANCH   1  19
TORSDOF 6
