REMARK  Name = ZINC40342667
REMARK  9 active torsions:
REMARK  status: ('A' for Active; 'I' for Inactive)
REMARK    1  A    between atoms: C_1  and  C_2
REMARK    2  A    between atoms: C_2  and  O_3
REMARK    3  A    between atoms: O_3  and  C_4
REMARK    4  A    between atoms: C_8  and  C_10
REMARK    5  A    between atoms: C_13  and  C_29
REMARK    6  A    between atoms: N_20  and  C_21
REMARK    7  A    between atoms: C_21  and  C_22
REMARK    8  A    between atoms: C_22  and  C_23
REMARK    9  A    between atoms: C_23  and  N_24
REMARK                            x       y       z     vdW  Elec       q    Type
REMARK                         _______ _______ _______ _____ _____    ______ ____
ROOT
ATOM      1  C   UNL     1       2.275  -4.298   3.754  0.00  0.00    +0.141 C 
ATOM      2  C   UNL     1       3.657  -4.750   3.368  0.00  0.00    +0.035 A 
ATOM      3  C   UNL     1       4.879  -4.415   2.881  0.00  0.00    +0.072 A 
ATOM      4  N   UNL     1       5.618  -5.562   2.854  0.00  0.00    -0.276 N 
ATOM      5  N   UNL     1       4.915  -6.546   3.290  0.00  0.00    -0.168 NA
ATOM      6  H   UNL     1       6.537  -5.626   2.551  0.00  0.00    +0.189 HD
ATOM      7  C   UNL     1       3.708  -6.138   3.625  0.00  0.00    +0.153 A 
ATOM      8  C   UNL     1       2.395  -6.548   4.157  0.00  0.00    +0.268 C 
ATOM      9  O   UNL     1       2.103  -7.683   4.482  0.00  0.00    -0.268 OA
ATOM     10  N   UNL     1       1.568  -5.491   4.233  0.00  0.00    -0.285 N 
ENDROOT
BRANCH   3  11
ATOM     11  C   UNL     1       5.324  -3.067   2.461  0.00  0.00    +0.000 A 
ATOM     12  C   UNL     1       4.494  -2.268   1.675  0.00  0.00    +0.011 A 
ATOM     13  C   UNL     1       4.914  -1.013   1.287  0.00  0.00    +0.020 A 
ATOM     14  C   UNL     1       6.158  -0.546   1.675  0.00  0.00    +0.041 A 
ATOM     15  C   UNL     1       6.987  -1.334   2.455  0.00  0.00    +0.020 A 
ATOM     16  C   UNL     1       6.574  -2.588   2.855  0.00  0.00    +0.011 A 
ATOM     17 CL   UNL     1       6.680   1.035   1.181  0.00  0.00    -0.084 Cl
ENDBRANCH   3  11
BRANCH   1  22
ATOM     18  C   UNL     1       0.802  -1.824   1.306  0.00  0.00    +0.121 A 
ATOM     19  C   UNL     1       0.260  -2.673   0.351  0.00  0.00    +0.045 A 
ATOM     20  C   UNL     1       0.372  -4.041   0.501  0.00  0.00    +0.004 A 
ATOM     21  C   UNL     1       1.024  -4.566   1.602  0.00  0.00    +0.006 A 
ATOM     22  C   UNL     1       1.565  -3.723   2.555  0.00  0.00    -0.019 A 
ATOM     23  C   UNL     1       1.460  -2.353   2.406  0.00  0.00    +0.051 A 
BRANCH  18  24
ATOM     24  O   UNL     1       0.693  -0.477   1.160  0.00  0.00    -0.492 OA
BRANCH  24  26
ATOM     25  C   UNL     1      -0.019   1.526   0.010  0.00  0.00    +0.048 C 
ATOM     26  C   UNL     1       0.002  -0.004   0.002  0.00  0.00    +0.225 C 
ENDBRANCH  24  26
ENDBRANCH  18  24
ENDBRANCH   1  22
BRANCH  10  27
ATOM     27  C   UNL     1       0.185  -5.524   4.717  0.00  0.00    +0.111 C 
BRANCH  27  28
ATOM     28  C   UNL     1      -0.759  -5.800   3.545  0.00  0.00    +0.040 C 
BRANCH  28  29
ATOM     29  C   UNL     1      -2.203  -5.834   4.050  0.00  0.00    +0.124 C 
BRANCH  29  30
ATOM     30  N   UNL     1      -3.106  -6.099   2.928  0.00  0.00    -0.338 N 
ATOM     31  C   UNL     1      -3.692  -5.163   2.119  0.00  0.00    +0.104 A 
ATOM     32  C   UNL     1      -4.440  -5.835   1.223  0.00  0.00    +0.101 A 
ATOM     33  N   UNL     1      -4.313  -7.146   1.478  0.00  0.00    -0.352 N 
ATOM     34  C   UNL     1      -3.512  -7.312   2.494  0.00  0.00    +0.173 A 
ATOM     35  H   UNL     1      -4.746  -7.859   0.982  0.00  0.00    +0.166 HD
ENDBRANCH  29  30
ENDBRANCH  28  29
ENDBRANCH  27  28
ENDBRANCH  10  27
TORSDOF 8
