REMARK  Name = ZINC63405482
REMARK  4 active torsions:
REMARK  status: ('A' for Active; 'I' for Inactive)
REMARK    1  A    between atoms: C_6  and  O_27
REMARK    2  A    between atoms: C_7  and  C_11
REMARK    3  A    between atoms: C_16  and  C_19
REMARK    4  A    between atoms: C_22  and  C_24
REMARK                            x       y       z     vdW  Elec       q    Type
REMARK                         _______ _______ _______ _____ _____    ______ ____
ROOT
ATOM      1  C   UNL     1       2.578  -4.197  -0.044  0.00  0.00    +0.253 C 
ATOM      2  O   UNL     1       3.656  -4.760  -0.057  0.00  0.00    -0.270 OA
ATOM      3  N   UNL     1       1.440  -4.919  -0.037  0.00  0.00    -0.261 N 
ATOM      4  C   UNL     1       1.499  -6.304  -0.045  0.00  0.00    +0.165 A 
ATOM      5  N   UNL     1       0.511  -7.176  -0.045  0.00  0.00    -0.225 NA
ATOM      6  C   UNL     1       0.743  -8.489  -0.053  0.00  0.00    +0.078 A 
ATOM      7  C   UNL     1       2.061  -8.930  -0.061  0.00  0.00    +0.076 A 
ATOM      8  S   UNL     1       2.933  -7.370  -0.064  0.00  0.00    -0.060 S 
ATOM      9  H   UNL     1       0.581  -4.470  -0.027  0.00  0.00    +0.157 HD
ENDROOT
BRANCH   1  16
ATOM     10  C   UNL     1      -0.016   1.356   0.009  0.00  0.00    +0.001 A 
ATOM     11  C   UNL     1       1.169   2.090   0.002  0.00  0.00    +0.001 A 
ATOM     12  C   UNL     1       2.379   1.467  -0.013  0.00  0.00    +0.008 A 
ATOM     13  C   UNL     1       2.440   0.063  -0.021  0.00  0.00    -0.014 A 
ATOM     14  C   UNL     1       3.675  -0.607  -0.036  0.00  0.00    +0.054 A 
ATOM     15  C   UNL     1       3.711  -1.970  -0.043  0.00  0.00    +0.130 A 
ATOM     16  C   UNL     1       2.516  -2.723  -0.036  0.00  0.00    +0.079 A 
ATOM     17  C   UNL     1       1.286  -2.085  -0.021  0.00  0.00    +0.025 A 
ATOM     18  C   UNL     1       1.234  -0.684  -0.013  0.00  0.00    -0.017 A 
ATOM     19  C   UNL     1       0.002  -0.004   0.002  0.00  0.00    +0.008 A 
BRANCH  15  20
ATOM     20  O   UNL     1       4.907  -2.611  -0.058  0.00  0.00    -0.506 OA
ATOM     21  H   UNL     1       5.263  -2.801   0.821  0.00  0.00    +0.292 HD
ENDBRANCH  15  20
ENDBRANCH   1  16
BRANCH   6  22
ATOM     22  C   UNL     1      -0.365  -9.445  -0.053  0.00  0.00    +0.003 C 
ATOM     23  C   UNL     1      -0.290 -10.804  -0.054  0.00  0.00    +0.117 C 
ATOM     24  N   UNL     1      -1.487 -11.373  -0.053  0.00  0.00    -0.254 NA
ATOM     25  C   UNL     1      -2.477 -10.520  -0.052  0.00  0.00    +0.107 C 
ATOM     26  C   UNL     1      -1.852  -9.138  -0.046  0.00  0.00    +0.099 C 
BRANCH  25  27
ATOM     27  C   UNL     1      -3.906 -10.837  -0.051  0.00  0.00    +0.256 C 
ATOM     28  O   UNL     1      -4.729  -9.939  -0.050  0.00  0.00    -0.269 OA
ATOM     29  N   UNL     1      -4.312 -12.122  -0.051  0.00  0.00    -0.324 N 
ATOM     30  H   UNL     1      -3.657 -12.837  -0.052  0.00  0.00    +0.145 HD
ATOM     31  H   UNL     1      -5.259 -12.332  -0.051  0.00  0.00    +0.145 HD
ENDBRANCH  25  27
ENDBRANCH   6  22
TORSDOF 4
