REMARK  Name = ZINC39663752
REMARK  13 active torsions:
REMARK  status: ('A' for Active; 'I' for Inactive)
REMARK    1  A    between atoms: C_1  and  C_2
REMARK    2  A    between atoms: C_2  and  C_3
REMARK    3  A    between atoms: C_3  and  C_5
REMARK    4  A    between atoms: C_3  and  C_6
REMARK    5  A    between atoms: C_10  and  C_19
REMARK    6  A    between atoms: N_21  and  C_22
REMARK    7  A    between atoms: C_22  and  C_23
REMARK    8  A    between atoms: C_23  and  C_25
REMARK    9  A    between atoms: C_23  and  N_33
REMARK   10  A    between atoms: C_28  and  O_31
REMARK   11  A    between atoms: O_31  and  C_32
REMARK   12  A    between atoms: N_33  and  C_34
REMARK   13  A    between atoms: N_33  and  C_35
REMARK                            x       y       z     vdW  Elec       q    Type
REMARK                         _______ _______ _______ _____ _____    ______ ____
ROOT
ATOM      1  C   UNL     1      -0.760  -2.130   1.979  0.00  0.00    +0.218 C 
ATOM      2  O   UNL     1      -1.517  -2.766   1.277  0.00  0.00    -0.275 OA
ATOM      3  N   UNL     1      -0.029  -2.756   2.922  0.00  0.00    -0.300 N 
ATOM      4  C   UNL     1       0.936  -2.154   3.872  0.00  0.00    +0.121 C 
ATOM      5  C   UNL     1       0.702  -2.910   5.199  0.00  0.00    +0.100 C 
ATOM      6  C   UNL     1       0.084  -4.255   4.780  0.00  0.00    -0.004 C 
ATOM      7  C   UNL     1      -0.013  -4.202   3.249  0.00  0.00    +0.115 C 
ATOM      8  C   UNL     1      -1.308  -4.408   5.386  0.00  0.00    -0.010 C 
ATOM      9  C   UNL     1      -1.879  -5.776   5.003  0.00  0.00    -0.082 C 
ATOM     10  N   UNL     1      -0.989  -6.835   5.496  0.00  0.00    +0.379 N 
ATOM     11  C   UNL     1       0.319  -6.736   4.838  0.00  0.00    -0.082 C 
ATOM     12  C   UNL     1       0.983  -5.408   5.214  0.00  0.00    -0.010 C 
ATOM     13  H   UNL     1      -0.871  -6.736   6.493  0.00  0.00    -0.086 HD
ATOM     14  H   UNL     1      -1.398  -7.735   5.295  0.00  0.00    -0.086 HD
ENDROOT
BRANCH   5  15
ATOM     15  C   UNL     1       2.010  -3.132   5.914  0.00  0.00    +0.218 C 
ATOM     16  O   UNL     1       3.034  -3.268   5.278  0.00  0.00    -0.275 OA
ATOM     17  N   UNL     1       2.042  -3.178   7.261  0.00  0.00    -0.316 N 
ATOM     18  H   UNL     1       1.224  -3.069   7.770  0.00  0.00    +0.149 HD
BRANCH  17  19
ATOM     19  C   UNL     1       3.314  -3.394   7.956  0.00  0.00    +0.093 C 
BRANCH  19  20
ATOM     20  C   UNL     1       3.057  -3.527   9.459  0.00  0.00    -0.021 C 
BRANCH  20  21
ATOM     21  C   UNL     1       2.229  -4.758   9.720  0.00  0.00    -0.059 A 
ATOM     22  C   UNL     1       2.833  -6.002   9.752  0.00  0.00    +0.005 A 
ATOM     23  C   UNL     1       2.075  -7.133   9.991  0.00  0.00    +0.046 A 
ATOM     24  C   UNL     1       0.708  -7.019  10.198  0.00  0.00    +0.120 A 
ATOM     25  C   UNL     1       0.105  -5.771  10.165  0.00  0.00    +0.046 A 
ATOM     26  C   UNL     1       0.867  -4.643   9.931  0.00  0.00    +0.005 A 
BRANCH  24  27
ATOM     27  O   UNL     1      -0.039  -8.130  10.433  0.00  0.00    -0.495 OA
ATOM     28  C   UNL     1      -1.440  -7.938  10.637  0.00  0.00    +0.277 C 
ENDBRANCH  24  27
ENDBRANCH  20  21
BRANCH  20  29
ATOM     29  N   UNL     1       4.339  -3.640  10.166  0.00  0.00    +0.382 N 
ATOM     30  C   UNL     1       5.129  -2.421   9.946  0.00  0.00    -0.096 C 
ATOM     31  C   UNL     1       4.092  -3.810  11.604  0.00  0.00    -0.096 C 
ATOM     32  H   UNL     1       4.848  -4.438   9.816  0.00  0.00    -0.082 HD
ENDBRANCH  20  29
ENDBRANCH  19  20
ENDBRANCH  17  19
ENDBRANCH   5  15
BRANCH   1  33
ATOM     33  C   UNL     1      -0.637  -0.639   1.797  0.00  0.00    +0.072 C 
ATOM     34  C   UNL     1       0.808  -0.287   1.439  0.00  0.00    +0.017 C 
BRANCH  33  36
ATOM     35  C   UNL     1      -1.535   1.342   0.568  0.00  0.00    +0.004 C 
ATOM     36  C   UNL     1      -1.567  -0.184   0.670  0.00  0.00    +0.009 C 
ENDBRANCH  33  36
ENDBRANCH   1  33
TORSDOF 8
