REMARK  Name = ZINC36021279
REMARK  11 active torsions:
REMARK  status: ('A' for Active; 'I' for Inactive)
REMARK    1  A    between atoms: C_1  and  C_2
REMARK    2  A    between atoms: C_3  and  C_14
REMARK    3  A    between atoms: C_4  and  C_13
REMARK    4  A    between atoms: N_5  and  C_7
REMARK    5  A    between atoms: N_21  and  C_22
REMARK    6  A    between atoms: C_22  and  C_23
REMARK    7  A    between atoms: N_25  and  C_26
REMARK    8  A    between atoms: C_26  and  C_28
REMARK    9  A    between atoms: C_26  and  C_34
REMARK   10  A    between atoms: C_34  and  C_35
REMARK   11  A    between atoms: C_34  and  C_36
REMARK                            x       y       z     vdW  Elec       q    Type
REMARK                         _______ _______ _______ _____ _____    ______ ____
ROOT
ATOM      1  C   UNL     1       0.122  -0.382  -2.577  0.00  0.00    +0.054 C 
ATOM      2  C   UNL     1       1.557  -0.219  -2.992  0.00  0.00    +0.204 C 
ATOM      3  O   UNL     1       2.363  -1.054  -2.640  0.00  0.00    -0.277 OA
ATOM      4  N   UNL     1       1.981   0.810  -3.734  0.00  0.00    -0.318 N 
ATOM      5  C   UNL     1       1.090   1.878  -4.182  0.00  0.00    +0.085 C 
ATOM      6  C   UNL     1      -0.366   1.423  -4.067  0.00  0.00    -0.058 C 
ATOM      7  N   UNL     1      -0.589   0.895  -2.713  0.00  0.00    +0.397 N 
ATOM      8  H   UNL     1       2.917   0.849  -3.985  0.00  0.00    +0.149 HD
ATOM      9  H   UNL     1      -0.239   1.551  -2.031  0.00  0.00    -0.079 HD
ENDROOT
BRANCH   1  12
ATOM     10  C   UNL     1      -0.600  -3.299  -1.571  0.00  0.00    +0.068 C 
ATOM     11  C   UNL     1      -0.252  -2.123  -0.696  0.00  0.00    +0.063 A 
ATOM     12  C   UNL     1       0.066  -0.835  -1.141  0.00  0.00    -0.009 A 
ATOM     13  C   UNL     1       0.314  -0.068  -0.054  0.00  0.00    +0.044 A 
ATOM     14  N   UNL     1       0.159  -0.845   1.042  0.00  0.00    -0.237 N 
ATOM     15  N   UNL     1      -0.202  -2.129   0.612  0.00  0.00    -0.171 NA
ATOM     16  C   UNL     1       0.696   1.390  -0.063  0.00  0.00    +0.066 C 
BRANCH  14  17
ATOM     17  C   UNL     1       0.325  -0.437   2.373  0.00  0.00    +0.066 A 
ATOM     18  C   UNL     1      -0.169   0.792   2.790  0.00  0.00    +0.028 A 
ATOM     19  C   UNL     1      -0.004   1.191   4.102  0.00  0.00    +0.002 A 
ATOM     20  C   UNL     1       0.653   0.369   4.999  0.00  0.00    +0.000 A 
ATOM     21  C   UNL     1       1.146  -0.855   4.586  0.00  0.00    +0.002 A 
ATOM     22  C   UNL     1       0.979  -1.263   3.277  0.00  0.00    +0.028 A 
ENDBRANCH  14  17
ENDBRANCH   1  12
BRANCH   7  23
ATOM     23  C   UNL     1      -2.027   0.682  -2.502  0.00  0.00    +0.020 C 
BRANCH  23  24
ATOM     24  C   UNL     1      -2.740   2.010  -2.520  0.00  0.00    +0.197 C 
ATOM     25  O   UNL     1      -2.111   3.033  -2.692  0.00  0.00    -0.278 OA
ATOM     26  N   UNL     1      -4.075   2.061  -2.345  0.00  0.00    -0.310 N 
ATOM     27  H   UNL     1      -4.578   1.243  -2.208  0.00  0.00    +0.149 HD
BRANCH  26  28
ATOM     28  C   UNL     1      -4.768   3.352  -2.363  0.00  0.00    +0.106 C 
BRANCH  28  29
ATOM     29  C   UNL     1      -6.206   3.145  -2.760  0.00  0.00    -0.027 A 
ATOM     30  C   UNL     1      -6.909   2.059  -2.272  0.00  0.00    +0.005 A 
ATOM     31  C   UNL     1      -8.229   1.869  -2.637  0.00  0.00    +0.000 A 
ATOM     32  C   UNL     1      -8.846   2.765  -3.489  0.00  0.00    +0.000 A 
ATOM     33  C   UNL     1      -8.144   3.852  -3.976  0.00  0.00    +0.000 A 
ATOM     34  C   UNL     1      -6.825   4.044  -3.608  0.00  0.00    +0.005 A 
ENDBRANCH  28  29
BRANCH  28  35
ATOM     35  C   UNL     1      -4.709   3.981  -0.970  0.00  0.00    +0.008 C 
ATOM     36  C   UNL     1      -3.248   4.191  -0.566  0.00  0.00    +0.009 C 
ATOM     37  C   UNL     1      -5.432   5.329  -0.988  0.00  0.00    +0.009 C 
ENDBRANCH  28  35
ENDBRANCH  26  28
ENDBRANCH  23  24
ENDBRANCH   7  23
TORSDOF 7
