REMARK  Name = ZINC13769675
REMARK  5 active torsions:
REMARK  status: ('A' for Active; 'I' for Inactive)
REMARK    1  A    between atoms: C_1  and  C_2
REMARK    2  A    between atoms: N_5  and  C_7
REMARK    3  A    between atoms: N_17  and  C_20
REMARK    4  A    between atoms: C_20  and  C_21
REMARK    5  A    between atoms: C_26  and  C_28
REMARK                            x       y       z     vdW  Elec       q    Type
REMARK                         _______ _______ _______ _____ _____    ______ ____
ROOT
ATOM      1  C   UNL     1       4.786   6.926  -5.909  0.00  0.00    +0.068 C 
ATOM      2  C   UNL     1       4.797   5.493  -6.376  0.00  0.00    +0.068 A 
ATOM      3  C   UNL     1       4.666   4.373  -5.566  0.00  0.00    +0.049 A 
ATOM      4  C   UNL     1       4.725   3.264  -6.363  0.00  0.00    +0.230 A 
ATOM      5  N   UNL     1       4.890   3.687  -7.635  0.00  0.00    -0.200 N 
ATOM      6  N   UNL     1       4.932   5.090  -7.617  0.00  0.00    -0.168 NA
ATOM      7  O   UNL     1       4.627   2.006  -5.871  0.00  0.00    -0.419 OA
ATOM      8  C   UNL     1       4.164   1.848  -4.605  0.00  0.00    +0.231 A 
ATOM      9  C   UNL     1       4.073   2.879  -3.721  0.00  0.00    +0.066 A 
ATOM     10  C   UNL     1       3.567   2.624  -2.423  0.00  0.00    +0.115 A 
ATOM     11  N   UNL     1       3.197   1.333  -2.103  0.00  0.00    -0.311 N 
ATOM     12  C   UNL     1       3.319   0.358  -3.039  0.00  0.00    +0.205 A 
ATOM     13  N   UNL     1       3.781   0.611  -4.228  0.00  0.00    -0.202 NA
ATOM     14  C   UNL     1       4.486   4.287  -4.074  0.00  0.00    +0.095 C 
ATOM     15  H   UNL     1       3.125   3.507  -0.627  0.00  0.00    +0.157 HD
ATOM     16  N   UNL     1       3.481   3.655  -1.572  0.00  0.00    -0.384 N 
ATOM     17  H   UNL     1       3.772   4.593  -1.870  0.00  0.00    +0.157 HD
ENDROOT
BRANCH   5  18
ATOM     18  C   UNL     1       4.999   2.871  -8.770  0.00  0.00    +0.069 A 
ATOM     19  C   UNL     1       5.650   1.647  -8.687  0.00  0.00    +0.028 A 
ATOM     20  C   UNL     1       5.752   0.844  -9.806  0.00  0.00    +0.002 A 
ATOM     21  C   UNL     1       5.216   1.262 -11.010  0.00  0.00    +0.000 A 
ATOM     22  C   UNL     1       4.571   2.482 -11.097  0.00  0.00    +0.002 A 
ATOM     23  C   UNL     1       4.462   3.288  -9.980  0.00  0.00    +0.028 A 
ENDBRANCH   5  18
BRANCH  14  24
ATOM     24  C   UNL     1       5.786   4.620  -3.387  0.00  0.00    -0.035 A 
ATOM     25  C   UNL     1       6.915   3.864  -3.642  0.00  0.00    +0.004 A 
ATOM     26  C   UNL     1       8.108   4.172  -3.015  0.00  0.00    +0.000 A 
ATOM     27  C   UNL     1       8.170   5.230  -2.128  0.00  0.00    +0.000 A 
ATOM     28  C   UNL     1       7.040   5.982  -1.869  0.00  0.00    +0.000 A 
ATOM     29  C   UNL     1       5.847   5.677  -2.499  0.00  0.00    +0.004 A 
ENDBRANCH  14  24
BRANCH  11  30
ATOM     30  C   UNL     1       2.673   1.022  -0.772  0.00  0.00    +0.198 C 
BRANCH  30  31
ATOM     31  C   UNL     1       1.193   1.304  -0.736  0.00  0.00    +0.124 A 
ATOM     32  C   UNL     1       0.217   0.427  -1.036  0.00  0.00    +0.046 A 
ATOM     33  C   UNL     1      -1.010   1.110  -0.877  0.00  0.00    +0.041 A 
ATOM     34  C   UNL     1      -0.712   2.360  -0.479  0.00  0.00    +0.195 A 
ATOM     35  O   UNL     1       0.624   2.473  -0.399  0.00  0.00    -0.466 OA
ENDBRANCH  30  31
ENDBRANCH  11  30
TORSDOF 4
