REMARK  Name = ZINC13725022
REMARK  3 active torsions:
REMARK  status: ('A' for Active; 'I' for Inactive)
REMARK    1  A    between atoms: C_1  and  C_2
REMARK    2  A    between atoms: C_3  and  C_13
REMARK    3  A    between atoms: C_5  and  C_7
REMARK                            x       y       z     vdW  Elec       q    Type
REMARK                         _______ _______ _______ _____ _____    ______ ____
ROOT
ATOM      1  C   UNL     1      -0.008  -0.258  -2.570  0.00  0.00    +0.258 C 
ATOM      2  O   UNL     1      -0.025   0.935  -2.807  0.00  0.00    -0.269 OA
ATOM      3  N   UNL     1      -0.001  -1.146  -3.584  0.00  0.00    -0.260 N 
ATOM      4  C   UNL     1      -0.013  -0.700  -4.894  0.00  0.00    +0.166 A 
ATOM      5  N   UNL     1      -0.027   0.533  -5.344  0.00  0.00    -0.225 NA
ATOM      6  C   UNL     1      -0.038   0.824  -6.663  0.00  0.00    +0.080 A 
ATOM      7  C   UNL     1      -0.053   2.099  -7.276  0.00  0.00    +0.029 A 
ATOM      8  C   UNL     1      -0.064   2.220  -8.640  0.00  0.00    +0.002 A 
ATOM      9  C   UNL     1      -0.060   1.105  -9.467  0.00  0.00    +0.001 A 
ATOM     10  C   UNL     1      -0.044  -0.157  -8.902  0.00  0.00    +0.017 A 
ATOM     11  C   UNL     1      -0.034  -0.288  -7.536  0.00  0.00    +0.041 A 
ATOM     12  S   UNL     1      -0.008  -1.657  -6.404  0.00  0.00    -0.052 S 
ATOM     13  H   UNL     1       0.014  -2.098  -3.396  0.00  0.00    +0.157 HD
ENDROOT
BRANCH   1  16
ATOM     14  C   UNL     1      -0.018   1.503   0.010  0.00  0.00    +0.067 C 
ATOM     15  C   UNL     1       0.002  -0.004   0.002  0.00  0.00    +0.058 A 
ATOM     16  C   UNL     1       0.006  -0.730  -1.183  0.00  0.00    +0.097 A 
ATOM     17  S   UNL     1       0.032  -2.398  -0.546  0.00  0.00    -0.062 S 
ATOM     18  C   UNL     1       0.035  -2.021   1.094  0.00  0.00    +0.109 A 
ATOM     19  N   UNL     1       0.022  -0.699   1.109  0.00  0.00    -0.243 NA
BRANCH  18  20
ATOM     20  C   UNL     1       0.052  -2.948   2.245  0.00  0.00    +0.007 A 
ATOM     21  C   UNL     1       0.046  -2.447   3.549  0.00  0.00    +0.010 A 
ATOM     22  C   UNL     1       0.062  -3.318   4.619  0.00  0.00    +0.001 A 
ATOM     23  C   UNL     1       0.084  -4.684   4.402  0.00  0.00    +0.000 A 
ATOM     24  C   UNL     1       0.091  -5.187   3.114  0.00  0.00    +0.001 A 
ATOM     25  C   UNL     1       0.070  -4.328   2.034  0.00  0.00    +0.010 A 
ENDBRANCH  18  20
ENDBRANCH   1  16
TORSDOF 2
