REMARK  Name = ZINC13065238
REMARK  14 active torsions:
REMARK  status: ('A' for Active; 'I' for Inactive)
REMARK    1  A    between atoms: C_1  and  C_2
REMARK    2  A    between atoms: C_2  and  C_3
REMARK    3  A    between atoms: C_3  and  C_5
REMARK    4  A    between atoms: C_3  and  N_73
REMARK    5  A    between atoms: N_9  and  C_10
REMARK    6  A    between atoms: C_10  and  C_11
REMARK    7  A    between atoms: C_17  and  C_18
REMARK    8  A    between atoms: C_17  and  N_73
REMARK    9  A    between atoms: C_23  and  O_24
REMARK   10  A    between atoms: O_24  and  C_25
REMARK   11  A    between atoms: C_26  and  C_27
REMARK   12  A    between atoms: C_26  and  N_73
REMARK   13  A    between atoms: C_30  and  C_40
REMARK   14  A    between atoms: C_33  and  C_39
REMARK                            x       y       z     vdW  Elec       q    Type
REMARK                         _______ _______ _______ _____ _____    ______ ____
ROOT
ATOM      1  N   UNL     1       6.134   2.106  -2.150  0.00  0.00    +0.392 N 
ATOM      2  H   UNL     1       6.830   2.776  -1.804  0.00  0.00    -0.080 HD
ENDROOT
BRANCH   1   3
ATOM      3  C   UNL     1       4.844   2.362  -1.474  0.00  0.00    +0.003 C 
BRANCH   3   4
ATOM      4  C   UNL     1       3.845   1.288  -1.819  0.00  0.00    +0.138 A 
ATOM      5  N   UNL     1       4.045  -0.007  -1.788  0.00  0.00    -0.115 NA
ATOM      6  N   UNL     1       2.954  -0.587  -2.155  0.00  0.00    -0.023 NA
ATOM      7  N   UNL     1       2.062   0.304  -2.415  0.00  0.00    -0.044 NA
ATOM      8  N   UNL     1       2.572   1.473  -2.217  0.00  0.00    -0.226 N 
BRANCH   8   9
ATOM      9  C   UNL     1       1.895   2.760  -2.397  0.00  0.00    +0.182 C 
BRANCH   9  10
ATOM     10  C   UNL     1       1.228   3.161  -1.106  0.00  0.00    -0.026 A 
ATOM     11  C   UNL     1       1.919   3.917  -0.177  0.00  0.00    +0.005 A 
ATOM     12  C   UNL     1       1.308   4.285   1.006  0.00  0.00    +0.000 A 
ATOM     13  C   UNL     1       0.007   3.893   1.264  0.00  0.00    +0.000 A 
ATOM     14  C   UNL     1      -0.685   3.142   0.333  0.00  0.00    +0.000 A 
ATOM     15  C   UNL     1      -0.074   2.774  -0.851  0.00  0.00    +0.005 A 
ENDBRANCH   9  10
ENDBRANCH   8   9
ENDBRANCH   3   4
BRANCH   3  17
ATOM     16  C   UNL     1       6.013   3.530   0.400  0.00  0.00    +0.002 C 
ATOM     17  C   UNL     1       5.074   2.377   0.038  0.00  0.00    -0.011 C 
ENDBRANCH   3  17
ENDBRANCH   1   3
BRANCH   1  18
ATOM     18  C   UNL     1       5.982   2.280  -3.610  0.00  0.00    -0.038 C 
BRANCH  18  19
ATOM     19  C   UNL     1       5.695   3.731  -3.899  0.00  0.00    -0.022 A 
ATOM     20  C   UNL     1       4.433   4.118  -4.307  0.00  0.00    +0.005 A 
ATOM     21  C   UNL     1       4.168   5.450  -4.567  0.00  0.00    +0.000 A 
ATOM     22  C   UNL     1       5.167   6.396  -4.431  0.00  0.00    +0.004 A 
ATOM     23  C   UNL     1       6.432   6.013  -4.029  0.00  0.00    +0.046 A 
ATOM     24  C   UNL     1       6.699   4.678  -3.761  0.00  0.00    +0.121 A 
BRANCH  24  25
ATOM     25  O   UNL     1       7.943   4.300  -3.366  0.00  0.00    -0.495 OA
ATOM     26  C   UNL     1       8.927   5.329  -3.246  0.00  0.00    +0.277 C 
ENDBRANCH  24  25
ENDBRANCH  18  19
ENDBRANCH   1  18
BRANCH   1  27
ATOM     27  C   UNL     1       6.597   0.735  -1.851  0.00  0.00    -0.036 C 
BRANCH  27  28
ATOM     28  C   UNL     1       8.055   0.625  -2.219  0.00  0.00    +0.001 A 
ATOM     29  C   UNL     1       9.007   0.837  -1.277  0.00  0.00    +0.017 A 
ATOM     30  C   UNL     1      10.414   0.719  -1.666  0.00  0.00    +0.002 A 
ATOM     31  C   UNL     1      11.440   0.920  -0.738  0.00  0.00    -0.041 A 
ATOM     32  C   UNL     1      12.743   0.806  -1.133  0.00  0.00    +0.004 A 
ATOM     33  C   UNL     1      13.057   0.493  -2.449  0.00  0.00    +0.005 A 
ATOM     34  C   UNL     1      12.062   0.291  -3.381  0.00  0.00    -0.026 A 
ATOM     35  C   UNL     1      10.728   0.401  -3.001  0.00  0.00    +0.052 A 
ATOM     36  N   UNL     1       9.712   0.203  -3.912  0.00  0.00    -0.322 N 
ATOM     37  H   UNL     1       9.931  -0.016  -4.831  0.00  0.00    +0.169 HD
ATOM     38  C   UNL     1       8.423   0.309  -3.544  0.00  0.00    +0.251 A 
ATOM     39  O   UNL     1       7.551   0.128  -4.376  0.00  0.00    -0.268 OA
ATOM     40  C   UNL     1      12.417  -0.049  -4.805  0.00  0.00    +0.046 C 
ATOM     41  C   UNL     1      11.111   1.260   0.693  0.00  0.00    +0.044 C 
ENDBRANCH  27  28
ENDBRANCH   1  27
TORSDOF 10
