REMARK  Name = ZINC67586185
REMARK  3 active torsions:
REMARK  status: ('A' for Active; 'I' for Inactive)
REMARK    1  A    between atoms: C_2  and  C_13
REMARK    2  A    between atoms: C_13  and  N_14
REMARK    3  A    between atoms: C_21  and  C_23
REMARK                            x       y       z     vdW  Elec       q    Type
REMARK                         _______ _______ _______ _____ _____    ______ ____
ROOT
ATOM      1  N   UNL     1       1.167   4.070   1.395  0.00  0.00    -0.295 N 
ATOM      2  C   UNL     1       1.155   5.394   1.648  0.00  0.00    +0.306 C 
ATOM      3  O   UNL     1       1.137   6.189   0.729  0.00  0.00    -0.252 OA
ATOM      4  N   UNL     1       1.162   5.836   2.921  0.00  0.00    -0.247 N 
ATOM      5  C   UNL     1       1.150   7.202   3.183  0.00  0.00    +0.189 A 
ATOM      6  N   UNL     1       1.125   8.211   2.335  0.00  0.00    -0.125 NA
ATOM      7  N   UNL     1       1.115   9.412   2.727  0.00  0.00    -0.139 NA
ATOM      8  C   UNL     1       1.131   9.665   4.020  0.00  0.00    +0.169 A 
ATOM      9  S   UNL     1       1.155   8.000   4.668  0.00  0.00    -0.030 S 
ATOM     10  H   UNL     1       1.181   3.436   2.128  0.00  0.00    +0.151 HD
ATOM     11  H   UNL     1       1.176   5.202   3.655  0.00  0.00    +0.158 HD
ENDROOT
BRANCH   8  12
ATOM     12  C   UNL     1       1.127  10.986   4.747  0.00  0.00    +0.398 C 
ATOM     13  F   UNL     1       0.444  11.937   3.981  0.00  0.00    -0.202 F 
ATOM     14  F   UNL     1       0.487  10.835   5.982  0.00  0.00    -0.202 F 
ENDBRANCH   8  12
BRANCH   1  15
ATOM     15  C   UNL     1       1.159   3.590   0.011  0.00  0.00    +0.141 C 
BRANCH  15  17
ATOM     16  C   UNL     1      -0.017   1.380   0.010  0.00  0.00    +0.054 A 
ATOM     17  C   UNL     1       1.175   2.083   0.002  0.00  0.00    -0.025 A 
ATOM     18  C   UNL     1       2.381   1.407  -0.014  0.00  0.00    +0.029 A 
ATOM     19  C   UNL     1       2.404   0.023  -0.022  0.00  0.00    +0.086 A 
ATOM     20  C   UNL     1       1.212  -0.683  -0.013  0.00  0.00    +0.180 A 
ATOM     21  C   UNL     1       0.002  -0.004   0.002  0.00  0.00    +0.164 A 
ATOM     22  O   UNL     1      -1.167  -0.709   0.010  0.00  0.00    -0.488 OA
ATOM     23  C   UNL     1      -1.468  -1.433  -1.184  0.00  0.00    +0.232 C 
ATOM     24  C   UNL     1      -0.780  -2.789  -1.181  0.00  0.00    +0.082 C 
ATOM     25  C   UNL     1       0.736  -2.670  -1.212  0.00  0.00    +0.232 C 
ATOM     26  O   UNL     1       1.220  -2.048  -0.020  0.00  0.00    -0.487 OA
ATOM     27 CL   UNL     1       3.919  -0.824  -0.042  0.00  0.00    -0.080 Cl
ENDBRANCH  15  17
ENDBRANCH   1  15
TORSDOF 3
