REMARK  Name = ZINC05574869
REMARK  7 active torsions:
REMARK  status: ('A' for Active; 'I' for Inactive)
REMARK    1  A    between atoms: C_1  and  C_2
REMARK    2  A    between atoms: C_2  and  O_3
REMARK    3  A    between atoms: O_3  and  C_4
REMARK    4  A    between atoms: C_11  and  N_13
REMARK    5  A    between atoms: C_15  and  C_18
REMARK    6  A    between atoms: C_18  and  C_19
REMARK    7  A    between atoms: C_19  and  C_20
REMARK                            x       y       z     vdW  Elec       q    Type
REMARK                         _______ _______ _______ _____ _____    ______ ____
ROOT
ATOM      1  C   UNL     1       0.486  -1.824   1.565  0.00  0.00    +0.406 C 
ATOM      2  O   UNL     1      -0.276  -2.575   0.989  0.00  0.00    -0.226 OA
ATOM      3  N   UNL     1       1.441  -2.324   2.374  0.00  0.00    -0.237 N 
ATOM      4  C   UNL     1       1.502  -3.695   2.616  0.00  0.00    +0.108 A 
ATOM      5  C   UNL     1       0.979  -4.579   1.679  0.00  0.00    +0.067 A 
ATOM      6  C   UNL     1       1.050  -5.937   1.933  0.00  0.00    +0.060 A 
ATOM      7  C   UNL     1       1.649  -6.380   3.125  0.00  0.00    +0.122 A 
ATOM      8  C   UNL     1       2.149  -5.428   4.019  0.00  0.00    +0.123 A 
ATOM      9  N   UNL     1       2.063  -4.136   3.733  0.00  0.00    -0.330 N 
ATOM     10  N   UNL     1       1.740  -7.718   3.379  0.00  0.00    -0.250 NA
ATOM     11  C   UNL     1       1.517  -8.600   2.470  0.00  0.00    +0.037 C 
ATOM     12  C   UNL     1       1.181  -8.214   1.052  0.00  0.00    +0.152 C 
ATOM     13  N   UNL     1       0.543  -6.887   1.051  0.00  0.00    -0.337 N 
ATOM     14  H   UNL     1       2.086  -1.729   2.788  0.00  0.00    +0.160 HD
ATOM     15  H   UNL     1      -0.200  -6.684   0.461  0.00  0.00    +0.147 HD
ATOM     16  H   UNL     1       2.420  -3.492   4.364  0.00  0.00    +0.168 HD
ENDROOT
BRANCH   8  17
ATOM     17  N   UNL     1       2.741  -5.836   5.206  0.00  0.00    -0.343 N 
ATOM     18  H   UNL     1       2.807  -6.781   5.415  0.00  0.00    +0.144 HD
ATOM     19  H   UNL     1       3.088  -5.177   5.827  0.00  0.00    +0.144 HD
ENDBRANCH   8  17
BRANCH   1  20
ATOM     20  O   UNL     1       0.376  -0.493   1.396  0.00  0.00    -0.450 OA
BRANCH  20  22
ATOM     21  C   UNL     1      -0.628   1.495   0.458  0.00  0.00    +0.048 C 
ATOM     22  C   UNL     1      -0.659  -0.033   0.524  0.00  0.00    +0.230 C 
ENDBRANCH  20  22
ENDBRANCH   1  20
BRANCH  11  23
ATOM     23  C   UNL     1       1.594 -10.060   2.832  0.00  0.00    +0.057 C 
BRANCH  23  24
ATOM     24  C   UNL     1       1.947 -10.200   4.314  0.00  0.00    +0.041 C 
BRANCH  24  25
ATOM     25  C   UNL     1       2.024 -11.661   4.676  0.00  0.00    -0.047 A 
ATOM     26  C   UNL     1       0.893 -12.325   5.115  0.00  0.00    +0.003 A 
ATOM     27  C   UNL     1       0.964 -13.665   5.448  0.00  0.00    +0.000 A 
ATOM     28  C   UNL     1       2.164 -14.341   5.341  0.00  0.00    +0.000 A 
ATOM     29  C   UNL     1       3.295 -13.678   4.901  0.00  0.00    +0.000 A 
ATOM     30  C   UNL     1       3.223 -12.339   4.564  0.00  0.00    +0.003 A 
ENDBRANCH  24  25
ENDBRANCH  23  24
ENDBRANCH  11  23
TORSDOF 6
