REMARK  Name = ZINC09720499
REMARK  8 active torsions:
REMARK  status: ('A' for Active; 'I' for Inactive)
REMARK    1  A    between atoms: C_4  and  C_7
REMARK    2  A    between atoms: C_7  and  C_9
REMARK    3  A    between atoms: C_7  and  O_30
REMARK    4  A    between atoms: N_11  and  N_12
REMARK    5  A    between atoms: C_13  and  C_14
REMARK    6  A    between atoms: C_16  and  N_21
REMARK    7  A    between atoms: C_19  and  O_20
REMARK    8  A    between atoms: N_22  and  C_23
REMARK                            x       y       z     vdW  Elec       q    Type
REMARK                         _______ _______ _______ _____ _____    ______ ____
ROOT
ATOM      1  C   UNL     1       5.152  -0.299   5.925  0.00  0.00    +0.038 A 
ATOM      2  C   UNL     1       5.396   0.630   6.934  0.00  0.00    +0.042 A 
ATOM      3  C   UNL     1       5.702   0.188   8.222  0.00  0.00    +0.087 A 
ATOM      4  C   UNL     1       5.764  -1.184   8.494  0.00  0.00    +0.033 A 
ATOM      5  C   UNL     1       5.522  -2.101   7.494  0.00  0.00    +0.048 A 
ATOM      6  C   UNL     1       5.211  -1.672   6.212  0.00  0.00    +0.126 A 
ENDROOT
BRANCH   1   8
ATOM      7  N   UNL     1       4.594  -0.709   3.625  0.00  0.00    -0.188 NA
ATOM      8  C   UNL     1       4.826   0.158   4.562  0.00  0.00    +0.142 C 
BRANCH   7  11
ATOM      9  C   UNL     1       4.044  -1.175   1.356  0.00  0.00    +0.265 C 
ATOM     10  O   UNL     1       4.095  -2.362   1.602  0.00  0.00    -0.271 OA
ATOM     11  N   UNL     1       4.285  -0.274   2.329  0.00  0.00    -0.205 N 
ATOM     12  H   UNL     1       4.244   0.675   2.133  0.00  0.00    +0.177 HD
BRANCH   9  13
ATOM     13  C   UNL     1       3.711  -0.707  -0.038  0.00  0.00    +0.232 C 
BRANCH  13  17
ATOM     14  C   UNL     1      -0.017   1.378   0.010  0.00  0.00    +0.000 A 
ATOM     15  C   UNL     1       1.171   2.086   0.002  0.00  0.00    +0.000 A 
ATOM     16  C   UNL     1       2.377   1.411  -0.013  0.00  0.00    +0.006 A 
ATOM     17  C   UNL     1       2.396   0.029  -0.020  0.00  0.00    -0.010 A 
ATOM     18  C   UNL     1       1.208  -0.679  -0.012  0.00  0.00    +0.006 A 
ATOM     19  C   UNL     1       0.002  -0.004   0.002  0.00  0.00    +0.000 A 
ENDBRANCH  13  17
BRANCH  13  20
ATOM     20  O   UNL     1       3.614  -1.836  -0.908  0.00  0.00    -0.378 OA
ATOM     21  H   UNL     1       2.934  -2.474  -0.651  0.00  0.00    +0.211 HD
ENDBRANCH  13  20
ENDBRANCH   9  13
ENDBRANCH   7  11
ENDBRANCH   1   8
BRANCH   6  22
ATOM     22  O   UNL     1       4.968  -2.580   5.233  0.00  0.00    -0.506 OA
ATOM     23  H   UNL     1       5.757  -2.849   4.743  0.00  0.00    +0.292 HD
ENDBRANCH   6  22
BRANCH   3  24
ATOM     24  N   UNL     1       5.943   1.093   9.215  0.00  0.00    -0.149 NA
ATOM     25  N   UNL     1       6.227   0.684  10.406  0.00  0.00    -0.149 NA
BRANCH  25  26
ATOM     26  C   UNL     1       6.468   1.591  11.400  0.00  0.00    +0.087 A 
ATOM     27  C   UNL     1       6.402   2.961  11.133  0.00  0.00    +0.029 A 
ATOM     28  C   UNL     1       6.646   3.870  12.141  0.00  0.00    +0.003 A 
ATOM     29  C   UNL     1       6.956   3.428  13.415  0.00  0.00    +0.015 A 
ATOM     30  C   UNL     1       7.024   2.072  13.688  0.00  0.00    +0.020 A 
ATOM     31  C   UNL     1       6.775   1.151  12.691  0.00  0.00    +0.044 A 
ATOM     32 BR   UNL     1       7.449   1.481  15.433  0.00  0.00    -0.050 Br
ENDBRANCH  25  26
ENDBRANCH   3  24
TORSDOF 8
