REMARK  Name = ZINC02340038
REMARK  7 active torsions:
REMARK  status: ('A' for Active; 'I' for Inactive)
REMARK    1  A    between atoms: C_4  and  C_7
REMARK    2  A    between atoms: C_7  and  C_8
REMARK    3  A    between atoms: C_8  and  P_9
REMARK    4  A    between atoms: P_9  and  C_11
REMARK    5  A    between atoms: P_9  and  O_20
REMARK    6  A    between atoms: C_11  and  C_13
REMARK    7  A    between atoms: C_11  and  N_37
REMARK                            x       y       z     vdW  Elec       q    Type
REMARK                         _______ _______ _______ _____ _____    ______ ____
ROOT
ATOM      1  P   UNL     1       5.732  -1.838  -1.509  0.00  0.00    +0.193 P 
ATOM      2  O   UNL     1       6.729  -1.086  -0.714  0.00  0.00    -0.292 OA
ENDROOT
BRANCH   1   3
ATOM      3  O   UNL     1       5.536  -3.304  -0.874  0.00  0.00    -0.344 OA
ATOM      4  H   UNL     1       4.895  -3.854  -1.345  0.00  0.00    +0.218 HD
ENDBRANCH   1   3
BRANCH   1   5
ATOM      5  C   UNL     1       4.142  -0.948  -1.488  0.00  0.00    +0.100 C 
BRANCH   5   6
ATOM      6  C   UNL     1       3.711  -0.707  -0.039  0.00  0.00    +0.045 C 
BRANCH   6  10
ATOM      7  C   UNL     1      -0.017   1.378   0.010  0.00  0.00    +0.000 A 
ATOM      8  C   UNL     1       1.171   2.086   0.002  0.00  0.00    +0.000 A 
ATOM      9  C   UNL     1       2.377   1.411  -0.014  0.00  0.00    +0.003 A 
ATOM     10  C   UNL     1       2.396   0.029  -0.022  0.00  0.00    -0.047 A 
ATOM     11  C   UNL     1       1.208  -0.679  -0.014  0.00  0.00    +0.003 A 
ATOM     12  C   UNL     1       0.002  -0.004   0.002  0.00  0.00    +0.000 A 
ENDBRANCH   6  10
ENDBRANCH   5   6
ENDBRANCH   1   5
BRANCH   1  13
ATOM     13  C   UNL     1       6.319  -1.994  -3.228  0.00  0.00    +0.045 C 
BRANCH  13  14
ATOM     14  C   UNL     1       7.634  -2.730  -3.245  0.00  0.00    -0.053 A 
ATOM     15  C   UNL     1       7.652  -4.112  -3.248  0.00  0.00    +0.004 A 
ATOM     16  C   UNL     1       8.858  -4.787  -3.270  0.00  0.00    +0.020 A 
ATOM     17  C   UNL     1      10.047  -4.079  -3.278  0.00  0.00    +0.041 A 
ATOM     18  C   UNL     1      10.028  -2.696  -3.270  0.00  0.00    +0.020 A 
ATOM     19  C   UNL     1       8.821  -2.022  -3.254  0.00  0.00    +0.004 A 
ATOM     20 CL   UNL     1      11.562  -4.927  -3.297  0.00  0.00    -0.084 Cl
ENDBRANCH  13  14
BRANCH  13  23
ATOM     21  H   UNL     1       5.600  -2.785  -4.988  0.00  0.00    -0.088 HD
ATOM     22  H   UNL     1       5.188  -3.665  -3.638  0.00  0.00    -0.088 HD
ATOM     23  N   UNL     1       5.309  -2.726  -4.013  0.00  0.00    +0.389 N 
ATOM     24  H   UNL     1       4.413  -2.226  -3.961  0.00  0.00    -0.088 HD
ENDBRANCH  13  23
ENDBRANCH   1  13
TORSDOF 7
