REMARK  Name = ZINC41003826
REMARK  6 active torsions:
REMARK  status: ('A' for Active; 'I' for Inactive)
REMARK    1  A    between atoms: C_1  and  C_2
REMARK    2  A    between atoms: C_5  and  C_8
REMARK    3  A    between atoms: N_11  and  C_13
REMARK    4  A    between atoms: N_23  and  C_33
REMARK    5  A    between atoms: C_24  and  C_26
REMARK    6  A    between atoms: C_33  and  C_34
REMARK                            x       y       z     vdW  Elec       q    Type
REMARK                         _______ _______ _______ _____ _____    ______ ____
ROOT
ATOM      1  C   UNL     1       0.059  -4.256  -0.021  0.00  0.00    +0.099 A 
ATOM      2  C   UNL     1       0.717  -5.081   0.898  0.00  0.00    +0.035 A 
ATOM      3  C   UNL     1       0.457  -6.377   0.495  0.00  0.00    +0.130 A 
ATOM      4  N   UNL     1      -0.326  -6.277  -0.621  0.00  0.00    -0.254 N 
ATOM      5  N   UNL     1      -0.545  -5.040  -0.893  0.00  0.00    -0.170 NA
ATOM      6  C   UNL     1       1.122  -7.297   1.423  0.00  0.00    +0.266 C 
ATOM      7  O   UNL     1       1.088  -8.510   1.343  0.00  0.00    -0.268 OA
ATOM      8  N   UNL     1       1.777  -6.609   2.376  0.00  0.00    -0.278 N 
ATOM      9  C   UNL     1       1.579  -5.175   2.127  0.00  0.00    +0.142 C 
ENDROOT
BRANCH   1  14
ATOM     10  C   UNL     1      -0.018   1.503   0.010  0.00  0.00    +0.044 C 
ATOM     11  C   UNL     1       0.002  -0.004   0.002  0.00  0.00    -0.050 A 
ATOM     12  C   UNL     1       0.006  -0.687  -1.201  0.00  0.00    +0.004 A 
ATOM     13  C   UNL     1       0.024  -2.067  -1.214  0.00  0.00    +0.010 A 
ATOM     14  C   UNL     1       0.040  -2.772  -0.013  0.00  0.00    +0.002 A 
ATOM     15  C   UNL     1       0.036  -2.080   1.196  0.00  0.00    +0.010 A 
ATOM     16  C   UNL     1       0.023  -0.700   1.198  0.00  0.00    +0.004 A 
ENDBRANCH   1  14
BRANCH   4  17
ATOM     17  C   UNL     1      -0.844  -7.412  -1.389  0.00  0.00    +0.130 C 
ATOM     18  C   UNL     1      -2.381  -7.360  -1.403  0.00  0.00    +0.051 C 
ATOM     19  C   UNL     1      -2.890  -8.373  -2.468  0.00  0.00    +0.168 C 
ATOM     20  S   UNL     1      -1.668  -8.087  -3.816  0.00  0.00    -0.029 S 
ATOM     21  O   UNL     1      -1.241  -9.343  -4.327  0.00  0.00    -0.174 OA
ATOM     22  O   UNL     1      -2.183  -7.108  -4.708  0.00  0.00    -0.174 OA
ATOM     23  C   UNL     1      -0.302  -7.343  -2.837  0.00  0.00    +0.192 C 
ENDBRANCH   4  17
BRANCH   9  24
ATOM     24  C   UNL     1       2.905  -4.502   1.883  0.00  0.00    -0.022 A 
ATOM     25  C   UNL     1       3.897  -5.163   1.183  0.00  0.00    +0.007 A 
ATOM     26  C   UNL     1       5.113  -4.547   0.959  0.00  0.00    +0.020 A 
ATOM     27  C   UNL     1       5.338  -3.268   1.436  0.00  0.00    +0.041 A 
ATOM     28  C   UNL     1       4.346  -2.607   2.136  0.00  0.00    +0.020 A 
ATOM     29  C   UNL     1       3.127  -3.222   2.355  0.00  0.00    +0.007 A 
ATOM     30 CL   UNL     1       6.867  -2.493   1.155  0.00  0.00    -0.084 Cl
ENDBRANCH   9  24
BRANCH   8  31
ATOM     31  C   UNL     1       2.554  -7.189   3.474  0.00  0.00    +0.183 C 
BRANCH  31  32
ATOM     32  C   UNL     1       3.985  -7.369   3.036  0.00  0.00    +0.122 A 
ATOM     33  C   UNL     1       4.970  -6.463   3.175  0.00  0.00    +0.046 A 
ATOM     34  C   UNL     1       6.139  -7.043   2.632  0.00  0.00    +0.041 A 
ATOM     35  C   UNL     1       5.800  -8.269   2.194  0.00  0.00    +0.195 A 
ATOM     36  O   UNL     1       4.495  -8.463   2.446  0.00  0.00    -0.466 OA
ENDBRANCH  31  32
ENDBRANCH   8  31
TORSDOF 5
