REMARK  Name = ZINC67292359
REMARK  7 active torsions:
REMARK  status: ('A' for Active; 'I' for Inactive)
REMARK    1  A    between atoms: C_1  and  O_2
REMARK    2  A    between atoms: O_2  and  C_3
REMARK    3  A    between atoms: C_3  and  C_5
REMARK    4  A    between atoms: C_8  and  N_11
REMARK    5  A    between atoms: C_13  and  C_23
REMARK    6  A    between atoms: N_25  and  C_26
REMARK    7  A    between atoms: C_26  and  C_27
REMARK                            x       y       z     vdW  Elec       q    Type
REMARK                         _______ _______ _______ _____ _____    ______ ____
ROOT
ATOM      1  N   UNL     1       0.816  -6.192  -1.327  0.00  0.00    -0.325 N 
ATOM      2  C   UNL     1       0.541  -6.804  -2.461  0.00  0.00    +0.212 A 
ATOM      3  C   UNL     1       0.696  -8.265  -2.593  0.00  0.00    +0.097 A 
ATOM      4  C   UNL     1      -0.102  -8.904  -3.534  0.00  0.00    +0.030 A 
ATOM      5  C   UNL     1      -1.024  -8.071  -4.310  0.00  0.00    +0.019 A 
ATOM      6  C   UNL     1      -2.040  -8.652  -5.079  0.00  0.00    +0.026 A 
ATOM      7  C   UNL     1      -2.897  -7.845  -5.794  0.00  0.00    +0.019 A 
ATOM      8  C   UNL     1      -2.757  -6.464  -5.756  0.00  0.00    +0.019 A 
ATOM      9  C   UNL     1      -1.758  -5.878  -5.006  0.00  0.00    +0.048 A 
ATOM     10  C   UNL     1      -0.883  -6.671  -4.278  0.00  0.00    +0.137 A 
ATOM     11  O   UNL     1       0.102  -6.110  -3.541  0.00  0.00    -0.439 OA
ATOM     12 BR   UNL     1      -4.272  -8.623  -6.834  0.00  0.00    -0.050 Br
ATOM     13  H   UNL     1       1.044  -6.710  -0.539  0.00  0.00    +0.169 HD
ENDROOT
BRANCH   1  17
ATOM     14  C   UNL     1       0.706  -2.072  -1.125  0.00  0.00    +0.059 A 
ATOM     15  C   UNL     1       0.116  -2.838  -0.113  0.00  0.00    +0.017 A 
ATOM     16  C   UNL     1       0.151  -4.200  -0.179  0.00  0.00    +0.026 A 
ATOM     17  C   UNL     1       0.779  -4.832  -1.260  0.00  0.00    +0.042 A 
ATOM     18  C   UNL     1       1.370  -4.065  -2.273  0.00  0.00    +0.026 A 
ATOM     19  C   UNL     1       1.329  -2.704  -2.209  0.00  0.00    +0.017 A 
BRANCH  14  20
ATOM     20  C   UNL     1       0.668  -0.602  -1.053  0.00  0.00    +0.339 C 
ATOM     21  O   UNL     1       1.176   0.063  -1.934  0.00  0.00    -0.245 OA
BRANCH  20  23
ATOM     22  C   UNL     1       0.068   1.435  -0.005  0.00  0.00    +0.280 C 
ATOM     23  O   UNL     1       0.069   0.006  -0.010  0.00  0.00    -0.464 OA
ENDBRANCH  20  23
ENDBRANCH  14  20
ENDBRANCH   1  17
BRANCH   3  24
ATOM     24  C   UNL     1       1.655  -9.014  -1.763  0.00  0.00    +0.249 C 
ATOM     25  O   UNL     1       2.277  -8.444  -0.887  0.00  0.00    -0.270 OA
ATOM     26  N   UNL     1       1.843 -10.332  -1.974  0.00  0.00    -0.309 N 
ATOM     27  H   UNL     1       1.403 -10.772  -2.718  0.00  0.00    +0.149 HD
BRANCH  26  28
ATOM     28  C   UNL     1       2.710 -11.101  -1.078  0.00  0.00    +0.136 C 
BRANCH  28  29
ATOM     29  C   UNL     1       2.752 -12.560  -1.536  0.00  0.00    +0.135 C 
ATOM     30  C   UNL     1       3.637 -13.399  -0.581  0.00  0.00    +0.035 C 
ATOM     31  C   UNL     1       3.044 -14.818  -0.798  0.00  0.00    +0.031 C 
ATOM     32  C   UNL     1       1.548 -14.515  -1.033  0.00  0.00    +0.160 C 
ATOM     33  O   UNL     1       1.443 -13.147  -1.450  0.00  0.00    -0.375 OA
ENDBRANCH  28  29
ENDBRANCH  26  28
ENDBRANCH   3  24
TORSDOF 6
