REMARK  Name = ZINC57774494
REMARK  3 active torsions:
REMARK  status: ('A' for Active; 'I' for Inactive)
REMARK    1  A    between atoms: C_2  and  C_22
REMARK    2  A    between atoms: C_15  and  C_17
REMARK    3  A    between atoms: C_29  and  C_31
REMARK                            x       y       z     vdW  Elec       q    Type
REMARK                         _______ _______ _______ _____ _____    ______ ____
ROOT
ATOM      1  C   UNL     1       2.048   1.462  -1.617  0.00  0.00    +0.071 A 
ATOM      2  C   UNL     1       3.135   2.200  -1.144  0.00  0.00    +0.070 A 
ATOM      3  N   UNL     1       4.188   1.421  -1.116  0.00  0.00    -0.166 NA
ATOM      4  N   UNL     1       3.812   0.152  -1.572  0.00  0.00    -0.180 N 
ATOM      5  C   UNL     1       2.482   0.197  -1.877  0.00  0.00    +0.138 A 
ATOM      6  N   UNL     1       1.845  -0.930  -2.350  0.00  0.00    -0.343 N 
ATOM      7  C   UNL     1       2.531  -2.104  -2.522  0.00  0.00    +0.029 A 
ATOM      8  C   UNL     1       3.846  -2.149  -2.236  0.00  0.00    +0.055 A 
ATOM      9  C   UNL     1       4.496  -0.994  -1.739  0.00  0.00    +0.279 A 
ATOM     10  O   UNL     1       5.681  -1.037  -1.463  0.00  0.00    -0.265 OA
ATOM     11  C   UNL     1       4.681  -3.389  -2.436  0.00  0.00    +0.150 C 
ATOM     12  N   UNL     1       3.807  -4.540  -2.688  0.00  0.00    -0.296 N 
ATOM     13  C   UNL     1       2.686  -4.342  -3.622  0.00  0.00    +0.114 C 
ATOM     14  C   UNL     1       1.753  -3.295  -3.015  0.00  0.00    +0.072 C 
ATOM     15  C   UNL     1       4.022  -5.729  -2.091  0.00  0.00    +0.219 C 
ATOM     16  O   UNL     1       3.284  -6.664  -2.318  0.00  0.00    -0.275 OA
ATOM     17  H   UNL     1       0.900  -0.892  -2.565  0.00  0.00    +0.167 HD
ENDROOT
BRANCH   2  18
ATOM     18  C   UNL     1       3.102   3.650  -0.735  0.00  0.00    +0.057 C 
ATOM     19  C   UNL     1       2.125   4.412  -1.633  0.00  0.00    +0.013 C 
ATOM     20  C   UNL     1       2.116   5.891  -1.240  0.00  0.00    +0.020 C 
ATOM     21  C   UNL     1       1.645   6.027   0.211  0.00  0.00    +0.108 C 
ATOM     22  N   UNL     1       2.492   5.181   1.064  0.00  0.00    -0.301 N 
ATOM     23  C   UNL     1       2.644   3.760   0.722  0.00  0.00    +0.117 C 
ATOM     24  C   UNL     1       3.118   5.699   2.139  0.00  0.00    +0.219 C 
ATOM     25  O   UNL     1       3.057   6.890   2.361  0.00  0.00    -0.275 OA
BRANCH  24  26
ATOM     26  C   UNL     1       3.894   4.799   3.065  0.00  0.00    +0.075 C 
ATOM     27  C   UNL     1       2.945   4.162   4.101  0.00  0.00    +0.013 C 
ATOM     28  C   UNL     1       3.778   4.122   5.406  0.00  0.00    +0.001 C 
ATOM     29  C   UNL     1       4.563   5.455   5.351  0.00  0.00    +0.001 C 
ATOM     30  C   UNL     1       4.923   5.622   3.860  0.00  0.00    +0.013 C 
ENDBRANCH  24  26
ENDBRANCH   2  18
BRANCH  15  31
ATOM     31  C   UNL     1       5.180  -5.897  -1.141  0.00  0.00    +0.075 C 
ATOM     32  C   UNL     1       6.512  -5.681  -1.888  0.00  0.00    +0.013 C 
ATOM     33  C   UNL     1       7.475  -6.715  -1.253  0.00  0.00    +0.001 C 
ATOM     34  C   UNL     1       6.559  -7.943  -1.029  0.00  0.00    +0.001 C 
ATOM     35  C   UNL     1       5.210  -7.335  -0.595  0.00  0.00    +0.013 C 
ENDBRANCH  15  31
TORSDOF 3
