REMARK  Name = ZINC41585857
REMARK  11 active torsions:
REMARK  status: ('A' for Active; 'I' for Inactive)
REMARK    1  A    between atoms: C_1  and  C_2
REMARK    2  A    between atoms: C_4  and  O_38
REMARK    3  A    between atoms: C_5  and  C_25
REMARK    4  A    between atoms: C_11  and  C_12
REMARK    5  A    between atoms: C_15  and  O_22
REMARK    6  A    between atoms: C_16  and  O_20
REMARK    7  A    between atoms: C_17  and  O_18
REMARK    8  A    between atoms: O_18  and  C_19
REMARK    9  A    between atoms: O_20  and  C_21
REMARK   10  A    between atoms: O_22  and  C_23
REMARK   11  A    between atoms: C_25  and  N_26
REMARK                            x       y       z     vdW  Elec       q    Type
REMARK                         _______ _______ _______ _____ _____    ______ ____
ROOT
ATOM      1  C   UNL     1      -2.410  10.409  17.296  0.00  0.00    +0.045 C 
ATOM      2  C   UNL     1      -2.644   9.403  16.199  0.00  0.00    -0.033 A 
ATOM      3  C   UNL     1      -1.676   9.175  15.262  0.00  0.00    +0.050 A 
ATOM      4  C   UNL     1      -1.889   8.246  14.248  0.00  0.00    +0.125 A 
ATOM      5  C   UNL     1      -3.081   7.543  14.175  0.00  0.00    +0.051 A 
ATOM      6  C   UNL     1      -4.076   7.763  15.120  0.00  0.00    +0.148 A 
ATOM      7  C   UNL     1      -3.847   8.698  16.142  0.00  0.00    +0.071 A 
ATOM      8  C   UNL     1      -5.060   8.704  16.979  0.00  0.00    +0.232 C 
ATOM      9  O   UNL     1      -5.279   9.380  17.970  0.00  0.00    -0.283 OA
ATOM     10  C   UNL     1      -5.946   7.717  16.351  0.00  0.00    +0.176 C 
ATOM     11  C   UNL     1      -7.192   7.373  16.773  0.00  0.00    +0.062 C 
ATOM     12  O   UNL     1      -5.303   7.218  15.269  0.00  0.00    -0.451 OA
ENDROOT
BRANCH  11  13
ATOM     13  C   UNL     1      -7.988   6.414  16.003  0.00  0.00    +0.024 A 
ATOM     14  C   UNL     1      -7.574   6.024  14.721  0.00  0.00    +0.015 A 
ATOM     15  C   UNL     1      -8.323   5.123  14.001  0.00  0.00    +0.050 A 
ATOM     16  C   UNL     1      -9.493   4.595  14.537  0.00  0.00    +0.165 A 
ATOM     17  C   UNL     1      -9.916   4.974  15.807  0.00  0.00    +0.204 A 
ATOM     18  C   UNL     1      -9.167   5.877  16.547  0.00  0.00    +0.172 A 
BRANCH  18  19
ATOM     19  O   UNL     1      -9.575   6.245  17.789  0.00  0.00    -0.491 OA
ATOM     20  C   UNL     1     -10.438   7.380  17.879  0.00  0.00    +0.277 C 
ENDBRANCH  18  19
BRANCH  17  21
ATOM     21  O   UNL     1     -11.062   4.454  16.326  0.00  0.00    -0.488 OA
ATOM     22  C   UNL     1     -10.944   3.247  17.081  0.00  0.00    +0.277 C 
ENDBRANCH  17  21
BRANCH  16  23
ATOM     23  O   UNL     1     -10.226   3.707  13.817  0.00  0.00    -0.491 OA
ATOM     24  C   UNL     1      -9.736   3.361  12.520  0.00  0.00    +0.277 C 
ENDBRANCH  16  23
ENDBRANCH  11  13
BRANCH   4  25
ATOM     25  O   UNL     1      -0.921   8.027  13.321  0.00  0.00    -0.506 OA
ATOM     26  H   UNL     1      -0.297   7.328  13.562  0.00  0.00    +0.292 HD
ENDBRANCH   4  25
BRANCH   5  27
ATOM     27  C   UNL     1      -3.299   6.541  13.071  0.00  0.00    +0.127 C 
BRANCH  27  28
ATOM     28  N   UNL     1      -2.831   5.219  13.510  0.00  0.00    -0.295 NA
ATOM     29  C   UNL     1      -3.651   4.712  14.618  0.00  0.00    +0.103 C 
ATOM     30  C   UNL     1      -3.025   3.425  15.165  0.00  0.00    +0.122 C 
ATOM     31  N   UNL     1      -2.839   2.485  14.048  0.00  0.00    -0.314 N 
ATOM     32  C   UNL     1      -2.145   2.965  12.843  0.00  0.00    +0.122 C 
ATOM     33  C   UNL     1      -2.805   4.271  12.388  0.00  0.00    +0.103 C 
ATOM     34  C   UNL     1      -3.307   1.179  14.129  0.00  0.00    +0.099 A 
ATOM     35  C   UNL     1      -3.247   0.354  13.011  0.00  0.00    +0.042 A 
ATOM     36  C   UNL     1      -3.716  -0.943  13.105  0.00  0.00    +0.005 A 
ATOM     37  C   UNL     1      -4.232  -1.374  14.321  0.00  0.00    +0.018 A 
ATOM     38  C   UNL     1      -4.261  -0.502  15.390  0.00  0.00    +0.084 A 
ATOM     39  N   UNL     1      -3.801   0.729  15.272  0.00  0.00    -0.350 N 
ATOM     40  H   UNL     1      -3.830   1.320  16.041  0.00  0.00    +0.166 HD
ENDBRANCH  27  28
ENDBRANCH   5  27
TORSDOF 7
