REMARK  Name = ZINC43813445
REMARK  5 active torsions:
REMARK  status: ('A' for Active; 'I' for Inactive)
REMARK    1  A    between atoms: C_8  and  S_14
REMARK    2  A    between atoms: S_14  and  C_15
REMARK    3  A    between atoms: C_17  and  N_19
REMARK    4  A    between atoms: N_19  and  C_20
REMARK    5  A    between atoms: C_20  and  C_21
REMARK                            x       y       z     vdW  Elec       q    Type
REMARK                         _______ _______ _______ _____ _____    ______ ____
ROOT
ATOM      1  C   UNL     1       5.500  -2.847  -0.066  0.00  0.00    +0.114 C 
ATOM      2  C   UNL     1       6.355  -3.868  -0.080  0.00  0.00    +0.244 C 
ATOM      3  O   UNL     1       7.694  -3.633  -0.091  0.00  0.00    -0.270 OA
ENDROOT
BRANCH   2   4
ATOM      4  N   UNL     1       5.877  -5.179  -0.082  0.00  0.00    -0.307 N 
ATOM      5  H   UNL     1       4.921  -5.347  -0.074  0.00  0.00    +0.149 HD
BRANCH   4   6
ATOM      6  C   UNL     1       6.817  -6.303  -0.097  0.00  0.00    +0.140 C 
BRANCH   6   7
ATOM      7  C   UNL     1       6.050  -7.600  -0.097  0.00  0.00    -0.027 A 
ATOM      8  C   UNL     1       5.706  -8.197   1.101  0.00  0.00    +0.009 A 
ATOM      9  C   UNL     1       5.002  -9.387   1.107  0.00  0.00    +0.050 A 
ATOM     10  C   UNL     1       4.641  -9.984  -0.090  0.00  0.00    +0.166 A 
ATOM     11  C   UNL     1       4.988  -9.383  -1.297  0.00  0.00    +0.167 A 
ATOM     12  C   UNL     1       5.688  -8.187  -1.295  0.00  0.00    +0.054 A 
ATOM     13  O   UNL     1       4.523 -10.158  -2.320  0.00  0.00    -0.453 OA
ATOM     14  C   UNL     1       4.246 -11.443  -1.734  0.00  0.00    +0.466 C 
ATOM     15  O   UNL     1       3.958 -11.136  -0.356  0.00  0.00    -0.453 OA
ENDBRANCH   6   7
ENDBRANCH   4   6
ENDBRANCH   2   4
BRANCH   1  16
ATOM     16  S   UNL     1       6.104  -1.192  -0.063  0.00  0.00    -0.071 S 
BRANCH  16  24
ATOM     17  C   UNL     1      -0.017   1.379   0.010  0.00  0.00    +0.022 A 
ATOM     18  C   UNL     1       1.183   2.076   0.002  0.00  0.00    +0.031 A 
ATOM     19  C   UNL     1       2.367   1.352  -0.013  0.00  0.00    +0.091 A 
ATOM     20  C   UNL     1       2.317  -0.052  -0.020  0.00  0.00    +0.178 A 
ATOM     21  N   UNL     1       1.136  -0.673  -0.012  0.00  0.00    -0.234 NA
ATOM     22  C   UNL     1       0.002  -0.004   0.002  0.00  0.00    +0.113 A 
ATOM     23  N   UNL     1       3.458  -0.783  -0.036  0.00  0.00    -0.217 NA
ATOM     24  C   UNL     1       4.644  -0.206  -0.044  0.00  0.00    +0.127 A 
ATOM     25  C   UNL     1       4.748   1.253  -0.037  0.00  0.00    +0.079 A 
ATOM     26  N   UNL     1       3.594   2.009  -0.022  0.00  0.00    -0.311 N 
ATOM     27  C   UNL     1       3.939   3.321  -0.019  0.00  0.00    +0.092 A 
ATOM     28  C   UNL     1       5.291   3.419  -0.032  0.00  0.00    +0.020 A 
ATOM     29  C   UNL     1       5.816   2.123  -0.042  0.00  0.00    +0.030 A 
ENDBRANCH  16  24
ENDBRANCH   1  16
TORSDOF 5
