REMARK  Name = ZINC14196508
REMARK  8 active torsions:
REMARK  status: ('A' for Active; 'I' for Inactive)
REMARK    1  A    between atoms: C_1  and  C_2
REMARK    2  A    between atoms: C_2  and  C_3
REMARK    3  A    between atoms: C_2  and  C_4
REMARK    4  A    between atoms: C_4  and  C_6
REMARK    5  A    between atoms: C_4  and  N_18
REMARK    6  A    between atoms: N_8  and  C_9
REMARK    7  A    between atoms: N_18  and  S_19
REMARK    8  A    between atoms: S_19  and  C_22
REMARK                            x       y       z     vdW  Elec       q    Type
REMARK                         _______ _______ _______ _____ _____    ______ ____
ROOT
ATOM      1  C   UNL     1      -0.941   1.487   1.057  0.00  0.00    +0.165 C 
ENDROOT
BRANCH   1   2
ATOM      2  C   UNL     1      -2.249   0.776   1.292  0.00  0.00    +0.236 C 
ATOM      3  O   UNL     1      -3.295   1.381   1.185  0.00  0.00    -0.274 OA
ATOM      4  N   UNL     1      -2.256  -0.531   1.620  0.00  0.00    -0.284 N 
ATOM      5  H   UNL     1      -1.420  -0.998   1.769  0.00  0.00    +0.155 HD
BRANCH   4   6
ATOM      6  C   UNL     1      -3.473  -1.215   1.745  0.00  0.00    +0.037 A 
ATOM      7  C   UNL     1      -4.586  -0.563   2.259  0.00  0.00    +0.027 A 
ATOM      8  C   UNL     1      -5.787  -1.235   2.379  0.00  0.00    +0.051 A 
ATOM      9  C   UNL     1      -5.882  -2.563   1.997  0.00  0.00    +0.166 A 
ATOM     10  C   UNL     1      -4.766  -3.221   1.487  0.00  0.00    +0.168 A 
ATOM     11  C   UNL     1      -3.563  -2.546   1.362  0.00  0.00    +0.072 A 
ATOM     12  O   UNL     1      -5.115  -4.507   1.189  0.00  0.00    -0.453 OA
ATOM     13  C   UNL     1      -6.344  -4.746   1.901  0.00  0.00    +0.466 C 
ATOM     14  O   UNL     1      -6.932  -3.437   2.019  0.00  0.00    -0.453 OA
ENDBRANCH   4   6
ENDBRANCH   1   2
BRANCH   1  16
ATOM     15  C   UNL     1       1.125   1.547  -0.346  0.00  0.00    +0.009 C 
ATOM     16  C   UNL     1      -0.193   0.812  -0.094  0.00  0.00    +0.010 C 
ATOM     17  C   UNL     1      -1.053   0.861  -1.359  0.00  0.00    +0.009 C 
ENDBRANCH   1  16
BRANCH   1  18
ATOM     18  N   UNL     1      -1.200   2.888   0.717  0.00  0.00    -0.178 NA
ATOM     19  H   UNL     1      -1.407   3.135  -0.198  0.00  0.00    +0.149 HD
BRANCH  18  20
ATOM     20  S   UNL     1      -1.142   4.051   1.895  0.00  0.00    +0.059 S 
ATOM     21  O   UNL     1      -1.421   5.290   1.256  0.00  0.00    -0.153 OA
ATOM     22  O   UNL     1      -1.913   3.564   2.984  0.00  0.00    -0.153 OA
BRANCH  20  23
ATOM     23  C   UNL     1       0.525   4.139   2.457  0.00  0.00    +0.109 A 
ATOM     24  C   UNL     1       0.956   3.303   3.471  0.00  0.00    +0.032 A 
ATOM     25  C   UNL     1       2.265   3.363   3.914  0.00  0.00    +0.051 A 
ATOM     26  C   UNL     1       3.141   4.272   3.346  0.00  0.00    +0.162 A 
ATOM     27  C   UNL     1       2.708   5.115   2.333  0.00  0.00    +0.164 A 
ATOM     28  C   UNL     1       1.398   5.049   1.888  0.00  0.00    +0.078 A 
ATOM     29  O   UNL     1       3.579   6.007   1.779  0.00  0.00    -0.488 OA
ATOM     30  C   UNL     1       4.005   7.074   2.628  0.00  0.00    +0.232 C 
ATOM     31  C   UNL     1       5.176   6.639   3.496  0.00  0.00    +0.082 C 
ATOM     32  C   UNL     1       4.794   5.539   4.474  0.00  0.00    +0.232 C 
ATOM     33  O   UNL     1       4.434   4.344   3.777  0.00  0.00    -0.488 OA
ENDBRANCH  20  23
ENDBRANCH  18  20
ENDBRANCH   1  18
TORSDOF 6
