REMARK  Name = ZINC58467117
REMARK  5 active torsions:
REMARK  status: ('A' for Active; 'I' for Inactive)
REMARK    1  A    between atoms: C_1  and  C_2
REMARK    2  A    between atoms: C_2  and  N_3
REMARK    3  A    between atoms: N_3  and  C_4
REMARK    4  A    between atoms: C_4  and  C_5
REMARK    5  A    between atoms: N_18  and  N_19
REMARK                            x       y       z     vdW  Elec       q    Type
REMARK                         _______ _______ _______ _____ _____    ______ ____
ROOT
ATOM      1  N   UNL     1      -1.372  -0.511   0.012  0.00  0.00    -0.281 N 
ATOM      2  C   UNL     1      -1.993  -0.751   1.184  0.00  0.00    +0.321 C 
ATOM      3  O   UNL     1      -3.134  -1.171   1.193  0.00  0.00    -0.251 OA
ATOM      4  N   UNL     1      -1.350  -0.524   2.347  0.00  0.00    -0.205 N 
ATOM      5  H   UNL     1      -0.440  -0.188   2.340  0.00  0.00    +0.177 HD
ENDROOT
BRANCH   4   6
ATOM      6  N   UNL     1      -1.996  -0.773   3.565  0.00  0.00    -0.245 N 
ATOM      7  C   UNL     1      -3.261  -1.247   3.725  0.00  0.00    +0.219 A 
ATOM      8  N   UNL     1      -3.539  -1.359   4.991  0.00  0.00    -0.234 NA
ATOM      9  C   UNL     1      -2.471  -0.965   5.730  0.00  0.00    +0.091 A 
ATOM     10  C   UNL     1      -1.464  -0.588   4.825  0.00  0.00    +0.088 A 
ATOM     11  C   UNL     1      -0.240  -0.140   5.302  0.00  0.00    +0.030 A 
ATOM     12  C   UNL     1      -0.020  -0.071   6.662  0.00  0.00    +0.002 A 
ATOM     13  C   UNL     1      -1.014  -0.446   7.554  0.00  0.00    +0.002 A 
ATOM     14  C   UNL     1      -2.228  -0.882   7.103  0.00  0.00    +0.030 A 
ENDBRANCH   4   6
BRANCH   1  16
ATOM     15  C   UNL     1      -0.019   1.526   0.010  0.00  0.00    +0.024 C 
ATOM     16  C   UNL     1       0.002  -0.004   0.002  0.00  0.00    +0.106 C 
ENDBRANCH   1  16
BRANCH   1  17
ATOM     17  C   UNL     1      -2.072  -0.758  -1.251  0.00  0.00    +0.157 C 
BRANCH  17  18
ATOM     18  C   UNL     1      -1.816  -2.197  -1.703  0.00  0.00    +0.228 C 
ATOM     19  C   UNL     1      -2.454  -2.428  -3.079  0.00  0.00    +0.275 C 
ATOM     20  O   UNL     1      -2.208  -3.785  -3.465  0.00  0.00    -0.485 OA
ATOM     21  C   UNL     1      -2.437  -4.740  -2.522  0.00  0.00    +0.162 A 
ATOM     22  C   UNL     1      -2.574  -6.064  -2.912  0.00  0.00    +0.049 A 
ATOM     23  C   UNL     1      -2.802  -7.045  -1.966  0.00  0.00    +0.004 A 
ATOM     24  C   UNL     1      -2.895  -6.709  -0.628  0.00  0.00    +0.004 A 
ATOM     25  C   UNL     1      -2.761  -5.392  -0.232  0.00  0.00    +0.049 A 
ATOM     26  C   UNL     1      -2.534  -4.402  -1.177  0.00  0.00    +0.163 A 
ATOM     27  O   UNL     1      -2.411  -3.108  -0.773  0.00  0.00    -0.480 OA
ENDBRANCH  17  18
ENDBRANCH   1  17
TORSDOF 4
