REMARK  Name = ZINC04043033
REMARK  9 active torsions:
REMARK  status: ('A' for Active; 'I' for Inactive)
REMARK    1  A    between atoms: C_1  and  C_2
REMARK    2  A    between atoms: C_5  and  O_32
REMARK    3  A    between atoms: C_7  and  C_30
REMARK    4  A    between atoms: C_7  and  C_31
REMARK    5  A    between atoms: C_12  and  C_28
REMARK    6  A    between atoms: C_12  and  O_29
REMARK    7  A    between atoms: C_13  and  C_15
REMARK    8  A    between atoms: C_15  and  O_16
REMARK    9  A    between atoms: O_16  and  C_17
REMARK                            x       y       z     vdW  Elec       q    Type
REMARK                         _______ _______ _______ _____ _____    ______ ____
ROOT
ATOM      1  C   UNL     1      -0.429   1.282   0.501  0.00  0.00    +0.012 C 
ATOM      2  C   UNL     1      -0.215  -0.249   0.511  0.00  0.00    -0.020 C 
ATOM      3  C   UNL     1       0.144  -0.688  -0.903  0.00  0.00    +0.010 C 
ATOM      4  C   UNL     1       1.452  -0.022  -1.341  0.00  0.00    +0.032 C 
ATOM      5  C   UNL     1       2.587  -0.441  -0.417  0.00  0.00    +0.120 C 
ATOM      6  C   UNL     1       2.283  -0.142   1.046  0.00  0.00    -0.006 C 
ATOM      7  C   UNL     1       0.906  -0.625   1.477  0.00  0.00    +0.004 C 
ATOM      8  C   UNL     1       0.917  -2.147   1.655  0.00  0.00    +0.007 C 
ATOM      9  C   UNL     1      -0.403  -2.615   2.269  0.00  0.00    +0.035 C 
ATOM     10  C   UNL     1      -1.571  -2.278   1.350  0.00  0.00    +0.070 C 
ATOM     11  C   UNL     1      -1.558  -0.813   0.965  0.00  0.00    +0.064 C 
ATOM     12  C   UNL     1      -1.577  -3.189   0.124  0.00  0.00    +0.042 C 
ATOM     13  C   UNL     1       2.476   1.357   1.316  0.00  0.00    +0.014 C 
ATOM     14  C   UNL     1       3.373  -0.845   1.888  0.00  0.00    +0.014 C 
ENDROOT
BRANCH  10  15
ATOM     15  O   UNL     1      -2.789  -2.536   2.083  0.00  0.00    -0.388 OA
ATOM     16  H   UNL     1      -2.887  -3.453   2.374  0.00  0.00    +0.210 HD
ENDBRANCH  10  15
BRANCH   5  17
ATOM     17  O   UNL     1       2.859  -1.836  -0.583  0.00  0.00    -0.391 OA
ATOM     18  H   UNL     1       3.122  -2.081  -1.480  0.00  0.00    +0.210 HD
ENDBRANCH   5  17
BRANCH  11  19
ATOM     19  C   UNL     1      -2.640  -0.541  -0.085  0.00  0.00    +0.236 C 
BRANCH  19  20
ATOM     20  O   UNL     1      -3.894  -1.040   0.382  0.00  0.00    -0.491 OA
BRANCH  20  21
ATOM     21  C   UNL     1      -4.966  -0.878  -0.436  0.00  0.00    +0.124 A 
ATOM     22  C   UNL     1      -4.804  -0.252  -1.671  0.00  0.00    +0.046 A 
ATOM     23  C   UNL     1      -5.871  -0.081  -2.504  0.00  0.00    +0.015 A 
ATOM     24  C   UNL     1      -7.136  -0.537  -2.117  0.00  0.00    +0.018 A 
ATOM     25  C   UNL     1      -8.299  -0.368  -2.990  0.00  0.00    +0.018 A 
ATOM     26  C   UNL     1      -9.500  -0.833  -2.558  0.00  0.00    +0.092 A 
ATOM     27  C   UNL     1      -9.598  -1.457  -1.297  0.00  0.00    +0.337 A 
ATOM     28  O   UNL     1     -10.680  -1.869  -0.922  0.00  0.00    -0.245 OA
ATOM     29  O   UNL     1      -8.528  -1.610  -0.501  0.00  0.00    -0.422 OA
ATOM     30  C   UNL     1      -7.306  -1.170  -0.871  0.00  0.00    +0.143 A 
ATOM     31  C   UNL     1      -6.209  -1.340  -0.039  0.00  0.00    +0.092 A 
ENDBRANCH  20  21
ENDBRANCH  19  20
ENDBRANCH  11  19
TORSDOF 5
