REMARK  Name = ZINC00851765
REMARK  5 active torsions:
REMARK  status: ('A' for Active; 'I' for Inactive)
REMARK    1  A    between atoms: C_1  and  N_2
REMARK    2  A    between atoms: N_7  and  C_10
REMARK    3  A    between atoms: N_11  and  C_14
REMARK    4  A    between atoms: C_14  and  C_15
REMARK    5  A    between atoms: N_17  and  C_18
REMARK                            x       y       z     vdW  Elec       q    Type
REMARK                         _______ _______ _______ _____ _____    ______ ____
ROOT
ATOM      1  C   UNL     1      -2.935  -3.914  -0.004  0.00  0.00    +0.219 C 
ENDROOT
BRANCH   1  12
ATOM      2  C   UNL     1      -0.053   1.477   0.009  0.00  0.00    +0.155 C 
ATOM      3  N   UNL     1      -0.028   0.012  -0.003  0.00  0.00    -0.280 N 
ATOM      4  C   UNL     1      -1.217  -0.700   0.004  0.00  0.00    +0.168 A 
ATOM      5  C   UNL     1      -1.167  -2.088  -0.008  0.00  0.00    +0.152 A 
ATOM      6  C   UNL     1       0.090  -2.731  -0.027  0.00  0.00    +0.282 A 
ATOM      7  O   UNL     1       0.160  -3.947  -0.038  0.00  0.00    -0.265 OA
ATOM      8  N   UNL     1       1.212  -1.982  -0.034  0.00  0.00    -0.262 N 
ATOM      9  C   UNL     1       1.149  -0.640  -0.027  0.00  0.00    +0.333 A 
ATOM     10  O   UNL     1       2.182   0.002  -0.039  0.00  0.00    -0.246 OA
ATOM     11  C   UNL     1       2.520  -2.643  -0.054  0.00  0.00    +0.157 C 
ATOM     12  N   UNL     1      -2.477  -2.522   0.004  0.00  0.00    -0.316 N 
ATOM     13  C   UNL     1      -3.256  -1.422   0.021  0.00  0.00    +0.202 A 
ATOM     14  N   UNL     1      -2.506  -0.350   0.022  0.00  0.00    -0.218 NA
ENDBRANCH   1  12
BRANCH   1  15
ATOM     15  C   UNL     1      -2.958  -4.442   1.408  0.00  0.00    +0.237 C 
ATOM     16  O   UNL     1      -2.625  -3.727   2.329  0.00  0.00    -0.274 OA
ATOM     17  N   UNL     1      -3.348  -5.710   1.646  0.00  0.00    -0.283 N 
ATOM     18  H   UNL     1      -3.676  -6.261   0.919  0.00  0.00    +0.155 HD
BRANCH  17  19
ATOM     19  C   UNL     1      -3.281  -6.231   2.944  0.00  0.00    +0.053 A 
ATOM     20  C   UNL     1      -3.525  -5.410   4.037  0.00  0.00    +0.046 A 
ATOM     21  C   UNL     1      -3.458  -5.926   5.317  0.00  0.00    +0.061 A 
ATOM     22  C   UNL     1      -3.146  -7.262   5.510  0.00  0.00    +0.061 A 
ATOM     23  C   UNL     1      -2.902  -8.082   4.423  0.00  0.00    +0.043 A 
ATOM     24  C   UNL     1      -2.974  -7.572   3.141  0.00  0.00    +0.064 A 
ATOM     25 CL   UNL     1      -2.675  -8.603   1.777  0.00  0.00    -0.082 Cl
ATOM     26 CL   UNL     1      -3.062  -7.908   7.119  0.00  0.00    -0.082 Cl
ATOM     27 CL   UNL     1      -3.763  -4.900   6.683  0.00  0.00    -0.082 Cl
ENDBRANCH  17  19
ENDBRANCH   1  15
TORSDOF 3
