REMARK  Name = ZINC49472922
REMARK  6 active torsions:
REMARK  status: ('A' for Active; 'I' for Inactive)
REMARK    1  A    between atoms: C_1  and  C_2
REMARK    2  A    between atoms: C_4  and  C_14
REMARK    3  A    between atoms: N_16  and  C_17
REMARK    4  A    between atoms: C_21  and  C_29
REMARK    5  A    between atoms: C_29  and  O_30
REMARK    6  A    between atoms: O_30  and  C_31
REMARK                            x       y       z     vdW  Elec       q    Type
REMARK                         _______ _______ _______ _____ _____    ______ ____
ROOT
ATOM      1  C   UNL     1      -1.561   0.146   1.541  0.00  0.00    +0.262 C 
ATOM      2  O   UNL     1      -1.367  -0.513   2.541  0.00  0.00    -0.271 OA
ATOM      3  N   UNL     1      -2.334   1.248   1.600  0.00  0.00    -0.282 N 
ATOM      4  H   UNL     1      -2.577   1.714   0.784  0.00  0.00    +0.155 HD
ENDROOT
BRANCH   3   5
ATOM      5  C   UNL     1      -2.784   1.720   2.834  0.00  0.00    +0.035 A 
ATOM      6  C   UNL     1      -3.001   0.823   3.881  0.00  0.00    +0.024 A 
ATOM      7  C   UNL     1      -3.441   1.267   5.093  0.00  0.00    +0.012 A 
ATOM      8  C   UNL     1      -3.677   2.633   5.290  0.00  0.00    +0.004 A 
ATOM      9  C   UNL     1      -4.148   3.139   6.579  0.00  0.00    -0.008 A 
ATOM     10  C   UNL     1      -4.360   4.473   6.714  0.00  0.00    +0.076 A 
ATOM     11  C   UNL     1      -4.128   5.343   5.629  0.00  0.00    +0.250 A 
ATOM     12  O   UNL     1      -4.325   6.537   5.772  0.00  0.00    -0.268 OA
ATOM     13  N   UNL     1      -3.694   4.888   4.440  0.00  0.00    -0.322 N 
ATOM     14  H   UNL     1      -3.544   5.514   3.715  0.00  0.00    +0.169 HD
ATOM     15  C   UNL     1      -3.460   3.544   4.237  0.00  0.00    +0.051 A 
ATOM     16  C   UNL     1      -3.006   3.076   3.011  0.00  0.00    +0.049 A 
BRANCH   9  17
ATOM     17  C   UNL     1      -4.394   2.200   7.731  0.00  0.00    +0.195 C 
BRANCH  17  18
ATOM     18  O   UNL     1      -4.846   2.944   8.864  0.00  0.00    -0.378 OA
ATOM     19  C   UNL     1      -5.110   2.144  10.018  0.00  0.00    +0.194 C 
ENDBRANCH  17  18
ENDBRANCH   9  17
ENDBRANCH   3   5
BRANCH   1  22
ATOM     20  C   UNL     1       0.109   1.998   0.007  0.00  0.00    +0.056 C 
ATOM     21  C   UNL     1       0.380   0.492   0.025  0.00  0.00    +0.220 C 
ATOM     22  C   UNL     1      -0.937  -0.268   0.234  0.00  0.00    +0.299 C 
ATOM     23  O   UNL     1      -0.646  -1.670   0.259  0.00  0.00    -0.472 OA
ATOM     24  C   UNL     1       0.409  -2.062   1.024  0.00  0.00    +0.163 A 
ATOM     25  C   UNL     1       0.530  -3.395   1.386  0.00  0.00    +0.049 A 
ATOM     26  C   UNL     1       1.597  -3.809   2.160  0.00  0.00    +0.004 A 
ATOM     27  C   UNL     1       2.549  -2.895   2.575  0.00  0.00    +0.004 A 
ATOM     28  C   UNL     1       2.434  -1.565   2.219  0.00  0.00    +0.049 A 
ATOM     29  C   UNL     1       1.363  -1.143   1.444  0.00  0.00    +0.163 A 
ATOM     30  O   UNL     1       1.260   0.172   1.107  0.00  0.00    -0.481 OA
ENDBRANCH   1  22
TORSDOF 4
