REMARK  Name = ZINC63513810
REMARK  8 active torsions:
REMARK  status: ('A' for Active; 'I' for Inactive)
REMARK    1  A    between atoms: C_1  and  C_2
REMARK    2  A    between atoms: C_2  and  C_3
REMARK    3  A    between atoms: N_6  and  C_17
REMARK    4  A    between atoms: C_17  and  C_19
REMARK    5  A    between atoms: C_17  and  C_20
REMARK    6  A    between atoms: N_22  and  C_23
REMARK    7  A    between atoms: C_23  and  C_24
REMARK    8  A    between atoms: C_24  and  C_25
REMARK                            x       y       z     vdW  Elec       q    Type
REMARK                         _______ _______ _______ _____ _____    ______ ____
ROOT
ATOM      1  C   UNL     1       4.237  -0.046  -0.577  0.00  0.00    +0.176 C 
ATOM      2  C   UNL     1       5.054   0.432   0.625  0.00  0.00    +0.039 C 
ENDROOT
BRANCH   1   5
ATOM      3  C   UNL     1       2.653  -3.213   0.252  0.00  0.00    +0.173 C 
ATOM      4  N   UNL     1       2.991  -2.127  -0.675  0.00  0.00    -0.214 NA
ATOM      5  N   UNL     1       3.143  -0.902  -0.113  0.00  0.00    -0.218 N 
ATOM      6  C   UNL     1       2.320  -0.437   0.861  0.00  0.00    +0.277 C 
ATOM      7  O   UNL     1       2.357   0.716   1.248  0.00  0.00    -0.267 OA
ATOM      8  C   UNL     1       1.382  -1.423   1.416  0.00  0.00    +0.111 A 
ATOM      9  N   UNL     1       1.552  -2.778   1.115  0.00  0.00    -0.316 N 
ATOM     10  C   UNL     1       0.572  -3.485   1.739  0.00  0.00    +0.089 A 
ATOM     11  C   UNL     1       0.016  -4.765   1.977  0.00  0.00    +0.067 A 
ATOM     12  C   UNL     1      -1.050  -4.595   2.778  0.00  0.00    +0.198 A 
ATOM     13  O   UNL     1      -1.198  -3.289   3.057  0.00  0.00    -0.461 OA
ATOM     14  C   UNL     1      -0.227  -2.581   2.441  0.00  0.00    +0.153 A 
ATOM     15  C   UNL     1       0.298  -1.290   2.225  0.00  0.00    +0.079 A 
ATOM     16  H   UNL     1       2.341  -2.094  -1.446  0.00  0.00    +0.147 HD
BRANCH   3  18
ATOM     17  C   UNL     1       4.970  -4.148   0.224  0.00  0.00    +0.007 C 
ATOM     18  C   UNL     1       3.873  -3.552   1.110  0.00  0.00    +0.039 C 
ENDBRANCH   3  18
ENDBRANCH   1   5
BRANCH   1  19
ATOM     19  C   UNL     1       3.670   1.145  -1.305  0.00  0.00    +0.235 C 
ATOM     20  O   UNL     1       2.478   1.365  -1.271  0.00  0.00    -0.274 OA
ATOM     21  N   UNL     1       4.487   1.965  -1.995  0.00  0.00    -0.313 N 
ATOM     22  H   UNL     1       5.441   1.788  -2.023  0.00  0.00    +0.149 HD
BRANCH  21  23
ATOM     23  C   UNL     1       3.936   3.123  -2.703  0.00  0.00    +0.108 C 
BRANCH  23  24
ATOM     24  C   UNL     1       5.067   3.881  -3.400  0.00  0.00    +0.052 C 
BRANCH  24  25
ATOM     25  C   UNL     1       4.500   5.072  -4.128  0.00  0.00    -0.040 C 
ATOM     26  C   UNL     1       4.423   6.343  -3.672  0.00  0.00    -0.001 A 
ATOM     27  C   UNL     1       4.827   6.972  -2.409  0.00  0.00    +0.010 A 
ATOM     28  C   UNL     1       4.615   8.297  -2.239  0.00  0.00    +0.001 A 
ATOM     29  C   UNL     1       4.020   9.082  -3.236  0.00  0.00    +0.002 A 
ATOM     30  C   UNL     1       3.622   8.576  -4.423  0.00  0.00    +0.026 A 
ATOM     31  C   UNL     1       3.797   7.194  -4.709  0.00  0.00    +0.043 A 
ATOM     32  N   UNL     1       3.499   6.477  -5.766  0.00  0.00    -0.380 N 
ATOM     33  C   UNL     1       3.908   5.089  -5.520  0.00  0.00    +0.144 C 
ATOM     34  H   UNL     1       3.081   6.809  -6.576  0.00  0.00    +0.160 HD
ENDBRANCH  24  25
ENDBRANCH  23  24
ENDBRANCH  21  23
ENDBRANCH   1  19
TORSDOF 6
