REMARK  Name = ZINC39659706
REMARK  6 active torsions:
REMARK  status: ('A' for Active; 'I' for Inactive)
REMARK    1  A    between atoms: C_1  and  C_2
REMARK    2  A    between atoms: C_2  and  C_34
REMARK    3  A    between atoms: C_5  and  C_8
REMARK    4  A    between atoms: C_8  and  N_9
REMARK    5  A    between atoms: C_10  and  C_12
REMARK    6  A    between atoms: C_23  and  C_25
REMARK                            x       y       z     vdW  Elec       q    Type
REMARK                         _______ _______ _______ _____ _____    ______ ____
ROOT
ATOM      1  C   UNL     1       3.020  -2.669   5.320  0.00  0.00    +0.100 C 
ATOM      2  C   UNL     1       4.201  -1.840   4.766  0.00  0.00    +0.121 C 
ATOM      3  N   UNL     1       5.368  -2.268   5.573  0.00  0.00    -0.296 N 
ATOM      4  C   UNL     1       5.187  -3.730   5.738  0.00  0.00    +0.115 C 
ATOM      5  C   UNL     1       3.671  -3.908   5.956  0.00  0.00    -0.004 C 
ATOM      6  C   UNL     1       3.185  -5.176   5.261  0.00  0.00    -0.010 C 
ATOM      7  C   UNL     1       3.800  -6.398   5.948  0.00  0.00    -0.082 C 
ATOM      8  N   UNL     1       3.412  -6.413   7.364  0.00  0.00    +0.379 N 
ATOM      9  C   UNL     1       3.963  -5.236   8.046  0.00  0.00    -0.082 C 
ATOM     10  C   UNL     1       3.354  -3.965   7.447  0.00  0.00    -0.010 C 
ATOM     11  C   UNL     1       6.369  -1.500   6.049  0.00  0.00    +0.252 C 
ATOM     12  O   UNL     1       7.264  -2.004   6.700  0.00  0.00    -0.270 OA
ATOM     13  H   UNL     1       2.405  -6.401   7.435  0.00  0.00    -0.086 HD
ATOM     14  H   UNL     1       3.768  -7.250   7.800  0.00  0.00    -0.086 HD
ENDROOT
BRANCH  11  15
ATOM     15  C   UNL     1       6.379  -0.050   5.780  0.00  0.00    +0.108 A 
ATOM     16  C   UNL     1       5.758   0.835   6.669  0.00  0.00    +0.138 A 
ATOM     17  C   UNL     1       5.772   2.192   6.410  0.00  0.00    +0.041 A 
ATOM     18  C   UNL     1       6.396   2.678   5.275  0.00  0.00    +0.026 A 
ATOM     19  C   UNL     1       7.012   1.811   4.390  0.00  0.00    +0.077 A 
ATOM     20  C   UNL     1       7.013   0.450   4.638  0.00  0.00    +0.156 A 
ATOM     21  F   UNL     1       7.619  -0.396   3.776  0.00  0.00    -0.203 F 
ATOM     22 CL   UNL     1       7.792   2.433   2.970  0.00  0.00    -0.081 Cl
ATOM     23  F   UNL     1       5.147   0.363   7.778  0.00  0.00    -0.205 F 
ENDBRANCH  11  15
BRANCH   1  25
ATOM     24  N   UNL     1       0.786  -3.275   4.448  0.00  0.00    -0.312 N 
ATOM     25  C   UNL     1       2.096  -3.077   4.201  0.00  0.00    +0.218 C 
ATOM     26  O   UNL     1       2.531  -3.227   3.079  0.00  0.00    -0.275 OA
ATOM     27  H   UNL     1       0.438  -3.155   5.345  0.00  0.00    +0.149 HD
BRANCH  24  28
ATOM     28  C   UNL     1      -0.112  -3.672   3.361  0.00  0.00    +0.138 C 
BRANCH  28  33
ATOM     29  C   UNL     1      -4.383  -2.324   5.021  0.00  0.00    +0.074 C 
ATOM     30  C   UNL     1      -3.477  -2.574   3.814  0.00  0.00    +0.165 C 
ATOM     31  O   UNL     1      -3.765  -3.866   3.253  0.00  0.00    -0.347 OA
ATOM     32  C   UNL     1      -2.483  -4.370   2.807  0.00  0.00    +0.196 C 
ATOM     33  C   UNL     1      -1.533  -3.830   3.905  0.00  0.00    +0.164 C 
ATOM     34  O   UNL     1      -2.105  -2.546   4.228  0.00  0.00    -0.342 OA
ATOM     35  C   UNL     1      -3.717  -1.494   2.758  0.00  0.00    +0.074 C 
ENDBRANCH  28  33
ENDBRANCH  24  28
ENDBRANCH   1  25
TORSDOF 4
