REMARK  Name = ZINC39688753
REMARK  11 active torsions:
REMARK  status: ('A' for Active; 'I' for Inactive)
REMARK    1  A    between atoms: C_1  and  C_2
REMARK    2  A    between atoms: C_2  and  C_4
REMARK    3  A    between atoms: C_2  and  N_12
REMARK    4  A    between atoms: C_4  and  C_5
REMARK    5  A    between atoms: C_13  and  C_15
REMARK    6  A    between atoms: C_26  and  C_28
REMARK    7  A    between atoms: C_28  and  C_30
REMARK    8  A    between atoms: C_28  and  O_33
REMARK    9  A    between atoms: C_30  and  C_31
REMARK   10  A    between atoms: C_30  and  C_32
REMARK   11  A    between atoms: O_33  and  C_34
REMARK                            x       y       z     vdW  Elec       q    Type
REMARK                         _______ _______ _______ _____ _____    ______ ____
ROOT
ATOM      1  C   UNL     1      -4.059  -0.835  -1.142  0.00  0.00    +0.100 C 
ATOM      2  C   UNL     1      -3.847  -2.243  -0.540  0.00  0.00    +0.121 C 
ATOM      3  N   UNL     1      -4.446  -3.168  -1.532  0.00  0.00    -0.297 N 
ATOM      4  C   UNL     1      -4.069  -2.594  -2.846  0.00  0.00    +0.115 C 
ATOM      5  C   UNL     1      -4.203  -1.070  -2.655  0.00  0.00    -0.004 C 
ATOM      6  C   UNL     1      -3.093  -0.345  -3.411  0.00  0.00    -0.010 C 
ATOM      7  C   UNL     1      -3.291  -0.545  -4.916  0.00  0.00    -0.082 C 
ATOM      8  N   UNL     1      -4.604  -0.022  -5.312  0.00  0.00    +0.379 N 
ATOM      9  C   UNL     1      -5.668  -0.787  -4.652  0.00  0.00    -0.082 C 
ATOM     10  C   UNL     1      -5.571  -0.597  -3.136  0.00  0.00    -0.010 C 
ATOM     11  C   UNL     1      -5.170  -4.279  -1.292  0.00  0.00    +0.257 C 
ATOM     12  O   UNL     1      -5.511  -4.990  -2.213  0.00  0.00    -0.272 OA
ATOM     13  H   UNL     1      -4.673   0.949  -5.044  0.00  0.00    -0.086 HD
ATOM     14  H   UNL     1      -4.707  -0.099  -6.313  0.00  0.00    -0.086 HD
ENDROOT
BRANCH   1  16
ATOM     15  N   UNL     1      -2.994   1.383  -0.889  0.00  0.00    -0.312 N 
ATOM     16  C   UNL     1      -2.867   0.041  -0.859  0.00  0.00    +0.218 C 
ATOM     17  O   UNL     1      -1.792  -0.460  -0.603  0.00  0.00    -0.275 OA
ATOM     18  H   UNL     1      -3.853   1.784  -1.093  0.00  0.00    +0.149 HD
BRANCH  15  20
ATOM     19  C   UNL     1      -1.028   2.430  -1.898  0.00  0.00    +0.028 C 
ATOM     20  C   UNL     1      -1.835   2.235  -0.613  0.00  0.00    +0.074 C 
BRANCH  20  21
ATOM     21  C   UNL     1      -2.313   3.595  -0.100  0.00  0.00    +0.057 C 
BRANCH  21  22
ATOM     22  C   UNL     1      -3.002   3.417   1.228  0.00  0.00    -0.045 A 
ATOM     23  C   UNL     1      -4.362   3.175   1.274  0.00  0.00    +0.006 A 
ATOM     24  C   UNL     1      -4.995   3.011   2.491  0.00  0.00    +0.038 A 
ATOM     25  C   UNL     1      -4.266   3.090   3.666  0.00  0.00    +0.123 A 
ATOM     26  C   UNL     1      -2.904   3.332   3.619  0.00  0.00    +0.038 A 
ATOM     27  C   UNL     1      -2.272   3.490   2.401  0.00  0.00    +0.006 A 
ATOM     28  F   UNL     1      -4.884   2.930   4.857  0.00  0.00    -0.205 F 
ENDBRANCH  21  22
ENDBRANCH  20  21
ENDBRANCH  15  20
ENDBRANCH   1  16
BRANCH  11  29
ATOM     29  C   UNL     1      -5.557  -4.637   0.119  0.00  0.00    +0.261 C 
BRANCH  29  30
ATOM     30  C   UNL     1      -6.881  -3.957   0.473  0.00  0.00    +0.033 C 
ATOM     31  C   UNL     1      -7.343  -4.428   1.855  0.00  0.00    +0.011 C 
ATOM     32  C   UNL     1      -6.688  -2.440   0.490  0.00  0.00    +0.011 C 
ENDBRANCH  29  30
BRANCH  29  33
ATOM     33  O   UNL     1      -5.705  -6.054   0.228  0.00  0.00    -0.479 OA
BRANCH  33  34
ATOM     34  C   UNL     1      -5.324  -6.626   1.401  0.00  0.00    +0.122 A 
ATOM     35  C   UNL     1      -5.453  -7.995   1.580  0.00  0.00    +0.045 A 
ATOM     36  C   UNL     1      -5.065  -8.574   2.773  0.00  0.00    +0.004 A 
ATOM     37  C   UNL     1      -4.549  -7.790   3.788  0.00  0.00    +0.000 A 
ATOM     38  C   UNL     1      -4.420  -6.425   3.612  0.00  0.00    +0.004 A 
ATOM     39  C   UNL     1      -4.801  -5.842   2.419  0.00  0.00    +0.045 A 
ENDBRANCH  33  34
ENDBRANCH  29  33
ENDBRANCH  11  29
TORSDOF 8
