REMARK  Name = ZINC63134398
REMARK  11 active torsions:
REMARK  status: ('A' for Active; 'I' for Inactive)
REMARK    1  A    between atoms: C_1  and  C_2
REMARK    2  A    between atoms: C_7  and  O_16
REMARK    3  A    between atoms: C_13  and  C_15
REMARK    4  A    between atoms: O_16  and  C_17
REMARK    5  A    between atoms: C_17  and  C_19
REMARK    6  A    between atoms: C_19  and  C_21
REMARK    7  A    between atoms: C_19  and  N_31
REMARK    8  A    between atoms: C_21  and  C_22
REMARK    9  A    between atoms: C_32  and  O_34
REMARK   10  A    between atoms: O_34  and  C_35
REMARK   11  A    between atoms: C_35  and  C_36
REMARK                            x       y       z     vdW  Elec       q    Type
REMARK                         _______ _______ _______ _____ _____    ______ ____
ROOT
ATOM      1  C   UNL     1       2.769  -1.613  -7.182  0.00  0.00    +0.189 C 
ENDROOT
BRANCH   1   2
ATOM      2  N   UNL     1       2.256  -0.782  -8.274  0.00  0.00    -0.268 N 
ATOM      3  C   UNL     1       2.179  -1.282  -9.523  0.00  0.00    +0.401 C 
ATOM      4  O   UNL     1       2.536  -2.423  -9.743  0.00  0.00    -0.226 OA
ATOM      5  H   UNL     1       1.971   0.128  -8.098  0.00  0.00    +0.153 HD
BRANCH   3   6
ATOM      6  O   UNL     1       1.707  -0.519 -10.526  0.00  0.00    -0.446 OA
BRANCH   6   7
ATOM      7  C   UNL     1       1.654  -1.113 -11.825  0.00  0.00    +0.269 C 
BRANCH   7   8
ATOM      8  C   UNL     1       1.103  -0.117 -12.812  0.00  0.00    -0.010 A 
ATOM      9  C   UNL     1      -0.259  -0.047 -13.036  0.00  0.00    +0.007 A 
ATOM     10  C   UNL     1      -0.765   0.868 -13.941  0.00  0.00    +0.000 A 
ATOM     11  C   UNL     1       0.092   1.712 -14.622  0.00  0.00    +0.000 A 
ATOM     12  C   UNL     1       1.454   1.642 -14.397  0.00  0.00    +0.000 A 
ATOM     13  C   UNL     1       1.959   0.731 -13.489  0.00  0.00    +0.007 A 
ENDBRANCH   7   8
ENDBRANCH   6   7
ENDBRANCH   3   6
ENDBRANCH   1   2
BRANCH   1  14
ATOM     14  C   UNL     1       2.213  -1.120  -5.871  0.00  0.00    +0.333 C 
ATOM     15  O   UNL     1       1.464  -0.172  -5.851  0.00  0.00    -0.248 OA
BRANCH  14  16
ATOM     16  O   UNL     1       2.550  -1.734  -4.726  0.00  0.00    -0.424 OA
BRANCH  16  22
ATOM     17  C   UNL     1       1.000  -0.246   1.194  0.00  0.00    +0.013 C 
ATOM     18  C   UNL     1       0.031  -0.035   0.029  0.00  0.00    +0.033 C 
ATOM     19  C   UNL     1       0.674  -0.510  -1.250  0.00  0.00    -0.001 A 
ATOM     20  C   UNL     1       2.021  -0.248  -1.448  0.00  0.00    +0.011 A 
ATOM     21  C   UNL     1       2.651  -0.657  -2.606  0.00  0.00    +0.047 A 
ATOM     22  C   UNL     1       1.934  -1.334  -3.582  0.00  0.00    +0.135 A 
ATOM     23  C   UNL     1       0.589  -1.600  -3.388  0.00  0.00    +0.093 A 
ATOM     24  C   UNL     1      -0.043  -1.191  -2.219  0.00  0.00    +0.139 A 
ATOM     25  O   UNL     1      -1.361  -1.489  -2.059  0.00  0.00    -0.425 OA
ATOM     26  C   UNL     1      -2.009  -0.916  -1.025  0.00  0.00    +0.316 C 
ATOM     27  O   UNL     1      -3.136  -0.496  -1.139  0.00  0.00    -0.250 OA
ATOM     28  C   UNL     1      -1.255  -0.826   0.287  0.00  0.00    +0.102 C 
ATOM     29  C   UNL     1      -0.910  -2.230   0.787  0.00  0.00    +0.020 C 
ENDBRANCH  16  22
ENDBRANCH  14  16
ENDBRANCH   1  14
BRANCH   1  30
ATOM     30  C   UNL     1       4.297  -1.528  -7.152  0.00  0.00    +0.067 C 
BRANCH  30  31
ATOM     31  C   UNL     1       4.858  -2.134  -8.412  0.00  0.00    -0.039 C 
ATOM     32  C   UNL     1       5.210  -1.480  -9.543  0.00  0.00    -0.001 A 
ATOM     33  C   UNL     1       5.175  -0.062  -9.923  0.00  0.00    +0.010 A 
ATOM     34  C   UNL     1       5.603   0.297 -11.154  0.00  0.00    +0.001 A 
ATOM     35  C   UNL     1       6.077  -0.647 -12.075  0.00  0.00    +0.002 A 
ATOM     36  C   UNL     1       6.139  -1.967 -11.799  0.00  0.00    +0.026 A 
ATOM     37  C   UNL     1       5.715  -2.457 -10.533  0.00  0.00    +0.043 A 
ATOM     38  N   UNL     1       5.678  -3.669 -10.034  0.00  0.00    -0.380 N 
ATOM     39  C   UNL     1       5.149  -3.596  -8.667  0.00  0.00    +0.144 C 
ATOM     40  H   UNL     1       5.956  -4.478 -10.491  0.00  0.00    +0.160 HD
ENDBRANCH  30  31
ENDBRANCH   1  30
TORSDOF 9
