REMARK  Name = ZINC02367142
REMARK  6 active torsions:
REMARK  status: ('A' for Active; 'I' for Inactive)
REMARK    1  A    between atoms: C_1  and  O_2
REMARK    2  A    between atoms: O_2  and  C_3
REMARK    3  A    between atoms: C_7  and  C_11
REMARK    4  A    between atoms: C_8  and  O_9
REMARK    5  A    between atoms: O_9  and  C_10
REMARK    6  A    between atoms: C_11  and  N_12
REMARK                            x       y       z     vdW  Elec       q    Type
REMARK                         _______ _______ _______ _____ _____    ______ ____
ROOT
ATOM      1  N   UNL     1      -2.846   0.880   1.405  0.00  0.00    -0.293 N 
ATOM      2  C   UNL     1      -2.489  -0.338   1.887  0.00  0.00    +0.203 A 
ATOM      3  N   UNL     1      -2.766  -0.704   3.106  0.00  0.00    -0.235 NA
ATOM      4  C   UNL     1      -3.434   0.110   3.943  0.00  0.00    +0.103 A 
ATOM      5  C   UNL     1      -3.889  -0.016   5.335  0.00  0.00    +0.027 A 
ATOM      6  C   UNL     1      -3.790  -1.027   6.291  0.00  0.00    +0.027 A 
ATOM      7  C   UNL     1      -4.332  -0.840   7.543  0.00  0.00    +0.019 A 
ATOM      8  C   UNL     1      -4.975   0.350   7.856  0.00  0.00    +0.017 A 
ATOM      9  C   UNL     1      -5.081   1.357   6.924  0.00  0.00    +0.027 A 
ATOM     10  C   UNL     1      -4.539   1.189   5.652  0.00  0.00    +0.049 A 
ATOM     11  N   UNL     1      -4.496   2.007   4.542  0.00  0.00    -0.349 N 
ATOM     12  H   UNL     1      -4.874   2.899   4.494  0.00  0.00    +0.166 HD
ATOM     13  C   UNL     1      -3.834   1.371   3.509  0.00  0.00    +0.131 A 
ATOM     14  C   UNL     1      -3.519   1.754   2.184  0.00  0.00    +0.278 A 
ATOM     15  O   UNL     1      -3.848   2.847   1.756  0.00  0.00    -0.265 OA
ATOM     16 BR   UNL     1      -4.201  -2.209   8.840  0.00  0.00    -0.050 Br
ENDROOT
BRANCH   1  17
ATOM     17  C   UNL     1      -2.504   1.246   0.029  0.00  0.00    +0.165 C 
BRANCH  17  22
ATOM     18  C   UNL     1       0.461   3.276  -1.163  0.00  0.00    +0.162 A 
ATOM     19  C   UNL     1       1.181   3.418   0.012  0.00  0.00    +0.049 A 
ATOM     20  C   UNL     1       0.711   2.856   1.184  0.00  0.00    +0.004 A 
ATOM     21  C   UNL     1      -0.479   2.152   1.188  0.00  0.00    +0.009 A 
ATOM     22  C   UNL     1      -1.205   2.010   0.020  0.00  0.00    +0.018 A 
ATOM     23  C   UNL     1      -0.736   2.566  -1.159  0.00  0.00    +0.166 A 
BRANCH  18  25
ATOM     24  C   UNL     1       2.158   4.541  -2.246  0.00  0.00    +0.277 C 
ATOM     25  O   UNL     1       0.922   3.827  -2.317  0.00  0.00    -0.491 OA
ENDBRANCH  18  25
BRANCH  23  26
ATOM     26  O   UNL     1      -1.448   2.424  -2.310  0.00  0.00    -0.491 OA
ATOM     27  C   UNL     1      -1.079   1.345  -3.171  0.00  0.00    +0.277 C 
ENDBRANCH  23  26
ENDBRANCH  17  22
ENDBRANCH   1  17
TORSDOF 4
