REMARK  Name = ZINC08442115
REMARK  8 active torsions:
REMARK  status: ('A' for Active; 'I' for Inactive)
REMARK    1  A    between atoms: C_1  and  C_2
REMARK    2  A    between atoms: C_2  and  N_3
REMARK    3  A    between atoms: C_14  and  C_25
REMARK    4  A    between atoms: C_20  and  N_24
REMARK    5  A    between atoms: C_21  and  C_22
REMARK    6  A    between atoms: C_25  and  S_26
REMARK    7  A    between atoms: S_26  and  C_27
REMARK    8  A    between atoms: C_30  and  C_33
REMARK                            x       y       z     vdW  Elec       q    Type
REMARK                         _______ _______ _______ _____ _____    ______ ____
ROOT
ATOM      1  N   UNL     1       1.188  -0.796  -1.265  0.00  0.00    -0.270 N 
ATOM      2  C   UNL     1       0.432  -1.058  -2.394  0.00  0.00    +0.041 A 
ATOM      3  C   UNL     1      -0.955  -1.080  -2.547  0.00  0.00    +0.024 A 
ATOM      4  C   UNL     1      -1.449  -1.375  -3.808  0.00  0.00    +0.002 A 
ATOM      5  C   UNL     1      -0.616  -1.638  -4.876  0.00  0.00    +0.000 A 
ATOM      6  C   UNL     1       0.767  -1.619  -4.737  0.00  0.00    +0.007 A 
ATOM      7  C   UNL     1       1.267  -1.326  -3.487  0.00  0.00    -0.001 A 
ATOM      8  C   UNL     1       2.668  -1.219  -2.977  0.00  0.00    +0.145 C 
ATOM      9  C   UNL     1       2.512  -0.861  -1.516  0.00  0.00    +0.240 C 
ATOM     10  O   UNL     1       3.408  -0.670  -0.720  0.00  0.00    -0.274 OA
ATOM     11  C   UNL     1       3.431  -0.143  -3.697  0.00  0.00    +0.062 A 
ATOM     12  C   UNL     1       3.268   1.235  -3.663  0.00  0.00    +0.081 A 
ATOM     13  N   UNL     1       4.165   1.772  -4.456  0.00  0.00    -0.175 NA
ATOM     14  N   UNL     1       4.931   0.741  -5.021  0.00  0.00    -0.246 N 
ATOM     15  H   UNL     1       5.666   0.851  -5.645  0.00  0.00    +0.192 HD
ATOM     16  C   UNL     1       4.468  -0.426  -4.545  0.00  0.00    +0.223 A 
ATOM     17  O   UNL     1       4.881  -1.692  -4.796  0.00  0.00    -0.423 OA
ATOM     18  C   UNL     1       4.428  -2.677  -3.994  0.00  0.00    +0.201 C 
ATOM     19  C   UNL     1       3.403  -2.523  -3.123  0.00  0.00    +0.110 C 
ENDROOT
BRANCH  18  20
ATOM     20  N   UNL     1       5.041  -3.903  -4.063  0.00  0.00    -0.328 N 
ATOM     21  H   UNL     1       5.779  -4.043  -4.677  0.00  0.00    +0.145 HD
ATOM     22  H   UNL     1       4.736  -4.630  -3.498  0.00  0.00    +0.145 HD
ENDBRANCH  18  20
BRANCH   1  24
ATOM     23  C   UNL     1       0.305   1.017   0.120  0.00  0.00    +0.025 C 
ATOM     24  C   UNL     1       0.617  -0.479   0.047  0.00  0.00    +0.110 C 
ENDBRANCH   1  24
BRANCH  19  25
ATOM     25  C   UNL     1       3.006  -3.637  -2.315  0.00  0.00    +0.102 C 
ATOM     26  N   UNL     1       2.691  -4.521  -1.675  0.00  0.00    -0.191 NA
ENDBRANCH  19  25
BRANCH  12  27
ATOM     27  C   UNL     1       2.238   1.984  -2.857  0.00  0.00    +0.132 C 
BRANCH  27  28
ATOM     28  S   UNL     1       0.783   2.311  -3.890  0.00  0.00    -0.119 S 
BRANCH  28  29
ATOM     29  C   UNL     1      -0.243   3.320  -2.873  0.00  0.00    +0.008 A 
ATOM     30  C   UNL     1       0.173   3.671  -1.594  0.00  0.00    +0.015 A 
ATOM     31  C   UNL     1      -0.634   4.461  -0.800  0.00  0.00    +0.004 A 
ATOM     32  C   UNL     1      -1.855   4.903  -1.275  0.00  0.00    -0.050 A 
ATOM     33  C   UNL     1      -2.273   4.555  -2.547  0.00  0.00    +0.004 A 
ATOM     34  C   UNL     1      -1.469   3.770  -3.349  0.00  0.00    +0.015 A 
ATOM     35  C   UNL     1      -2.733   5.766  -0.405  0.00  0.00    +0.044 C 
ENDBRANCH  28  29
ENDBRANCH  27  28
ENDBRANCH  12  27
TORSDOF 6
