REMARK  Name = ZINC67454105
REMARK  2 active torsions:
REMARK  status: ('A' for Active; 'I' for Inactive)
REMARK    1  A    between atoms: C_1  and  C_2
REMARK    2  A    between atoms: C_5  and  C_9
REMARK                            x       y       z     vdW  Elec       q    Type
REMARK                         _______ _______ _______ _____ _____    ______ ____
ROOT
ATOM      1  C   UNL     1       0.059  -4.277  -0.024  0.00  0.00    +0.209 C 
ATOM      2  N   UNL     1      -0.794  -4.800   1.059  0.00  0.00    -0.294 N 
ATOM      3  C   UNL     1      -0.301  -4.886   2.334  0.00  0.00    +0.160 C 
ATOM      4  N   UNL     1       0.985  -5.084   2.565  0.00  0.00    -0.302 N 
ATOM      5  C   UNL     1       1.828  -5.137   1.506  0.00  0.00    +0.213 A 
ATOM      6  N   UNL     1       1.418  -4.763   0.237  0.00  0.00    -0.286 N 
ATOM      7  C   UNL     1       2.481  -4.938  -0.618  0.00  0.00    +0.076 A 
ATOM      8  C   UNL     1       2.669  -4.751  -1.982  0.00  0.00    +0.077 A 
ATOM      9  C   UNL     1       3.898  -5.025  -2.551  0.00  0.00    +0.164 A 
ATOM     10  C   UNL     1       4.951  -5.488  -1.767  0.00  0.00    +0.164 A 
ATOM     11  C   UNL     1       4.782  -5.680  -0.412  0.00  0.00    +0.079 A 
ATOM     12  C   UNL     1       3.543  -5.406   0.178  0.00  0.00    +0.095 A 
ATOM     13  N   UNL     1       3.084  -5.497   1.462  0.00  0.00    -0.212 NA
ATOM     14  O   UNL     1       6.158  -5.752  -2.349  0.00  0.00    -0.488 OA
ATOM     15  C   UNL     1       6.192  -6.868  -3.241  0.00  0.00    +0.232 C 
ATOM     16  C   UNL     1       5.738  -6.459  -4.634  0.00  0.00    +0.082 C 
ATOM     17  C   UNL     1       4.281  -6.027  -4.664  0.00  0.00    +0.232 C 
ATOM     18  O   UNL     1       4.087  -4.841  -3.891  0.00  0.00    -0.488 OA
ATOM     19  N   UNL     1      -1.160  -4.765   3.393  0.00  0.00    -0.332 N 
ATOM     20  H   UNL     1      -1.702  -5.083   0.869  0.00  0.00    +0.151 HD
ATOM     21  H   UNL     1      -2.106  -4.620   3.236  0.00  0.00    +0.145 HD
ATOM     22  H   UNL     1      -0.823  -4.825   4.300  0.00  0.00    +0.145 HD
ATOM     23  H   UNL     1       1.317  -5.188   3.470  0.00  0.00    +0.171 HD
ENDROOT
BRANCH   1  28
ATOM     24  C   UNL     1      -0.018   1.503   0.010  0.00  0.00    +0.047 C 
ATOM     25  C   UNL     1       0.002  -0.004   0.002  0.00  0.00    -0.015 A 
ATOM     26  C   UNL     1       0.006  -0.689  -1.199  0.00  0.00    +0.006 A 
ATOM     27  C   UNL     1       0.025  -2.071  -1.206  0.00  0.00    +0.008 A 
ATOM     28  C   UNL     1       0.040  -2.770  -0.014  0.00  0.00    -0.004 A 
ATOM     29  C   UNL     1       0.036  -2.088   1.188  0.00  0.00    +0.046 A 
ATOM     30  C   UNL     1       0.023  -0.703   1.197  0.00  0.00    +0.127 A 
ATOM     31  F   UNL     1       0.025  -0.035   2.371  0.00  0.00    -0.205 F 
ENDBRANCH   1  28
TORSDOF 1
