REMARK  Name = ZINC13123126
REMARK  5 active torsions:
REMARK  status: ('A' for Active; 'I' for Inactive)
REMARK    1  A    between atoms: C_1  and  C_2
REMARK    2  A    between atoms: C_5  and  C_8
REMARK    3  A    between atoms: C_11  and  C_23
REMARK    4  A    between atoms: C_14  and  C_16
REMARK    5  A    between atoms: C_21  and  O_22
REMARK                            x       y       z     vdW  Elec       q    Type
REMARK                         _______ _______ _______ _____ _____    ______ ____
ROOT
ATOM      1  C   UNL     1       0.061  -4.251  -0.021  0.00  0.00    +0.266 C 
ATOM      2  O   UNL     1      -0.036  -4.854  -1.073  0.00  0.00    -0.268 OA
ATOM      3  N   UNL     1       0.177  -4.929   1.137  0.00  0.00    -0.181 N 
ATOM      4  C   UNL     1       0.320  -6.389   1.264  0.00  0.00    +0.137 C 
ATOM      5  C   UNL     1       0.412  -6.613   2.786  0.00  0.00    +0.087 C 
ATOM      6  C   UNL     1       0.308  -5.220   3.366  0.00  0.00    +0.072 C 
ATOM      7  N   UNL     1       0.189  -4.364   2.410  0.00  0.00    -0.180 NA
ENDROOT
BRANCH   1  12
ATOM      8  C   UNL     1       0.016   1.503   0.007  0.00  0.00    +0.044 C 
ATOM      9  C   UNL     1       0.028  -0.004  -0.000  0.00  0.00    -0.050 A 
ATOM     10  C   UNL     1       0.044  -0.686  -1.204  0.00  0.00    +0.004 A 
ATOM     11  C   UNL     1       0.055  -2.066  -1.218  0.00  0.00    +0.013 A 
ATOM     12  C   UNL     1       0.050  -2.773  -0.014  0.00  0.00    +0.039 A 
ATOM     13  C   UNL     1       0.033  -2.078   1.196  0.00  0.00    +0.013 A 
ATOM     14  C   UNL     1       0.028  -0.698   1.196  0.00  0.00    +0.004 A 
ENDBRANCH   1  12
BRANCH   6  15
ATOM     15  C   UNL     1       0.344  -4.892   4.802  0.00  0.00    +0.039 A 
ATOM     16  C   UNL     1       0.488  -5.907   5.751  0.00  0.00    +0.013 A 
ATOM     17  C   UNL     1       0.521  -5.593   7.093  0.00  0.00    +0.001 A 
ATOM     18  C   UNL     1       0.411  -4.276   7.505  0.00  0.00    +0.004 A 
ATOM     19  C   UNL     1       0.267  -3.263   6.577  0.00  0.00    +0.046 A 
ATOM     20  C   UNL     1       0.238  -3.560   5.224  0.00  0.00    +0.126 A 
BRANCH  20  21
ATOM     21  O   UNL     1       0.102  -2.564   4.310  0.00  0.00    -0.506 OA
ATOM     22  H   UNL     1      -0.816  -2.358   4.086  0.00  0.00    +0.292 HD
ENDBRANCH  20  21
ENDBRANCH   6  15
BRANCH   4  23
ATOM     23  C   UNL     1       1.577  -6.860   0.578  0.00  0.00    -0.025 A 
ATOM     24  C   UNL     1       2.732  -6.104   0.658  0.00  0.00    +0.005 A 
ATOM     25  C   UNL     1       3.885  -6.537   0.029  0.00  0.00    +0.000 A 
ATOM     26  C   UNL     1       3.883  -7.724  -0.678  0.00  0.00    +0.000 A 
ATOM     27  C   UNL     1       2.728  -8.480  -0.757  0.00  0.00    +0.000 A 
ATOM     28  C   UNL     1       1.577  -8.050  -0.125  0.00  0.00    +0.005 A 
ENDBRANCH   4  23
TORSDOF 4
