REMARK  Name = ZINC67158704
REMARK  6 active torsions:
REMARK  status: ('A' for Active; 'I' for Inactive)
REMARK    1  A    between atoms: C_1  and  C_2
REMARK    2  A    between atoms: C_9  and  C_11
REMARK    3  A    between atoms: C_18  and  C_20
REMARK    4  A    between atoms: C_20  and  O_21
REMARK    5  A    between atoms: O_21  and  C_22
REMARK    6  A    between atoms: C_25  and  N_28
REMARK                            x       y       z     vdW  Elec       q    Type
REMARK                         _______ _______ _______ _____ _____    ______ ____
ROOT
ATOM      1  C   UNL     1       0.090  -5.594   2.249  0.00  0.00    +0.072 C 
ATOM      2  C   UNL     1      -1.339  -6.006   2.608  0.00  0.00    +0.014 C 
ATOM      3  C   UNL     1      -1.321  -7.374   3.293  0.00  0.00    +0.020 C 
ATOM      4  C   UNL     1      -0.505  -7.283   4.586  0.00  0.00    +0.108 C 
ATOM      5  N   UNL     1       0.826  -6.749   4.269  0.00  0.00    -0.298 N 
ATOM      6  C   UNL     1       0.923  -5.482   3.531  0.00  0.00    +0.119 C 
ATOM      7  C   UNL     1       1.939  -7.409   4.648  0.00  0.00    +0.253 C 
ATOM      8  O   UNL     1       3.032  -6.957   4.380  0.00  0.00    -0.272 OA
ENDROOT
BRANCH   1  17
ATOM      9  C   UNL     1      -0.018   1.503   0.010  0.00  0.00    +0.044 C 
ATOM     10  C   UNL     1       0.002  -0.004   0.002  0.00  0.00    -0.048 A 
ATOM     11  C   UNL     1       0.006  -0.687  -1.206  0.00  0.00    +0.005 A 
ATOM     12  C   UNL     1       0.024  -2.052  -1.235  0.00  0.00    +0.030 A 
ATOM     13  C   UNL     1       0.040  -2.774  -0.039  0.00  0.00    +0.089 A 
ATOM     14  C   UNL     1       0.037  -2.083   1.185  0.00  0.00    +0.066 A 
ATOM     15  C   UNL     1       0.023  -0.695   1.195  0.00  0.00    +0.031 A 
ATOM     16  N   UNL     1       0.055  -3.051   2.169  0.00  0.00    -0.342 N 
ATOM     17  C   UNL     1       0.068  -4.261   1.546  0.00  0.00    +0.113 A 
ATOM     18  N   UNL     1       0.059  -4.099   0.255  0.00  0.00    -0.232 NA
ATOM     19  H   UNL     1       0.058  -2.898   3.127  0.00  0.00    +0.167 HD
ENDBRANCH   1  17
BRANCH   7  20
ATOM     20  C   UNL     1       1.824  -8.707   5.404  0.00  0.00    +0.324 C 
BRANCH  20  21
ATOM     21  O   UNL     1       3.131  -9.209   5.690  0.00  0.00    -0.483 OA
BRANCH  21  22
ATOM     22  C   UNL     1       3.207 -10.381   6.373  0.00  0.00    +0.121 A 
ATOM     23  C   UNL     1       2.046 -11.039   6.755  0.00  0.00    +0.048 A 
ATOM     24  C   UNL     1       2.125 -12.231   7.448  0.00  0.00    +0.036 A 
ATOM     25  C   UNL     1       3.359 -12.769   7.761  0.00  0.00    +0.126 A 
ATOM     26  C   UNL     1       4.517 -12.116   7.383  0.00  0.00    +0.036 A 
ATOM     27  C   UNL     1       4.444 -10.926   6.684  0.00  0.00    +0.048 A 
BRANCH  25  28
ATOM     28  N   UNL     1       3.441 -14.046   8.505  0.00  0.00    +0.056 N 
ATOM     29  O   UNL     1       2.429 -14.618   8.837  0.00  0.00    -0.126 OA
ATOM     30  O   UNL     1       4.520 -14.518   8.779  0.00  0.00    -0.126 OA
ENDBRANCH  25  28
ENDBRANCH  21  22
ENDBRANCH  20  21
ENDBRANCH   7  20
TORSDOF 5
