REMARK  Name = ZINC12657392
REMARK  5 active torsions:
REMARK  status: ('A' for Active; 'I' for Inactive)
REMARK    1  A    between atoms: C_9  and  C_11
REMARK    2  A    between atoms: C_14  and  N_17
REMARK    3  A    between atoms: C_18  and  C_19
REMARK    4  A    between atoms: C_22  and  O_25
REMARK    5  A    between atoms: O_25  and  C_26
REMARK                            x       y       z     vdW  Elec       q    Type
REMARK                         _______ _______ _______ _____ _____    ______ ____
ROOT
ATOM      1  C   UNL     1       3.746  -3.301  -0.053  0.00  0.00    +0.017 A 
ATOM      2  C   UNL     1       3.110  -4.546  -0.059  0.00  0.00    +0.013 A 
ATOM      3  C   UNL     1       3.852  -5.692  -0.073  0.00  0.00    +0.028 A 
ATOM      4  C   UNL     1       5.249  -5.621  -0.081  0.00  0.00    +0.064 A 
ATOM      5  C   UNL     1       5.885  -4.375  -0.075  0.00  0.00    +0.028 A 
ATOM      6  C   UNL     1       5.142  -3.229  -0.066  0.00  0.00    +0.013 A 
ENDROOT
BRANCH   1  15
ATOM      7  C   UNL     1      -0.017   1.375   0.010  0.00  0.00    +0.002 A 
ATOM      8  C   UNL     1       1.170   2.095   0.002  0.00  0.00    +0.002 A 
ATOM      9  C   UNL     1       2.375   1.452  -0.013  0.00  0.00    +0.030 A 
ATOM     10  C   UNL     1       2.419   0.054  -0.021  0.00  0.00    +0.089 A 
ATOM     11  C   UNL     1       1.217  -0.676  -0.013  0.00  0.00    +0.066 A 
ATOM     12  C   UNL     1       0.002  -0.004   0.002  0.00  0.00    +0.028 A 
ATOM     13  N   UNL     1       1.575  -2.010  -0.024  0.00  0.00    -0.338 N 
ATOM     14  H   UNL     1       0.970  -2.768  -0.022  0.00  0.00    +0.167 HD
ATOM     15  C   UNL     1       2.943  -2.062  -0.038  0.00  0.00    +0.139 A 
ATOM     16  N   UNL     1       3.433  -0.845  -0.036  0.00  0.00    -0.228 NA
ENDBRANCH   1  15
BRANCH   4  17
ATOM     17  N   UNL     1       5.992  -6.768  -0.094  0.00  0.00    -0.255 NA
ATOM     18  C   UNL     1       7.012  -6.875  -0.899  0.00  0.00    +0.119 C 
BRANCH  18  19
ATOM     19  C   UNL     1       7.812  -8.108  -0.914  0.00  0.00    -0.007 A 
ATOM     20  C   UNL     1       7.477  -9.172  -0.068  0.00  0.00    +0.013 A 
ATOM     21  C   UNL     1       8.228 -10.325  -0.085  0.00  0.00    +0.046 A 
ATOM     22  C   UNL     1       9.318 -10.435  -0.941  0.00  0.00    +0.127 A 
ATOM     23  C   UNL     1       9.655  -9.381  -1.782  0.00  0.00    +0.046 A 
ATOM     24  C   UNL     1       8.907  -8.226  -1.777  0.00  0.00    +0.013 A 
BRANCH  22  25
ATOM     25  O   UNL     1      10.056 -11.574  -0.954  0.00  0.00    -0.434 OA
BRANCH  25  26
ATOM     26  C   UNL     1      11.162 -11.620  -1.857  0.00  0.00    +0.541 C 
ATOM     27  F   UNL     1      10.702 -11.455  -3.168  0.00  0.00    -0.166 F 
ATOM     28  F   UNL     1      12.061 -10.594  -1.546  0.00  0.00    -0.166 F 
ENDBRANCH  25  26
ENDBRANCH  22  25
ENDBRANCH  18  19
ENDBRANCH   4  17
TORSDOF 5
