REMARK  Name = ZINC12330066
REMARK  7 active torsions:
REMARK  status: ('A' for Active; 'I' for Inactive)
REMARK    1  A    between atoms: C_1  and  O_2
REMARK    2  A    between atoms: O_2  and  C_3
REMARK    3  A    between atoms: C_7  and  C_9
REMARK    4  A    between atoms: C_9  and  C_11
REMARK    5  A    between atoms: C_9  and  O_29
REMARK    6  A    between atoms: C_11  and  N_54
REMARK    7  A    between atoms: C_18  and  O_28
REMARK                            x       y       z     vdW  Elec       q    Type
REMARK                         _______ _______ _______ _____ _____    ______ ____
ROOT
ATOM      1  C   UNL     1       1.100   7.865  -0.533  0.00  0.00    -0.075 C 
ATOM      2  C   UNL     1       1.041   9.395  -0.534  0.00  0.00    +0.029 C 
ATOM      3  C   UNL     1       1.329   9.909  -1.946  0.00  0.00    +0.110 C 
ATOM      4  C   UNL     1       0.321   9.304  -2.924  0.00  0.00    +0.029 C 
ATOM      5  C   UNL     1       0.399   7.777  -2.851  0.00  0.00    -0.075 C 
ATOM      6  C   UNL     1       1.210  11.437  -1.968  0.00  0.00    +0.084 C 
ATOM      7  C   UNL     1       1.397  11.914  -3.410  0.00  0.00    +0.152 C 
ATOM      8  C   UNL     1       2.619  11.262  -4.005  0.00  0.00    +0.025 A 
ATOM      9  C   UNL     1       3.186  11.819  -5.139  0.00  0.00    +0.048 A 
ATOM     10  C   UNL     1       4.304  11.244  -5.715  0.00  0.00    +0.124 A 
ATOM     11  C   UNL     1       4.861  10.105  -5.157  0.00  0.00    +0.042 A 
ATOM     12  C   UNL     1       4.299   9.548  -4.027  0.00  0.00    +0.049 A 
ATOM     13  C   UNL     1       3.175  10.125  -3.445  0.00  0.00    +0.127 A 
ATOM     14  O   UNL     1       2.654   9.548  -2.330  0.00  0.00    -0.485 OA
ATOM     15  F   UNL     1       4.853  11.793  -6.821  0.00  0.00    -0.205 F 
ATOM     16  N   UNL     1       0.084   7.345  -1.473  0.00  0.00    +0.382 N 
ATOM     17  H   UNL     1      -0.835   7.718  -1.209  0.00  0.00    -0.082 HD
ENDROOT
BRANCH   7  18
ATOM     18  O   UNL     1       1.561  13.333  -3.425  0.00  0.00    -0.387 OA
ATOM     19  H   UNL     1       1.682  13.707  -4.309  0.00  0.00    +0.210 HD
ENDBRANCH   7  18
BRANCH  16  20
ATOM     20  C   UNL     1       0.041   5.870  -1.404  0.00  0.00    -0.042 C 
BRANCH  20  21
ATOM     21  C   UNL     1      -1.164   5.374  -2.205  0.00  0.00    +0.128 C 
BRANCH  21  26
ATOM     22  C   UNL     1      -0.752   1.706  -3.015  0.00  0.00    +0.120 A 
ATOM     23  C   UNL     1      -1.398   1.114  -1.939  0.00  0.00    +0.045 A 
ATOM     24  C   UNL     1      -1.959   1.901  -0.952  0.00  0.00    +0.004 A 
ATOM     25  C   UNL     1      -1.883   3.279  -1.039  0.00  0.00    +0.006 A 
ATOM     26  C   UNL     1      -1.245   3.872  -2.113  0.00  0.00    -0.017 A 
ATOM     27  C   UNL     1      -0.682   3.089  -3.102  0.00  0.00    +0.051 A 
BRANCH  22  29
ATOM     28  C   UNL     1      -0.310  -0.483  -3.831  0.00  0.00    +0.277 C 
ATOM     29  O   UNL     1      -0.195   0.933  -3.983  0.00  0.00    -0.495 OA
ENDBRANCH  22  29
ENDBRANCH  21  26
BRANCH  21  30
ATOM     30  O   UNL     1      -2.359   5.949  -1.672  0.00  0.00    -0.389 OA
ATOM     31  H   UNL     1      -2.522   5.728  -0.745  0.00  0.00    +0.210 HD
ENDBRANCH  21  30
ENDBRANCH  20  21
ENDBRANCH  16  20
TORSDOF 6
