REMARK  Name = ZINC21274935
REMARK  11 active torsions:
REMARK  status: ('A' for Active; 'I' for Inactive)
REMARK    1  A    between atoms: C_1  and  C_2
REMARK    2  A    between atoms: C_3  and  C_33
REMARK    3  A    between atoms: C_7  and  N_19
REMARK    4  A    between atoms: C_9  and  C_11
REMARK    5  A    between atoms: C_11  and  N_12
REMARK    6  A    between atoms: C_15  and  C_18
REMARK    7  A    between atoms: N_19  and  C_20
REMARK    8  A    between atoms: C_20  and  C_21
REMARK    9  A    between atoms: C_21  and  C_23
REMARK   10  A    between atoms: C_21  and  O_32
REMARK   11  A    between atoms: C_26  and  N_29
REMARK                            x       y       z     vdW  Elec       q    Type
REMARK                         _______ _______ _______ _____ _____    ______ ____
ROOT
ATOM      1  C   UNL     1       2.842   0.159   0.027  0.00  0.00    +0.045 C 
ATOM      2  C   UNL     1       2.549   1.637   0.032  0.00  0.00    -0.028 A 
ATOM      3  C   UNL     1       3.520   2.520   0.306  0.00  0.00    -0.008 A 
ATOM      4  S   UNL     1       2.693   4.096   0.192  0.00  0.00    -0.074 S 
ATOM      5  C   UNL     1       1.066   3.525  -0.221  0.00  0.00    +0.114 A 
ATOM      6  C   UNL     1       1.210   2.121  -0.259  0.00  0.00    +0.051 A 
ATOM      7  C   UNL     1       0.029   1.395  -0.574  0.00  0.00    +0.131 A 
ATOM      8  N   UNL     1      -1.092   2.058  -0.810  0.00  0.00    -0.219 NA
ATOM      9  C   UNL     1      -1.155   3.376  -0.753  0.00  0.00    +0.116 A 
ATOM     10  N   UNL     1      -0.093   4.104  -0.465  0.00  0.00    -0.227 NA
ATOM     11  C   UNL     1       4.965   2.247   0.633  0.00  0.00    +0.052 C 
ENDROOT
BRANCH   7  12
ATOM     12  N   UNL     1       0.052   0.013  -0.639  0.00  0.00    -0.326 N 
ATOM     13  H   UNL     1       1.006  -0.526  -0.541  0.00  0.00    +0.148 HD
BRANCH  12  14
ATOM     14  C   UNL     1      -1.193  -0.732  -0.837  0.00  0.00    +0.139 C 
BRANCH  14  15
ATOM     15  C   UNL     1      -0.891  -2.231  -0.871  0.00  0.00    +0.161 C 
BRANCH  15  16
ATOM     16  C   UNL     1      -2.151  -2.991  -1.197  0.00  0.00    -0.018 A 
ATOM     17  C   UNL     1      -3.082  -3.242  -0.207  0.00  0.00    +0.008 A 
ATOM     18  C   UNL     1      -4.240  -3.934  -0.507  0.00  0.00    +0.033 A 
ATOM     19  C   UNL     1      -4.463  -4.384  -1.795  0.00  0.00    +0.126 A 
ATOM     20  C   UNL     1      -3.529  -4.138  -2.784  0.00  0.00    +0.033 A 
ATOM     21  C   UNL     1      -2.373  -3.441  -2.485  0.00  0.00    +0.008 A 
BRANCH  19  22
ATOM     22  N   UNL     1      -5.700  -5.130  -2.115  0.00  0.00    +0.056 N 
ATOM     23  O   UNL     1      -5.896  -5.527  -3.250  0.00  0.00    -0.126 OA
ATOM     24  O   UNL     1      -6.523  -5.347  -1.244  0.00  0.00    -0.126 OA
ENDBRANCH  19  22
ENDBRANCH  15  16
BRANCH  15  25
ATOM     25  O   UNL     1      -0.400  -2.647   0.405  0.00  0.00    -0.386 OA
ATOM     26  H   UNL     1      -0.127  -3.700   0.573  0.00  0.00    +0.210 HD
ENDBRANCH  15  25
ENDBRANCH  14  15
ENDBRANCH  12  14
ENDBRANCH   7  12
BRANCH   9  27
ATOM     27  C   UNL     1      -2.467   4.063  -1.027  0.00  0.00    -0.001 C 
BRANCH  27  28
ATOM     28  N   UNL     1      -2.576   4.355  -2.463  0.00  0.00    +0.384 N 
ATOM     29  C   UNL     1      -2.184   3.191  -3.268  0.00  0.00    -0.078 C 
ATOM     30  C   UNL     1      -2.170   3.575  -4.749  0.00  0.00    -0.016 C 
ATOM     31  C   UNL     1      -3.564   4.057  -5.160  0.00  0.00    -0.018 C 
ATOM     32  C   UNL     1      -3.968   5.239  -4.274  0.00  0.00    -0.016 C 
ATOM     33  C   UNL     1      -3.931   4.807  -2.807  0.00  0.00    -0.078 C 
ATOM     34  C   UNL     1      -3.541   4.500  -6.624  0.00  0.00    +0.007 C 
ATOM     35  H   UNL     1      -1.880   5.174  -2.697  0.00  0.00    -0.081 HD
ENDBRANCH  27  28
ENDBRANCH   9  27
TORSDOF 8
