REMARK  Name = ZINC21723678
REMARK  3 active torsions:
REMARK  status: ('A' for Active; 'I' for Inactive)
REMARK    1  A    between atoms: C_3  and  C_17
REMARK    2  A    between atoms: C_7  and  C_10
REMARK    3  A    between atoms: N_19  and  C_20
REMARK                            x       y       z     vdW  Elec       q    Type
REMARK                         _______ _______ _______ _____ _____    ______ ____
ROOT
ATOM      1  C   UNL     1      -2.578   3.969   0.049  0.00  0.00    +0.019 A 
ATOM      2  C   UNL     1      -1.340   3.320   0.038  0.00  0.00    +0.018 A 
ATOM      3  C   UNL     1      -1.300   1.931   0.025  0.00  0.00    +0.081 A 
ATOM      4  C   UNL     1      -2.569   1.202   0.017  0.00  0.00    +0.174 A 
ATOM      5  N   UNL     1      -2.884  -0.079   0.011  0.00  0.00    -0.128 NA
ATOM      6  N   UNL     1      -4.164  -0.212   0.013  0.00  0.00    -0.128 NA
ATOM      7  C   UNL     1      -4.744   0.971   0.027  0.00  0.00    +0.169 A 
ATOM      8  N   UNL     1      -3.746   1.911   0.033  0.00  0.00    -0.282 N 
ATOM      9  C   UNL     1      -3.735   3.270   0.046  0.00  0.00    +0.095 A 
ENDROOT
BRANCH   7  10
ATOM     10  C   UNL     1      -6.197   1.236   0.033  0.00  0.00    +0.020 A 
ATOM     11  C   UNL     1      -6.682   2.473   0.460  0.00  0.00    +0.014 A 
ATOM     12  C   UNL     1      -8.040   2.717   0.458  0.00  0.00    +0.039 A 
ATOM     13  C   UNL     1      -8.923   1.732   0.045  0.00  0.00    +0.123 A 
ATOM     14  C   UNL     1      -8.447   0.499  -0.374  0.00  0.00    +0.039 A 
ATOM     15  C   UNL     1      -7.091   0.247  -0.382  0.00  0.00    +0.014 A 
ATOM     16  F   UNL     1     -10.252   1.973   0.051  0.00  0.00    -0.205 F 
ENDBRANCH   7  10
BRANCH   3  17
ATOM     17  C   UNL     1      -0.014   1.212   0.013  0.00  0.00    +0.248 C 
ATOM     18  O   UNL     1       0.002  -0.004   0.002  0.00  0.00    -0.270 OA
ATOM     19  N   UNL     1       1.143   1.902   0.009  0.00  0.00    -0.300 N 
ATOM     20  H   UNL     1       1.129   3.002   0.020  0.00  0.00    +0.150 HD
BRANCH  19  21
ATOM     21  C   UNL     1       2.422   1.187  -0.009  0.00  0.00    +0.159 C 
ATOM     22  C   UNL     1       3.509   2.091  -0.596  0.00  0.00    +0.032 C 
ATOM     23  C   UNL     1       4.638   1.262  -1.184  0.00  0.00    +0.004 C 
ATOM     24  C   UNL     1       5.429   0.483  -0.149  0.00  0.00    +0.019 C 
ATOM     25  C   UNL     1       4.568  -0.609   0.488  0.00  0.00    +0.104 C 
ATOM     26  N   UNL     1       3.830  -0.025   1.621  0.00  0.00    -0.314 N 
ATOM     27  C   UNL     1       2.818   0.817   1.405  0.00  0.00    +0.233 C 
ATOM     28  O   UNL     1       2.213   1.287   2.345  0.00  0.00    -0.274 OA
ATOM     29  H   UNL     1       4.111  -0.283   2.652  0.00  0.00    +0.149 HD
ENDBRANCH  19  21
ENDBRANCH   3  17
TORSDOF 3
