REMARK  Name = ZINC43549229
REMARK  7 active torsions:
REMARK  status: ('A' for Active; 'I' for Inactive)
REMARK    1  A    between atoms: C_1  and  C_2
REMARK    2  A    between atoms: C_7  and  C_9
REMARK    3  A    between atoms: C_16  and  C_37
REMARK    4  A    between atoms: C_19  and  O_36
REMARK    5  A    between atoms: C_21  and  C_25
REMARK    6  A    between atoms: C_25  and  C_27
REMARK    7  A    between atoms: C_25  and  C_28
REMARK                            x       y       z     vdW  Elec       q    Type
REMARK                         _______ _______ _______ _____ _____    ______ ____
ROOT
ATOM      1  C   UNL     1      -0.581   1.369  -0.123  0.00  0.00    +0.014 C 
ATOM      2  C   UNL     1      -0.536  -0.157  -0.031  0.00  0.00    +0.042 C 
ATOM      3  C   UNL     1      -1.887  -0.678   0.451  0.00  0.00    +0.056 A 
ATOM      4  C   UNL     1      -2.041  -1.056   1.750  0.00  0.00    +0.014 A 
ATOM      5  S   UNL     1      -3.739  -1.570   1.808  0.00  0.00    -0.070 S 
ATOM      6  C   UNL     1      -4.111  -1.242   0.088  0.00  0.00    +0.128 A 
ATOM      7  N   UNL     1      -2.945  -0.788  -0.343  0.00  0.00    -0.242 NA
ATOM      8  C   UNL     1      -1.025  -1.037   2.838  0.00  0.00    +0.051 C 
ATOM      9  C   UNL     1       0.169  -0.176   2.388  0.00  0.00    -0.022 C 
ATOM     10  C   UNL     1       0.547  -0.576   0.956  0.00  0.00    +0.033 C 
ATOM     11  C   UNL     1       0.776  -2.086   0.899  0.00  0.00    +0.123 C 
ATOM     12  C   UNL     1       1.937  -2.450   1.829  0.00  0.00    +0.029 C 
ATOM     13  C   UNL     1       1.611  -2.017   3.259  0.00  0.00    +0.007 C 
ATOM     14  C   UNL     1       1.358  -0.506   3.303  0.00  0.00    +0.008 C 
ATOM     15  C   UNL     1      -0.178   1.312   2.471  0.00  0.00    +0.012 C 
ENDROOT
BRANCH   6  16
ATOM     16  C   UNL     1      -5.378  -1.427  -0.650  0.00  0.00    +0.113 A 
ATOM     17  C   UNL     1      -6.546  -1.896  -0.133  0.00  0.00    +0.114 A 
ATOM     18  N   UNL     1      -7.452  -1.905  -1.155  0.00  0.00    -0.350 N 
ATOM     19  H   UNL     1      -8.378  -2.188  -1.100  0.00  0.00    +0.166 HD
ATOM     20  C   UNL     1      -6.818  -1.444  -2.263  0.00  0.00    +0.197 A 
ATOM     21  N   UNL     1      -5.585  -1.155  -1.956  0.00  0.00    -0.234 NA
ENDBRANCH   6  16
BRANCH  12  22
ATOM     22  C   UNL     1       2.159  -3.964   1.796  0.00  0.00    +0.078 C 
ATOM     23  C   UNL     1       0.933  -4.672   2.375  0.00  0.00    +0.017 C 
BRANCH  22  24
ATOM     24  C   UNL     1       3.374  -4.311   2.617  0.00  0.00    +0.219 C 
ATOM     25  O   UNL     1       3.248  -4.652   3.774  0.00  0.00    -0.275 OA
ATOM     26  N   UNL     1       4.602  -4.244   2.065  0.00  0.00    -0.300 N 
ATOM     27  C   UNL     1       4.757  -3.717   0.708  0.00  0.00    +0.118 C 
ATOM     28  C   UNL     1       5.548  -2.405   0.757  0.00  0.00    +0.088 C 
ATOM     29  S   UNL     1       7.149  -2.720   1.560  0.00  0.00    -0.158 S 
ATOM     30  C   UNL     1       6.676  -3.502   3.132  0.00  0.00    +0.088 C 
ATOM     31  C   UNL     1       5.765  -4.692   2.833  0.00  0.00    +0.118 C 
ENDBRANCH  22  24
ENDBRANCH  12  22
BRANCH  11  32
ATOM     32  O   UNL     1       1.094  -2.471  -0.439  0.00  0.00    -0.391 OA
ATOM     33  H   UNL     1       1.174  -3.427  -0.565  0.00  0.00    +0.210 HD
ENDBRANCH  11  32
TORSDOF 4
