REMARK  Name = ZINC01421866
REMARK  6 active torsions:
REMARK  status: ('A' for Active; 'I' for Inactive)
REMARK    1  A    between atoms: C_1  and  C_2
REMARK    2  A    between atoms: C_2  and  C_35
REMARK    3  A    between atoms: C_19  and  C_33
REMARK    4  A    between atoms: C_20  and  N_32
REMARK    5  A    between atoms: N_21  and  C_22
REMARK    6  A    between atoms: C_27  and  C_28
REMARK                            x       y       z     vdW  Elec       q    Type
REMARK                         _______ _______ _______ _____ _____    ______ ____
ROOT
ATOM      1  C   UNL     1       0.034  -1.812   2.318  0.00  0.00    +0.011 C 
ATOM      2  C   UNL     1      -0.838  -2.073   1.089  0.00  0.00    -0.023 C 
ATOM      3  C   UNL     1      -1.236  -0.741   0.448  0.00  0.00    +0.058 C 
ATOM      4  C   UNL     1       0.002  -0.004   0.002  0.00  0.00    +0.026 C 
ATOM      5  C   UNL     1       1.104  -0.675  -0.398  0.00  0.00    +0.037 C 
ATOM      6  C   UNL     1       1.136  -2.080  -0.399  0.00  0.00    +0.163 C 
ATOM      7  O   UNL     1       2.138  -2.653  -0.780  0.00  0.00    -0.292 OA
ATOM      8  C   UNL     1      -0.047  -2.888   0.060  0.00  0.00    +0.086 C 
ATOM      9  C   UNL     1       2.334   0.067  -0.854  0.00  0.00    +0.141 C 
ATOM     10  C   UNL     1       2.482  -0.022  -2.342  0.00  0.00    -0.002 A 
ATOM     11  C   UNL     1       1.674   0.424  -3.366  0.00  0.00    +0.007 A 
ATOM     12  C   UNL     1       2.109   0.177  -4.664  0.00  0.00    +0.000 A 
ATOM     13  C   UNL     1       3.295  -0.484  -4.912  0.00  0.00    +0.002 A 
ATOM     14  C   UNL     1       4.111  -0.935  -3.887  0.00  0.00    +0.023 A 
ATOM     15  C   UNL     1       3.686  -0.694  -2.579  0.00  0.00    +0.038 A 
ATOM     16  N   UNL     1       4.293  -1.030  -1.382  0.00  0.00    -0.284 N 
ATOM     17  C   UNL     1       3.571  -0.625  -0.317  0.00  0.00    +0.238 C 
ATOM     18  O   UNL     1       3.859  -0.784   0.850  0.00  0.00    -0.274 OA
ATOM     19  C   UNL     1       2.313   1.497  -0.404  0.00  0.00    +0.089 C 
ATOM     20  C   UNL     1       1.157   2.085   0.002  0.00  0.00    +0.108 C 
ATOM     21  N   UNL     1      -0.017   1.366   0.010  0.00  0.00    -0.260 N 
ATOM     22  C   UNL     1      -2.095  -2.841   1.503  0.00  0.00    +0.011 C 
ATOM     23  H   UNL     1       5.139  -1.500  -1.317  0.00  0.00    +0.155 HD
ENDROOT
BRANCH  21  24
ATOM     24  C   UNL     1      -1.242   2.041   0.019  0.00  0.00    +0.051 A 
ATOM     25  C   UNL     1      -1.849   2.366   1.226  0.00  0.00    +0.024 A 
ATOM     26  C   UNL     1      -3.056   3.037   1.232  0.00  0.00    +0.002 A 
ATOM     27  C   UNL     1      -3.665   3.377   0.038  0.00  0.00    +0.001 A 
ATOM     28  C   UNL     1      -3.067   3.051  -1.165  0.00  0.00    +0.014 A 
ATOM     29  C   UNL     1      -1.857   2.384  -1.178  0.00  0.00    +0.076 A 
BRANCH  29  30
ATOM     30  C   UNL     1      -1.206   2.029  -2.490  0.00  0.00    +0.419 C 
ATOM     31  F   UNL     1      -2.008   2.474  -3.545  0.00  0.00    -0.166 F 
ATOM     32  F   UNL     1       0.050   2.642  -2.568  0.00  0.00    -0.166 F 
ATOM     33  F   UNL     1      -1.053   0.641  -2.574  0.00  0.00    -0.166 F 
ENDBRANCH  29  30
ENDBRANCH  21  24
BRANCH  20  34
ATOM     34  N   UNL     1       1.160   3.398   0.405  0.00  0.00    -0.345 N 
ATOM     35  H   UNL     1       0.335   3.819   0.695  0.00  0.00    +0.144 HD
ATOM     36  H   UNL     1       1.987   3.906   0.400  0.00  0.00    +0.144 HD
ENDBRANCH  20  34
BRANCH  19  37
ATOM     37  C   UNL     1       3.529   2.253  -0.401  0.00  0.00    +0.100 C 
ATOM     38  N   UNL     1       4.494   2.854  -0.398  0.00  0.00    -0.191 NA
ENDBRANCH  19  37
TORSDOF 4
