REMARK  Name = ZINC63520803
REMARK  10 active torsions:
REMARK  status: ('A' for Active; 'I' for Inactive)
REMARK    1  A    between atoms: C_1  and  O_2
REMARK    2  A    between atoms: O_2  and  C_3
REMARK    3  A    between atoms: C_6  and  C_9
REMARK    4  A    between atoms: C_11  and  C_27
REMARK    5  A    between atoms: C_11  and  O_35
REMARK    6  A    between atoms: N_12  and  C_16
REMARK    7  A    between atoms: C_16  and  C_17
REMARK    8  A    between atoms: C_17  and  C_18
REMARK    9  A    between atoms: C_30  and  O_33
REMARK   10  A    between atoms: O_33  and  C_34
REMARK                            x       y       z     vdW  Elec       q    Type
REMARK                         _______ _______ _______ _____ _____    ______ ____
ROOT
ATOM      1  C   UNL     1       2.505  -2.503  -4.381  0.00  0.00    +0.263 C 
ATOM      2  C   UNL     1       1.462  -2.935  -5.440  0.00  0.00    +0.206 C 
ATOM      3  N   UNL     1       2.008  -4.224  -5.908  0.00  0.00    -0.231 N 
ATOM      4  C   UNL     1       2.945  -4.618  -5.025  0.00  0.00    +0.406 C 
ATOM      5  O   UNL     1       3.599  -5.634  -5.147  0.00  0.00    -0.226 OA
ATOM      6  O   UNL     1       3.080  -3.766  -3.994  0.00  0.00    -0.437 OA
ENDROOT
BRANCH   1  10
ATOM      7  C   UNL     1       0.606  -0.607  -1.056  0.00  0.00    +0.120 A 
ATOM      8  C   UNL     1       1.173   0.161  -2.062  0.00  0.00    +0.046 A 
ATOM      9  C   UNL     1       1.786  -0.455  -3.136  0.00  0.00    +0.011 A 
ATOM     10  C   UNL     1       1.835  -1.835  -3.209  0.00  0.00    -0.002 A 
ATOM     11  C   UNL     1       1.270  -2.602  -2.207  0.00  0.00    +0.011 A 
ATOM     12  C   UNL     1       0.661  -1.992  -1.128  0.00  0.00    +0.046 A 
BRANCH   7  14
ATOM     13  C   UNL     1      -0.017   1.425   0.010  0.00  0.00    +0.277 C 
ATOM     14  O   UNL     1       0.002  -0.004   0.002  0.00  0.00    -0.495 OA
ENDBRANCH   7  14
ENDBRANCH   1  10
BRANCH   2  15
ATOM     15  C   UNL     1       0.105  -3.122  -4.812  0.00  0.00    +0.007 A 
ATOM     16  C   UNL     1      -0.256  -4.357  -4.305  0.00  0.00    +0.012 A 
ATOM     17  C   UNL     1      -1.499  -4.532  -3.729  0.00  0.00    +0.046 A 
ATOM     18  C   UNL     1      -2.386  -3.467  -3.659  0.00  0.00    +0.120 A 
ATOM     19  C   UNL     1      -2.021  -2.229  -4.168  0.00  0.00    +0.046 A 
ATOM     20  C   UNL     1      -0.774  -2.058  -4.739  0.00  0.00    +0.012 A 
BRANCH  18  21
ATOM     21  O   UNL     1      -3.610  -3.636  -3.094  0.00  0.00    -0.495 OA
ATOM     22  C   UNL     1      -4.471  -2.496  -3.056  0.00  0.00    +0.277 C 
ENDBRANCH  18  21
ENDBRANCH   2  15
BRANCH   2  23
ATOM     23  O   UNL     1       1.403  -1.989  -6.510  0.00  0.00    -0.364 OA
ATOM     24  H   UNL     1       0.764  -2.215  -7.200  0.00  0.00    +0.213 HD
ENDBRANCH   2  23
BRANCH   3  25
ATOM     25  C   UNL     1       1.602  -4.946  -7.117  0.00  0.00    +0.119 C 
BRANCH  25  26
ATOM     26  C   UNL     1       2.469  -4.497  -8.294  0.00  0.00    +0.052 C 
BRANCH  26  27
ATOM     27  C   UNL     1       2.052  -5.240  -9.537  0.00  0.00    -0.040 C 
ATOM     28  C   UNL     1       1.187  -4.815 -10.486  0.00  0.00    -0.001 A 
ATOM     29  C   UNL     1       0.404  -3.583 -10.639  0.00  0.00    +0.010 A 
ATOM     30  C   UNL     1      -0.394  -3.442 -11.722  0.00  0.00    +0.001 A 
ATOM     31  C   UNL     1      -0.493  -4.442 -12.699  0.00  0.00    +0.002 A 
ATOM     32  C   UNL     1       0.195  -5.602 -12.629  0.00  0.00    +0.026 A 
ATOM     33  C   UNL     1       1.065  -5.855 -11.533  0.00  0.00    +0.043 A 
ATOM     34  N   UNL     1       1.826  -6.883 -11.242  0.00  0.00    -0.380 N 
ATOM     35  C   UNL     1       2.521  -6.608  -9.980  0.00  0.00    +0.144 C 
ATOM     36  H   UNL     1       1.917  -7.689 -11.774  0.00  0.00    +0.160 HD
ENDBRANCH  26  27
ENDBRANCH  25  26
ENDBRANCH   3  25
TORSDOF 8
