REMARK  Name = ZINC36926155
REMARK  3 active torsions:
REMARK  status: ('A' for Active; 'I' for Inactive)
REMARK    1  A    between atoms: C_6  and  C_7
REMARK    2  A    between atoms: C_7  and  C_9
REMARK    3  A    between atoms: C_7  and  N_21
REMARK                            x       y       z     vdW  Elec       q    Type
REMARK                         _______ _______ _______ _____ _____    ______ ____
ROOT
ATOM      1  C   UNL     1      -1.293  -0.775   0.010  0.00  0.00    -0.012 C 
ENDROOT
BRANCH   1   2
ATOM      2  C   UNL     1      -1.612  -1.236  -1.389  0.00  0.00    -0.040 A 
ATOM      3  C   UNL     1      -1.340  -2.541  -1.763  0.00  0.00    +0.052 A 
ATOM      4  C   UNL     1      -1.635  -2.961  -3.049  0.00  0.00    +0.162 A 
ATOM      5  C   UNL     1      -2.200  -2.077  -3.957  0.00  0.00    +0.163 A 
ATOM      6  C   UNL     1      -2.470  -0.773  -3.580  0.00  0.00    +0.065 A 
ATOM      7  C   UNL     1      -2.180  -0.357  -2.292  0.00  0.00    +0.023 A 
ATOM      8 BR   UNL     1      -2.555   1.421  -1.768  0.00  0.00    -0.050 Br
ATOM      9  O   UNL     1      -2.487  -2.502  -5.222  0.00  0.00    -0.488 OA
ATOM     10  C   UNL     1      -1.362  -2.800  -6.052  0.00  0.00    +0.232 C 
ATOM     11  C   UNL     1      -0.872  -4.218  -5.806  0.00  0.00    +0.082 C 
ATOM     12  C   UNL     1      -0.333  -4.409  -4.397  0.00  0.00    +0.232 C 
ATOM     13  O   UNL     1      -1.373  -4.245  -3.431  0.00  0.00    -0.488 OA
ENDBRANCH   1   2
BRANCH   1  19
ATOM     14  C   UNL     1      -0.017   1.378   0.010  0.00  0.00    +0.003 A 
ATOM     15  C   UNL     1       1.171   2.086   0.002  0.00  0.00    +0.015 A 
ATOM     16  C   UNL     1       2.378   1.411  -0.013  0.00  0.00    +0.018 A 
ATOM     17  C   UNL     1       2.396   0.027  -0.021  0.00  0.00    +0.015 A 
ATOM     18  C   UNL     1       1.208  -0.679  -0.013  0.00  0.00    +0.003 A 
ATOM     19  C   UNL     1       0.002  -0.004   0.002  0.00  0.00    -0.058 A 
ATOM     20 BR   UNL     1       4.003   2.378  -0.024  0.00  0.00    -0.050 Br
ENDBRANCH   1  19
BRANCH   1  21
ATOM     21  N   UNL     1      -1.162  -1.942   0.893  0.00  0.00    +0.385 N 
ATOM     22  H   UNL     1      -0.419  -2.536   0.557  0.00  0.00    -0.089 HD
ATOM     23  H   UNL     1      -0.949  -1.633   1.830  0.00  0.00    -0.089 HD
ATOM     24  H   UNL     1      -2.029  -2.458   0.899  0.00  0.00    -0.089 HD
ENDBRANCH   1  21
TORSDOF 3
