REMARK  Name = ZINC07738487
REMARK  8 active torsions:
REMARK  status: ('A' for Active; 'I' for Inactive)
REMARK    1  A    between atoms: C_1  and  S_2
REMARK    2  A    between atoms: S_2  and  C_3
REMARK    3  A    between atoms: C_3  and  C_4
REMARK    4  A    between atoms: C_4  and  C_5
REMARK    5  A    between atoms: C_5  and  C_7
REMARK    6  A    between atoms: C_5  and  N_17
REMARK    7  A    between atoms: C_18  and  C_20
REMARK    8  A    between atoms: C_25  and  N_26
REMARK                            x       y       z     vdW  Elec       q    Type
REMARK                         _______ _______ _______ _____ _____    ______ ____
ROOT
ATOM      1  C   UNL     1      -2.082   0.341  -0.663  0.00  0.00    +0.140 C 
ENDROOT
BRANCH   1   2
ATOM      2  C   UNL     1      -3.379   1.091  -0.507  0.00  0.00    +0.129 A 
ATOM      3  N   UNL     1      -4.252   0.931   0.524  0.00  0.00    -0.340 N 
ATOM      4  H   UNL     1      -4.148   0.306   1.298  0.00  0.00    +0.167 HD
ATOM      5  C   UNL     1      -5.309   1.792   0.304  0.00  0.00    +0.066 A 
ATOM      6  C   UNL     1      -6.481   2.078   0.991  0.00  0.00    +0.028 A 
ATOM      7  C   UNL     1      -7.354   3.020   0.488  0.00  0.00    +0.002 A 
ATOM      8  C   UNL     1      -7.068   3.681  -0.698  0.00  0.00    +0.002 A 
ATOM      9  C   UNL     1      -5.920   3.412  -1.387  0.00  0.00    +0.030 A 
ATOM     10  C   UNL     1      -5.020   2.462  -0.897  0.00  0.00    +0.089 A 
ATOM     11  N   UNL     1      -3.826   1.989  -1.336  0.00  0.00    -0.231 NA
ENDBRANCH   1   2
BRANCH   1  12
ATOM     12  N   UNL     1      -0.961   1.280  -0.570  0.00  0.00    -0.301 N 
ATOM     13  C   UNL     1       0.253   0.843  -0.179  0.00  0.00    +0.247 C 
ATOM     14  O   UNL     1       0.418  -0.330   0.096  0.00  0.00    -0.270 OA
ATOM     15  H   UNL     1      -1.092   2.215  -0.789  0.00  0.00    +0.150 HD
BRANCH  13  16
ATOM     16  C   UNL     1       1.384   1.788  -0.090  0.00  0.00    +0.062 A 
ATOM     17  C   UNL     1       1.713   2.593  -1.183  0.00  0.00    +0.015 A 
ATOM     18  C   UNL     1       2.770   3.474  -1.094  0.00  0.00    +0.001 A 
ATOM     19  C   UNL     1       3.508   3.564   0.075  0.00  0.00    +0.002 A 
ATOM     20  C   UNL     1       3.193   2.774   1.163  0.00  0.00    +0.028 A 
ATOM     21  C   UNL     1       2.129   1.887   1.092  0.00  0.00    +0.081 A 
BRANCH  21  22
ATOM     22  N   UNL     1       1.805   1.089   2.195  0.00  0.00    -0.200 N 
ATOM     23  C   UNL     1       2.491   0.973   3.354  0.00  0.00    +0.250 A 
ATOM     24  N   UNL     1       1.839   0.128   4.108  0.00  0.00    -0.116 NA
ATOM     25  N   UNL     1       0.792  -0.304   3.503  0.00  0.00    -0.023 NA
ATOM     26  N   UNL     1       0.700   0.232   2.333  0.00  0.00    -0.039 NA
ENDBRANCH  21  22
ENDBRANCH  13  16
ENDBRANCH   1  12
BRANCH   1  27
ATOM     27  C   UNL     1      -2.054  -0.352  -2.027  0.00  0.00    +0.041 C 
BRANCH  27  28
ATOM     28  C   UNL     1      -0.794  -1.213  -2.136  0.00  0.00    +0.071 C 
BRANCH  28  30
ATOM     29  C   UNL     1       0.772  -3.003  -3.723  0.00  0.00    +0.084 C 
ATOM     30  S   UNL     1      -0.761  -2.035  -3.753  0.00  0.00    -0.164 S 
ENDBRANCH  28  30
ENDBRANCH  27  28
ENDBRANCH   1  27
TORSDOF 7
