REMARK  Name = ZINC55493789
REMARK  5 active torsions:
REMARK  status: ('A' for Active; 'I' for Inactive)
REMARK    1  A    between atoms: C_3  and  O_12
REMARK    2  A    between atoms: C_6  and  C_7
REMARK    3  A    between atoms: C_8  and  C_9
REMARK    4  A    between atoms: O_12  and  C_13
REMARK    5  A    between atoms: C_13  and  C_14
REMARK                            x       y       z     vdW  Elec       q    Type
REMARK                         _______ _______ _______ _____ _____    ______ ____
ROOT
ATOM      1  C   UNL     1       5.936   2.293  -0.045  0.00  0.00    +0.149 A 
ATOM      2  N   UNL     1       7.193   1.780  -0.066  0.00  0.00    -0.308 N 
ATOM      3  H   UNL     1       7.314   0.818  -0.076  0.00  0.00    +0.170 HD
ATOM      4  C   UNL     1       8.276   2.581  -0.073  0.00  0.00    +0.260 A 
ATOM      5  O   UNL     1       9.399   2.107  -0.092  0.00  0.00    -0.267 OA
ATOM      6  C   UNL     1       8.083   4.001  -0.058  0.00  0.00    +0.075 A 
ATOM      7  C   UNL     1       9.109   5.055  -0.062  0.00  0.00    -0.023 A 
ATOM      8  C   UNL     1       8.673   6.326  -0.044  0.00  0.00    -0.004 A 
ATOM      9  S   UNL     1       6.899   6.204  -0.024  0.00  0.00    -0.073 S 
ATOM     10  C   UNL     1       6.752   4.436  -0.037  0.00  0.00    +0.116 A 
ATOM     11  N   UNL     1       5.731   3.583  -0.036  0.00  0.00    -0.223 NA
ATOM     12  C   UNL     1       9.807   7.316  -0.045  0.00  0.00    +0.043 C 
ATOM     13  C   UNL     1      11.044   6.488   0.368  0.00  0.00    +0.010 C 
ATOM     14  C   UNL     1      10.640   5.072  -0.086  0.00  0.00    +0.037 C 
ENDROOT
BRANCH   1  15
ATOM     15  C   UNL     1       4.755   1.357  -0.038  0.00  0.00    +0.303 C 
BRANCH  15  16
ATOM     16  O   UNL     1       3.545   2.116  -0.022  0.00  0.00    -0.484 OA
BRANCH  16  19
ATOM     17  C   UNL     1      -0.017   1.396   0.010  0.00  0.00    +0.011 A 
ATOM     18  C   UNL     1       1.167   2.098   0.002  0.00  0.00    +0.046 A 
ATOM     19  C   UNL     1       2.380   1.419  -0.013  0.00  0.00    +0.121 A 
ATOM     20  C   UNL     1       2.405   0.029  -0.021  0.00  0.00    +0.046 A 
ATOM     21  C   UNL     1       1.227  -0.683  -0.013  0.00  0.00    +0.011 A 
ATOM     22  C   UNL     1       0.002  -0.004   0.002  0.00  0.00    -0.025 A 
BRANCH  22  23
ATOM     23  C   UNL     1      -1.258  -0.758   0.011  0.00  0.00    +0.015 C 
ATOM     24  C   UNL     1      -1.237  -2.111   0.003  0.00  0.00    +0.096 C 
BRANCH  24  25
ATOM     25  C   UNL     1      -2.450  -2.837   0.011  0.00  0.00    +0.380 C 
ATOM     26  O   UNL     1      -3.520  -2.241   0.025  0.00  0.00    -0.241 OA
ATOM     27  O   UNL     1      -2.431  -4.062   0.004  0.00  0.00    -0.241 OA
ENDBRANCH  24  25
ENDBRANCH  22  23
ENDBRANCH  16  19
ENDBRANCH  15  16
ENDBRANCH   1  15
TORSDOF 5
