REMARK  Name = ZINC39709849
REMARK  12 active torsions:
REMARK  status: ('A' for Active; 'I' for Inactive)
REMARK    1  A    between atoms: C_1  and  C_2
REMARK    2  A    between atoms: C_5  and  C_8
REMARK    3  A    between atoms: C_11  and  S_18
REMARK    4  A    between atoms: N_12  and  C_13
REMARK    5  A    between atoms: C_13  and  C_14
REMARK    6  A    between atoms: C_14  and  C_15
REMARK    7  A    between atoms: S_18  and  C_19
REMARK    8  A    between atoms: C_19  and  C_21
REMARK    9  A    between atoms: C_19  and  C_22
REMARK   10  A    between atoms: N_24  and  C_25
REMARK   11  A    between atoms: C_30  and  C_35
REMARK   12  A    between atoms: C_32  and  C_34
REMARK                            x       y       z     vdW  Elec       q    Type
REMARK                         _______ _______ _______ _____ _____    ______ ____
ROOT
ATOM      1  C   UNL     1       0.036  -4.252  -0.013  0.00  0.00    +0.165 A 
ATOM      2  N   UNL     1      -0.305  -5.031  -1.013  0.00  0.00    -0.128 NA
ATOM      3  N   UNL     1      -0.138  -6.262  -0.686  0.00  0.00    -0.122 NA
ATOM      4  C   UNL     1       0.320  -6.345   0.543  0.00  0.00    +0.193 A 
ATOM      5  N   UNL     1       0.453  -5.070   1.012  0.00  0.00    -0.302 N 
ENDROOT
BRANCH   1  10
ATOM      6  C   UNL     1      -0.149   1.499   0.059  0.00  0.00    +0.044 C 
ATOM      7  C   UNL     1      -0.100  -0.007   0.040  0.00  0.00    -0.050 A 
ATOM      8  C   UNL     1      -0.112  -0.681  -1.168  0.00  0.00    +0.004 A 
ATOM      9  C   UNL     1      -0.068  -2.060  -1.192  0.00  0.00    +0.012 A 
ATOM     10  C   UNL     1      -0.011  -2.774   0.005  0.00  0.00    +0.019 A 
ATOM     11  C   UNL     1       0.001  -2.088   1.221  0.00  0.00    +0.012 A 
ATOM     12  C   UNL     1      -0.038  -0.709   1.231  0.00  0.00    +0.004 A 
ENDBRANCH   1  10
BRANCH   5  13
ATOM     13  C   UNL     1       0.934  -4.658   2.333  0.00  0.00    +0.137 C 
BRANCH  13  14
ATOM     14  C   UNL     1      -0.232  -4.656   3.323  0.00  0.00    +0.147 C 
BRANCH  14  15
ATOM     15  C   UNL     1       0.264  -4.232   4.682  0.00  0.00    +0.358 C 
ATOM     16  O   UNL     1       1.441  -3.958   4.843  0.00  0.00    -0.246 OA
ATOM     17  O   UNL     1      -0.512  -4.164   5.620  0.00  0.00    -0.246 OA
ENDBRANCH  14  15
ENDBRANCH  13  14
ENDBRANCH   5  13
BRANCH   4  18
ATOM     18  S   UNL     1       0.700  -7.826   1.419  0.00  0.00    -0.074 S 
BRANCH  18  19
ATOM     19  C   UNL     1       0.311  -9.147   0.238  0.00  0.00    +0.137 C 
ATOM     20  C   UNL     1       1.259  -9.056  -0.960  0.00  0.00    +0.029 C 
BRANCH  19  21
ATOM     21  C   UNL     1       0.477 -10.486   0.909  0.00  0.00    +0.226 C 
ATOM     22  O   UNL     1       1.151 -10.581   1.913  0.00  0.00    -0.275 OA
ATOM     23  N   UNL     1      -0.123 -11.577   0.394  0.00  0.00    -0.311 N 
ATOM     24  H   UNL     1      -0.661 -11.501  -0.409  0.00  0.00    +0.149 HD
BRANCH  23  25
ATOM     25  C   UNL     1       0.039 -12.879   1.046  0.00  0.00    +0.076 C 
ATOM     26  C   UNL     1       1.330 -13.538   0.557  0.00  0.00    +0.022 C 
ATOM     27  C   UNL     1       1.498 -14.897   1.238  0.00  0.00    +0.002 C 
ATOM     28  C   UNL     1       0.306 -15.792   0.893  0.00  0.00    +0.003 C 
ATOM     29  C   UNL     1      -0.985 -15.133   1.383  0.00  0.00    -0.009 C 
ATOM     30  C   UNL     1      -1.153 -13.774   0.701  0.00  0.00    +0.009 C 
ATOM     31  C   UNL     1      -1.223 -13.968  -0.815  0.00  0.00    +0.009 C 
ATOM     32  C   UNL     1      -2.177 -16.028   1.037  0.00  0.00    +0.008 C 
ENDBRANCH  23  25
ENDBRANCH  19  21
ENDBRANCH  18  19
ENDBRANCH   4  18
TORSDOF 8
