REMARK  Name = ZINC62038778
REMARK  8 active torsions:
REMARK  status: ('A' for Active; 'I' for Inactive)
REMARK    1  A    between atoms: C_1  and  C_2
REMARK    2  A    between atoms: C_2  and  C_4
REMARK    3  A    between atoms: C_2  and  S_16
REMARK    4  A    between atoms: N_6  and  C_7
REMARK    5  A    between atoms: C_9  and  C_14
REMARK    6  A    between atoms: C_12  and  O_13
REMARK    7  A    between atoms: S_16  and  C_17
REMARK    8  A    between atoms: C_22  and  C_27
REMARK                            x       y       z     vdW  Elec       q    Type
REMARK                         _______ _______ _______ _____ _____    ______ ____
ROOT
ATOM      1  S   UNL     1       0.856  -0.565  -1.489  0.00  0.00    -0.075 S 
ENDROOT
BRANCH   1   2
ATOM      2  C   UNL     1      -0.181  -0.019  -2.805  0.00  0.00    +0.171 A 
ATOM      3  N   UNL     1      -1.279   0.650  -2.525  0.00  0.00    -0.185 NA
ATOM      4  C   UNL     1      -2.109   1.092  -3.475  0.00  0.00    +0.283 A 
ATOM      5  O   UNL     1      -3.118   1.710  -3.173  0.00  0.00    -0.265 OA
ATOM      6  C   UNL     1      -1.793   0.827  -4.896  0.00  0.00    +0.083 A 
ATOM      7  C   UNL     1      -2.533   1.202  -6.097  0.00  0.00    +0.039 A 
ATOM      8  C   UNL     1      -2.035   0.841  -7.307  0.00  0.00    +0.059 A 
ATOM      9  S   UNL     1      -0.537  -0.029  -6.889  0.00  0.00    -0.078 S 
ATOM     10  C   UNL     1      -0.615   0.113  -5.124  0.00  0.00    +0.093 A 
ATOM     11  N   UNL     1       0.174  -0.295  -4.092  0.00  0.00    -0.328 N 
ATOM     12  H   UNL     1       0.991  -0.786  -4.273  0.00  0.00    +0.168 HD
BRANCH   7  13
ATOM     13  C   UNL     1      -3.796   1.960  -5.998  0.00  0.00    +0.136 A 
ATOM     14  C   UNL     1      -4.108   3.087  -6.692  0.00  0.00    +0.050 A 
ATOM     15  C   UNL     1      -5.404   3.468  -6.287  0.00  0.00    +0.042 A 
ATOM     16  C   UNL     1      -5.814   2.565  -5.376  0.00  0.00    +0.196 A 
ATOM     17  O   UNL     1      -4.843   1.652  -5.208  0.00  0.00    -0.463 OA
ENDBRANCH   7  13
ENDBRANCH   1   2
BRANCH   1  19
ATOM     18  C   UNL     1      -0.008   1.543   0.026  0.00  0.00    +0.029 C 
ATOM     19  C   UNL     1       0.007   0.013   0.006  0.00  0.00    +0.137 C 
BRANCH  19  20
ATOM     20  C   UNL     1       0.733  -0.497   1.225  0.00  0.00    +0.230 C 
ATOM     21  O   UNL     1       1.912  -0.773   1.157  0.00  0.00    -0.274 OA
ATOM     22  N   UNL     1       0.071  -0.647   2.389  0.00  0.00    -0.282 N 
ATOM     23  H   UNL     1      -0.854  -0.366   2.461  0.00  0.00    +0.155 HD
BRANCH  22  24
ATOM     24  C   UNL     1       0.721  -1.210   3.497  0.00  0.00    +0.076 A 
ATOM     25  C   UNL     1       2.066  -0.969   3.705  0.00  0.00    +0.038 A 
ATOM     26  C   UNL     1       2.710  -1.533   4.812  0.00  0.00    +0.016 A 
ATOM     27  C   UNL     1       1.989  -2.337   5.703  0.00  0.00    +0.015 A 
ATOM     28  C   UNL     1       0.650  -2.573   5.488  0.00  0.00    +0.048 A 
ATOM     29  C   UNL     1       0.008  -2.009   4.393  0.00  0.00    +0.138 A 
BRANCH  29  30
ATOM     30  O   UNL     1      -1.314  -2.240   4.190  0.00  0.00    -0.505 OA
ATOM     31  H   UNL     1      -1.498  -3.022   3.651  0.00  0.00    +0.292 HD
ENDBRANCH  29  30
BRANCH  26  32
ATOM     32  C   UNL     1       4.139  -1.281   5.040  0.00  0.00    +0.258 C 
ATOM     33  O   UNL     1       4.696  -1.770   6.000  0.00  0.00    -0.296 OA
ENDBRANCH  26  32
ENDBRANCH  22  24
ENDBRANCH  19  20
ENDBRANCH   1  19
TORSDOF 7
