REMARK  Name = ZINC39963416
REMARK  5 active torsions:
REMARK  status: ('A' for Active; 'I' for Inactive)
REMARK    1  A    between atoms: C_3  and  C_10
REMARK    2  A    between atoms: C_5  and  N_7
REMARK    3  A    between atoms: C_13  and  C_15
REMARK    4  A    between atoms: C_16  and  C_17
REMARK    5  A    between atoms: C_16  and  C_19
REMARK                            x       y       z     vdW  Elec       q    Type
REMARK                         _______ _______ _______ _____ _____    ______ ____
ROOT
ATOM      1  C   UNL     1       7.198   2.422  -0.061  0.00  0.00    +0.064 C 
ATOM      2  C   UNL     1       7.733   1.153  -0.079  0.00  0.00    +0.071 C 
ENDROOT
BRANCH   2   3
ATOM      3  C   UNL     1       9.228   0.965  -0.099  0.00  0.00    +0.216 C 
ATOM      4  N   UNL     1       9.652   0.198   1.090  0.00  0.00    -0.265 NA
ATOM      5  C   UNL     1      10.433  -0.920   0.552  0.00  0.00    +0.223 C 
ATOM      6  C   UNL     1      10.242  -0.868  -0.955  0.00  0.00    +0.078 C 
ATOM      7  N   UNL     1       9.617   0.197  -1.285  0.00  0.00    -0.260 NA
ATOM      8  C   UNL     1      10.672  -2.009  -1.788  0.00  0.00    +0.043 C 
ATOM      9  C   UNL     1      10.565  -3.212  -1.146  0.00  0.00    +0.037 C 
ATOM     10  C   UNL     1      10.015  -3.253   0.212  0.00  0.00    +0.122 C 
ATOM     11  N   UNL     1       9.963  -2.225   1.015  0.00  0.00    -0.265 NA
ATOM     12 BR   UNL     1      11.120  -4.805  -2.001  0.00  0.00    -0.049 Br
ATOM     13  H   UNL     1      10.213   0.767   1.706  0.00  0.00    +0.127 HD
ENDBRANCH   2   3
BRANCH   1  17
ATOM     14  C   UNL     1       3.652   2.152  -0.022  0.00  0.00    +0.136 A 
ATOM     15  C   UNL     1       3.778   3.545  -0.010  0.00  0.00    +0.050 A 
ATOM     16  C   UNL     1       5.130   3.829  -0.024  0.00  0.00    +0.050 A 
ATOM     17  C   UNL     1       5.805   2.597  -0.043  0.00  0.00    +0.130 A 
ATOM     18  O   UNL     1       4.884   1.611  -0.036  0.00  0.00    -0.455 OA
BRANCH  14  21
ATOM     19  C   UNL     1      -0.017   1.381   0.010  0.00  0.00    +0.003 A 
ATOM     20  C   UNL     1       1.164   2.091   0.002  0.00  0.00    +0.012 A 
ATOM     21  C   UNL     1       2.389   1.405  -0.013  0.00  0.00    +0.019 A 
ATOM     22  C   UNL     1       2.397   0.002  -0.021  0.00  0.00    +0.044 A 
ATOM     23  C   UNL     1       1.207  -0.690  -0.013  0.00  0.00    +0.127 A 
ATOM     24  C   UNL     1       0.002  -0.004   0.002  0.00  0.00    +0.033 A 
BRANCH  23  25
ATOM     25  N   UNL     1       1.213  -2.170  -0.021  0.00  0.00    +0.056 N 
ATOM     26  O   UNL     1       2.357  -2.823  -0.036  0.00  0.00    -0.126 OA
ATOM     27  O   UNL     1       0.076  -2.833  -0.014  0.00  0.00    -0.126 OA
ENDBRANCH  23  25
ENDBRANCH  14  21
ENDBRANCH   1  17
BRANCH   2  28
ATOM     28  C   UNL     1       6.868   0.012  -0.080  0.00  0.00    +0.098 C 
ATOM     29  N   UNL     1       6.181  -0.893  -0.080  0.00  0.00    -0.191 NA
ENDBRANCH   2  28
TORSDOF 5
