REMARK  Name = ZINC57539058
REMARK  3 active torsions:
REMARK  status: ('A' for Active; 'I' for Inactive)
REMARK    1  A    between atoms: C_1  and  C_2
REMARK    2  A    between atoms: C_5  and  N_8
REMARK    3  A    between atoms: C_9  and  C_15
REMARK                            x       y       z     vdW  Elec       q    Type
REMARK                         _______ _______ _______ _____ _____    ______ ____
ROOT
ATOM      1  N   UNL     1       0.059  -4.170  -0.021  0.00  0.00    -0.247 N 
ATOM      2  C   UNL     1       0.176  -5.027   1.168  0.00  0.00    +0.130 C 
ATOM      3  C   UNL     1       0.146  -6.458   0.597  0.00  0.00    +0.133 C 
ATOM      4  N   UNL     1       0.016  -6.255  -0.854  0.00  0.00    -0.297 N 
ATOM      5  C   UNL     1      -0.031  -4.941  -1.112  0.00  0.00    +0.307 C 
ATOM      6  O   UNL     1      -0.142  -4.490  -2.236  0.00  0.00    -0.252 OA
ATOM      7  H   UNL     1      -0.033  -6.960  -1.518  0.00  0.00    +0.150 HD
ENDROOT
BRANCH   1  12
ATOM      8  C   UNL     1      -0.018   1.503   0.010  0.00  0.00    +0.044 C 
ATOM      9  C   UNL     1       0.002  -0.004   0.002  0.00  0.00    -0.050 A 
ATOM     10  C   UNL     1       0.024  -0.687  -1.200  0.00  0.00    +0.005 A 
ATOM     11  C   UNL     1       0.043  -2.068  -1.211  0.00  0.00    +0.024 A 
ATOM     12  C   UNL     1       0.041  -2.771  -0.013  0.00  0.00    +0.038 A 
ATOM     13  C   UNL     1       0.019  -2.082   1.192  0.00  0.00    +0.024 A 
ATOM     14  C   UNL     1       0.005  -0.701   1.197  0.00  0.00    +0.005 A 
ENDBRANCH   1  12
BRANCH   2  15
ATOM     15  C   UNL     1       1.477  -4.767   1.883  0.00  0.00    -0.025 A 
ATOM     16  C   UNL     1       2.634  -4.555   1.157  0.00  0.00    +0.005 A 
ATOM     17  C   UNL     1       3.827  -4.316   1.812  0.00  0.00    +0.000 A 
ATOM     18  C   UNL     1       3.864  -4.289   3.193  0.00  0.00    +0.000 A 
ATOM     19  C   UNL     1       2.707  -4.500   3.920  0.00  0.00    +0.000 A 
ATOM     20  C   UNL     1       1.512  -4.735   3.264  0.00  0.00    +0.005 A 
ENDBRANCH   2  15
TORSDOF 2
