REMARK  Name = ZINC40913447
REMARK  6 active torsions:
REMARK  status: ('A' for Active; 'I' for Inactive)
REMARK    1  A    between atoms: C_1  and  C_2
REMARK    2  A    between atoms: C_11  and  O_13
REMARK    3  A    between atoms: O_13  and  C_14
REMARK    4  A    between atoms: C_14  and  C_16
REMARK    5  A    between atoms: C_14  and  C_17
REMARK    6  A    between atoms: N_19  and  C_20
REMARK                            x       y       z     vdW  Elec       q    Type
REMARK                         _______ _______ _______ _____ _____    ______ ____
ROOT
ATOM      1  C   UNL     1       0.046  -2.169   5.934  0.00  0.00    +0.256 C 
ATOM      2  C   UNL     1       1.562  -2.062   6.118  0.00  0.00    +0.062 C 
ENDROOT
BRANCH   1   3
ATOM      3  C   UNL     1      -0.544  -2.957   7.075  0.00  0.00    +0.258 C 
ATOM      4  O   UNL     1      -1.069  -4.029   6.863  0.00  0.00    -0.271 OA
ATOM      5  N   UNL     1      -0.487  -2.471   8.331  0.00  0.00    -0.282 N 
ATOM      6  H   UNL     1      -0.136  -1.581   8.491  0.00  0.00    +0.155 HD
BRANCH   5   7
ATOM      7  C   UNL     1      -0.936  -3.250   9.405  0.00  0.00    +0.037 A 
ATOM      8  C   UNL     1      -1.532  -2.643  10.502  0.00  0.00    +0.027 A 
ATOM      9  C   UNL     1      -1.976  -3.411  11.562  0.00  0.00    +0.051 A 
ATOM     10  C   UNL     1      -1.828  -4.788  11.533  0.00  0.00    +0.166 A 
ATOM     11  C   UNL     1      -1.231  -5.400  10.433  0.00  0.00    +0.168 A 
ATOM     12  C   UNL     1      -0.792  -4.630   9.369  0.00  0.00    +0.072 A 
ATOM     13  O   UNL     1      -1.203  -6.748  10.646  0.00  0.00    -0.453 OA
ATOM     14  C   UNL     1      -1.416  -6.919  12.059  0.00  0.00    +0.466 C 
ATOM     15  O   UNL     1      -2.174  -5.754  12.435  0.00  0.00    -0.453 OA
ENDBRANCH   5   7
ENDBRANCH   1   3
BRANCH   1  16
ATOM     16  O   UNL     1      -0.238  -2.830   4.700  0.00  0.00    -0.480 OA
BRANCH  16  27
ATOM     17  C   UNL     1      -0.725  -0.252  -1.250  0.00  0.00    +0.045 C 
ATOM     18  C   UNL     1      -0.316   0.318   0.084  0.00  0.00    -0.033 A 
ATOM     19  C   UNL     1       0.043   1.622   0.206  0.00  0.00    +0.096 A 
ATOM     20  C   UNL     1       0.422   2.131   1.465  0.00  0.00    +0.337 A 
ATOM     21  O   UNL     1       0.742   3.302   1.560  0.00  0.00    -0.245 OA
ATOM     22  O   UNL     1       0.439   1.358   2.562  0.00  0.00    -0.422 OA
ATOM     23  C   UNL     1       0.094   0.053   2.510  0.00  0.00    +0.143 A 
ATOM     24  C   UNL     1      -0.300  -0.519   1.286  0.00  0.00    +0.021 A 
ATOM     25  C   UNL     1      -0.664  -1.869   1.229  0.00  0.00    +0.015 A 
ATOM     26  C   UNL     1      -0.640  -2.627   2.364  0.00  0.00    +0.046 A 
ATOM     27  C   UNL     1      -0.256  -2.064   3.580  0.00  0.00    +0.125 A 
ATOM     28  C   UNL     1       0.117  -0.732   3.653  0.00  0.00    +0.092 A 
ENDBRANCH  16  27
ENDBRANCH   1  16
TORSDOF 4
