REMARK  Name = ZINC13206939
REMARK  6 active torsions:
REMARK  status: ('A' for Active; 'I' for Inactive)
REMARK    1  A    between atoms: C_1  and  C_2
REMARK    2  A    between atoms: C_7  and  O_8
REMARK    3  A    between atoms: O_8  and  C_9
REMARK    4  A    between atoms: C_9  and  C_11
REMARK    5  A    between atoms: C_12  and  N_25
REMARK    6  A    between atoms: C_16  and  C_20
REMARK                            x       y       z     vdW  Elec       q    Type
REMARK                         _______ _______ _______ _____ _____    ______ ____
ROOT
ATOM      1  C   UNL     1      -0.167  -0.096   4.766  0.00  0.00    +0.120 A 
ATOM      2  C   UNL     1      -0.262  -0.656   6.024  0.00  0.00    +0.055 A 
ATOM      3  C   UNL     1      -0.365   0.232   7.169  0.00  0.00    +0.029 A 
ATOM      4  C   UNL     1      -0.471  -0.107   8.543  0.00  0.00    +0.014 A 
ATOM      5  C   UNL     1      -0.557   0.887   9.469  0.00  0.00    +0.032 A 
ATOM      6  C   UNL     1      -0.540   2.230   9.072  0.00  0.00    +0.107 A 
ATOM      7  N   UNL     1      -0.440   2.545   7.783  0.00  0.00    -0.236 NA
ATOM      8  C   UNL     1      -0.356   1.613   6.860  0.00  0.00    +0.112 A 
ATOM      9  S   UNL     1      -0.206   1.655   5.091  0.00  0.00    -0.060 S 
ENDROOT
BRANCH   6  10
ATOM     10  C   UNL     1      -0.633   3.299  10.084  0.00  0.00    +0.153 A 
ATOM     11  C   UNL     1      -0.623   4.637   9.837  0.00  0.00    +0.051 A 
ATOM     12  C   UNL     1      -0.736   5.280  11.084  0.00  0.00    +0.042 A 
ATOM     13  C   UNL     1      -0.799   4.314  12.023  0.00  0.00    +0.196 A 
ATOM     14  O   UNL     1      -0.737   3.119  11.416  0.00  0.00    -0.461 OA
ENDBRANCH   6  10
BRANCH   2  15
ATOM     15  N   UNL     1      -0.260  -2.034   6.190  0.00  0.00    -0.356 N 
ATOM     16  H   UNL     1      -0.191  -2.616   5.418  0.00  0.00    +0.142 HD
ATOM     17  H   UNL     1      -0.328  -2.415   7.080  0.00  0.00    +0.142 HD
ENDBRANCH   2  15
BRANCH   1  18
ATOM     18  C   UNL     1      -0.059  -0.754   3.519  0.00  0.00    +0.353 C 
ATOM     19  O   UNL     1      -0.041  -1.970   3.473  0.00  0.00    -0.244 OA
BRANCH  18  20
ATOM     20  O   UNL     1       0.025  -0.033   2.381  0.00  0.00    -0.422 OA
BRANCH  20  27
ATOM     21  C   UNL     1       2.505  -0.983   1.420  0.00  0.00    +0.047 C 
ATOM     22  C   UNL     1       1.211  -1.194   0.677  0.00  0.00    -0.008 A 
ATOM     23  C   UNL     1       1.208  -1.871  -0.527  0.00  0.00    +0.007 A 
ATOM     24  C   UNL     1       0.020  -2.070  -1.207  0.00  0.00    +0.000 A 
ATOM     25  C   UNL     1      -1.165  -1.583  -0.688  0.00  0.00    +0.004 A 
ATOM     26  C   UNL     1      -1.167  -0.901   0.513  0.00  0.00    +0.046 A 
ATOM     27  C   UNL     1       0.023  -0.705   1.199  0.00  0.00    +0.135 A 
ENDBRANCH  20  27
ENDBRANCH  18  20
ENDBRANCH   1  18
TORSDOF 5
