REMARK  Name = ZINC15776474
REMARK  11 active torsions:
REMARK  status: ('A' for Active; 'I' for Inactive)
REMARK    1  A    between atoms: C_1  and  C_2
REMARK    2  A    between atoms: C_5  and  S_8
REMARK    3  A    between atoms: S_8  and  N_11
REMARK    4  A    between atoms: N_11  and  N_12
REMARK    5  A    between atoms: C_13  and  C_14
REMARK    6  A    between atoms: C_13  and  C_22
REMARK    7  A    between atoms: C_14  and  C_15
REMARK    8  A    between atoms: C_15  and  C_16
REMARK    9  A    between atoms: C_22  and  N_24
REMARK   10  A    between atoms: C_22  and  O_33
REMARK   11  A    between atoms: O_33  and  C_34
REMARK                            x       y       z     vdW  Elec       q    Type
REMARK                         _______ _______ _______ _____ _____    ______ ____
ROOT
ATOM      1  N   UNL     1       0.845  -2.871   1.762  0.00  0.00    -0.170 NA
ATOM      2  C   UNL     1      -0.059  -2.134   1.233  0.00  0.00    +0.101 C 
ENDROOT
BRANCH   1   3
ATOM      3  N   UNL     1       2.125  -2.352   1.992  0.00  0.00    -0.137 N 
ATOM      4  H   UNL     1       2.315  -1.421   1.794  0.00  0.00    +0.197 HD
BRANCH   3   5
ATOM      5  S   UNL     1       3.316  -3.326   2.605  0.00  0.00    +0.086 S 
ATOM      6  O   UNL     1       4.514  -2.563   2.588  0.00  0.00    -0.149 OA
ATOM      7  O   UNL     1       2.796  -3.903   3.795  0.00  0.00    -0.149 OA
BRANCH   5  12
ATOM      8  C   UNL     1       4.103  -7.854  -1.305  0.00  0.00    +0.044 C 
ATOM      9  C   UNL     1       3.906  -6.723  -0.329  0.00  0.00    -0.050 A 
ATOM     10  C   UNL     1       4.641  -5.560  -0.461  0.00  0.00    +0.005 A 
ATOM     11  C   UNL     1       4.461  -4.522   0.435  0.00  0.00    +0.029 A 
ATOM     12  C   UNL     1       3.546  -4.648   1.463  0.00  0.00    +0.110 A 
ATOM     13  C   UNL     1       2.814  -5.813   1.598  0.00  0.00    +0.029 A 
ATOM     14  C   UNL     1       2.991  -6.849   0.700  0.00  0.00    +0.005 A 
ENDBRANCH   5  12
ENDBRANCH   3   5
ENDBRANCH   1   3
BRANCH   2  15
ATOM     15  C   UNL     1       0.253  -0.706   0.866  0.00  0.00    +0.063 C 
BRANCH  15  16
ATOM     16  C   UNL     1      -0.065   0.206   2.053  0.00  0.00    +0.041 C 
BRANCH  16  17
ATOM     17  C   UNL     1       0.138   1.644   1.650  0.00  0.00    -0.047 A 
ATOM     18  C   UNL     1       1.343   2.271   1.908  0.00  0.00    +0.003 A 
ATOM     19  C   UNL     1       1.531   3.588   1.534  0.00  0.00    +0.000 A 
ATOM     20  C   UNL     1       0.510   4.282   0.911  0.00  0.00    +0.000 A 
ATOM     21  C   UNL     1      -0.696   3.657   0.657  0.00  0.00    +0.000 A 
ATOM     22  C   UNL     1      -0.882   2.338   1.027  0.00  0.00    +0.003 A 
ENDBRANCH  16  17
ENDBRANCH  15  16
ENDBRANCH   2  15
BRANCH   2  23
ATOM     23  C   UNL     1      -1.434  -2.695   0.977  0.00  0.00    +0.342 C 
BRANCH  23  24
ATOM     24  N   UNL     1      -1.519  -4.049   1.529  0.00  0.00    -0.199 N 
ATOM     25  C   UNL     1      -2.173  -4.429   2.677  0.00  0.00    +0.093 A 
ATOM     26  C   UNL     1      -2.915  -3.750   3.637  0.00  0.00    +0.030 A 
ATOM     27  C   UNL     1      -3.450  -4.434   4.692  0.00  0.00    +0.002 A 
ATOM     28  C   UNL     1      -3.260  -5.805   4.815  0.00  0.00    +0.002 A 
ATOM     29  C   UNL     1      -2.537  -6.495   3.887  0.00  0.00    +0.032 A 
ATOM     30  C   UNL     1      -1.977  -5.816   2.795  0.00  0.00    +0.113 A 
ATOM     31  N   UNL     1      -1.233  -6.216   1.745  0.00  0.00    -0.129 NA
ATOM     32  N   UNL     1      -0.956  -5.214   0.987  0.00  0.00    -0.061 NA
ENDBRANCH  23  24
BRANCH  23  33
ATOM     33  O   UNL     1      -1.676  -2.738  -0.431  0.00  0.00    -0.462 OA
BRANCH  33  34
ATOM     34  C   UNL     1      -2.974  -2.729  -0.834  0.00  0.00    +0.124 A 
ATOM     35  C   UNL     1      -3.993  -2.808   0.103  0.00  0.00    +0.046 A 
ATOM     36  C   UNL     1      -5.312  -2.792  -0.309  0.00  0.00    +0.004 A 
ATOM     37  C   UNL     1      -5.615  -2.710  -1.655  0.00  0.00    +0.000 A 
ATOM     38  C   UNL     1      -4.601  -2.638  -2.592  0.00  0.00    +0.004 A 
ATOM     39  C   UNL     1      -3.281  -2.647  -2.185  0.00  0.00    +0.046 A 
ENDBRANCH  33  34
ENDBRANCH  23  33
ENDBRANCH   2  23
TORSDOF 10
