REMARK  Name = ZINC01714593
REMARK  4 active torsions:
REMARK  status: ('A' for Active; 'I' for Inactive)
REMARK    1  A    between atoms: C_1  and  O_2
REMARK    2  A    between atoms: O_2  and  C_3
REMARK    3  A    between atoms: C_8  and  N_9
REMARK    4  A    between atoms: C_14  and  N_19
REMARK                            x       y       z     vdW  Elec       q    Type
REMARK                         _______ _______ _______ _____ _____    ______ ____
ROOT
ATOM      1  C   UNL     1       1.462  -6.792  -0.045  0.00  0.00    +0.142 A 
ATOM      2  C   UNL     1       2.287  -5.679  -0.048  0.00  0.00    +0.060 A 
ATOM      3  C   UNL     1       1.732  -4.401  -0.037  0.00  0.00    +0.035 A 
ATOM      4  C   UNL     1       0.334  -4.240  -0.022  0.00  0.00    +0.010 A 
ATOM      5  C   UNL     1      -0.485  -5.359  -0.020  0.00  0.00    +0.050 A 
ATOM      6  C   UNL     1       0.077  -6.635  -0.031  0.00  0.00    +0.082 A 
ATOM      7 BR   UNL     1      -2.365  -5.155  -0.001  0.00  0.00    -0.048 Br
ATOM      8  C   UNL     1       0.024  -2.787  -0.012  0.00  0.00    -0.004 A 
ATOM      9  C   UNL     1      -1.182  -2.099   0.003  0.00  0.00    +0.026 A 
ATOM     10  C   UNL     1      -1.192  -0.714   0.015  0.00  0.00    +0.039 A 
ATOM     11  C   UNL     1       0.002  -0.004   0.002  0.00  0.00    +0.039 A 
ATOM     12  C   UNL     1       1.217  -0.682  -0.013  0.00  0.00    +0.036 A 
ATOM     13  C   UNL     1       1.233  -2.072  -0.020  0.00  0.00    +0.032 A 
ATOM     14  C   UNL     1       2.342  -3.055  -0.036  0.00  0.00    +0.195 C 
ATOM     15  O   UNL     1       3.530  -2.802  -0.047  0.00  0.00    -0.287 OA
ATOM     16 BR   UNL     1      -2.838   0.215   0.043  0.00  0.00    -0.048 Br
ENDROOT
BRANCH   6  17
ATOM     17  N   UNL     1      -0.748  -7.757  -0.028  0.00  0.00    -0.354 N 
ATOM     18  H   UNL     1      -1.712  -7.650  -0.018  0.00  0.00    +0.142 HD
ATOM     19  H   UNL     1      -0.359  -8.646  -0.035  0.00  0.00    +0.142 HD
ENDBRANCH   6  17
BRANCH  11  20
ATOM     20  N   UNL     1      -0.017   1.392   0.010  0.00  0.00    -0.357 N 
ATOM     21  H   UNL     1       0.817   1.889   0.004  0.00  0.00    +0.142 HD
ATOM     22  H   UNL     1      -0.863   1.866   0.016  0.00  0.00    +0.142 HD
ENDBRANCH  11  20
BRANCH   1  24
ATOM     23  C   UNL     1       3.430  -8.127  -0.070  0.00  0.00    +0.277 C 
ATOM     24  O   UNL     1       2.004  -8.039  -0.056  0.00  0.00    -0.493 OA
ENDBRANCH   1  24
TORSDOF 3
