REMARK  Name = ZINC67179899
REMARK  7 active torsions:
REMARK  status: ('A' for Active; 'I' for Inactive)
REMARK    1  A    between atoms: C_1  and  N_2
REMARK    2  A    between atoms: C_4  and  C_11
REMARK    3  A    between atoms: N_7  and  C_10
REMARK    4  A    between atoms: C_12  and  C_13
REMARK    5  A    between atoms: N_15  and  C_16
REMARK    6  A    between atoms: C_16  and  C_17
REMARK    7  A    between atoms: C_17  and  N_23
REMARK                            x       y       z     vdW  Elec       q    Type
REMARK                         _______ _______ _______ _____ _____    ______ ____
ROOT
ATOM      1  C   UNL     1      -1.549  -5.307  -5.751  0.00  0.00    +0.237 C 
ATOM      2  O   UNL     1      -0.722  -4.436  -5.547  0.00  0.00    -0.271 OA
ATOM      3  N   UNL     1      -1.338  -6.557  -5.294  0.00  0.00    -0.313 N 
ATOM      4  H   UNL     1      -1.996  -7.250  -5.456  0.00  0.00    +0.149 HD
ENDROOT
BRANCH   1   6
ATOM      5  C   UNL     1      -2.943  -3.751  -6.929  0.00  0.00    +0.020 C 
ATOM      6  C   UNL     1      -2.731  -5.006  -6.470  0.00  0.00    +0.068 C 
BRANCH   5  10
ATOM      7  C   UNL     1      -5.994  -0.454  -8.928  0.00  0.00    +0.153 C 
ATOM      8  N   UNL     1      -5.691  -1.833  -8.539  0.00  0.00    -0.303 N 
ATOM      9  C   UNL     1      -4.501  -2.109  -7.942  0.00  0.00    +0.103 A 
ATOM     10  C   UNL     1      -4.215  -3.412  -7.574  0.00  0.00    +0.056 A 
ATOM     11  C   UNL     1      -5.225  -4.448  -7.851  0.00  0.00    +0.263 A 
ATOM     12  O   UNL     1      -5.024  -5.609  -7.548  0.00  0.00    -0.267 OA
ATOM     13  N   UNL     1      -6.378  -4.080  -8.448  0.00  0.00    -0.264 N 
ATOM     14  C   UNL     1      -6.597  -2.795  -8.775  0.00  0.00    +0.331 A 
ATOM     15  O   UNL     1      -7.648  -2.495  -9.306  0.00  0.00    -0.246 OA
ATOM     16  C   UNL     1      -7.402  -5.088  -8.735  0.00  0.00    +0.157 C 
ENDBRANCH   5  10
ENDBRANCH   1   6
BRANCH   3  17
ATOM     17  C   UNL     1      -0.114  -6.868  -4.550  0.00  0.00    +0.092 C 
BRANCH  17  18
ATOM     18  C   UNL     1      -0.064  -8.369  -4.257  0.00  0.00    -0.050 C 
ATOM     19  C   UNL     1       1.202  -8.690  -3.459  0.00  0.00    -0.010 C 
ATOM     20  C   UNL     1       2.434  -8.288  -4.273  0.00  0.00    -0.001 C 
ATOM     21  C   UNL     1       2.450  -9.065  -5.591  0.00  0.00    -0.000 C 
ATOM     22  C   UNL     1       1.185  -8.744  -6.388  0.00  0.00    -0.001 C 
ATOM     23  C   UNL     1      -0.047  -9.146  -5.574  0.00  0.00    -0.010 C 
BRANCH  18  24
ATOM     24  N   UNL     1      -1.246  -8.755  -3.475  0.00  0.00    +0.384 N 
ATOM     25  C   UNL     1      -1.321  -7.929  -2.264  0.00  0.00    -0.078 C 
ATOM     26  C   UNL     1      -2.595  -8.271  -1.488  0.00  0.00    -0.019 C 
ATOM     27  C   UNL     1      -2.565  -9.751  -1.097  0.00  0.00    -0.004 C 
ATOM     28  C   UNL     1      -2.412 -10.600  -2.362  0.00  0.00    -0.019 C 
ATOM     29  C   UNL     1      -1.145 -10.172  -3.106  0.00  0.00    -0.078 C 
ATOM     30  H   UNL     1      -2.076  -8.611  -4.030  0.00  0.00    -0.081 HD
ENDBRANCH  18  24
ENDBRANCH  17  18
ENDBRANCH   3  17
TORSDOF 5
