REMARK  Name = ZINC63162140
REMARK  6 active torsions:
REMARK  status: ('A' for Active; 'I' for Inactive)
REMARK    1  A    between atoms: C_1  and  C_2
REMARK    2  A    between atoms: C_2  and  C_3
REMARK    3  A    between atoms: C_2  and  C_4
REMARK    4  A    between atoms: C_2  and  C_5
REMARK    5  A    between atoms: N_15  and  C_16
REMARK    6  A    between atoms: C_18  and  C_24
REMARK                            x       y       z     vdW  Elec       q    Type
REMARK                         _______ _______ _______ _____ _____    ______ ____
ROOT
ATOM      1  C   UNL     1       1.766  -0.376  -1.407  0.00  0.00    +0.221 C 
ATOM      2  O   UNL     1       1.408   0.411  -2.257  0.00  0.00    -0.275 OA
ATOM      3  N   UNL     1       2.095  -1.637  -1.752  0.00  0.00    -0.298 N 
ATOM      4  C   UNL     1       2.631  -2.570  -0.751  0.00  0.00    +0.127 C 
ATOM      5  C   UNL     1       1.758  -3.830  -0.739  0.00  0.00    +0.128 C 
ATOM      6  N   UNL     1       1.587  -4.296  -2.123  0.00  0.00    -0.282 N 
ATOM      7  C   UNL     1       1.051  -3.363  -3.123  0.00  0.00    +0.128 C 
ATOM      8  C   UNL     1       1.919  -2.104  -3.134  0.00  0.00    +0.127 C 
ATOM      9  C   UNL     1       1.916  -5.557  -2.467  0.00  0.00    +0.307 C 
ATOM     10  O   UNL     1       2.278  -6.346  -1.615  0.00  0.00    -0.252 OA
ATOM     11  N   UNL     1       1.844  -5.944  -3.756  0.00  0.00    -0.265 N 
ATOM     12  H   UNL     1       1.559  -5.314  -4.436  0.00  0.00    +0.157 HD
ENDROOT
BRANCH  11  13
ATOM     13  C   UNL     1       2.182  -7.257  -4.114  0.00  0.00    +0.100 A 
ATOM     14  C   UNL     1       2.887  -7.502  -5.261  0.00  0.00    +0.042 A 
ATOM     15  C   UNL     1       3.212  -8.824  -5.595  0.00  0.00    +0.073 A 
ATOM     16  C   UNL     1       2.830  -9.840  -4.788  0.00  0.00    +0.098 A 
ATOM     17  N   UNL     1       2.128  -9.599  -3.648  0.00  0.00    -0.327 N 
ATOM     18  H   UNL     1       1.863 -10.340  -3.083  0.00  0.00    +0.168 HD
ATOM     19  C   UNL     1       1.804  -8.341  -3.293  0.00  0.00    +0.270 A 
ATOM     20  O   UNL     1       1.179  -8.139  -2.264  0.00  0.00    -0.266 OA
BRANCH  15  21
ATOM     21  C   UNL     1       3.988  -9.114  -6.854  0.00  0.00    +0.419 C 
ATOM     22  F   UNL     1       4.189 -10.493  -6.971  0.00  0.00    -0.166 F 
ATOM     23  F   UNL     1       3.269  -8.652  -7.961  0.00  0.00    -0.166 F 
ATOM     24  F   UNL     1       5.226  -8.465  -6.798  0.00  0.00    -0.166 F 
ENDBRANCH  15  21
ENDBRANCH  11  13
BRANCH   1  26
ATOM     25  C   UNL     1       1.353   1.500   0.162  0.00  0.00    +0.020 C 
ATOM     26  C   UNL     1       1.842   0.055   0.035  0.00  0.00    +0.039 C 
ATOM     27  C   UNL     1       3.291  -0.037   0.519  0.00  0.00    +0.020 C 
ATOM     28  C   UNL     1       0.960  -0.859   0.888  0.00  0.00    +0.020 C 
ENDBRANCH   1  26
TORSDOF 3
