REMARK  Name = ZINC21273554
REMARK  7 active torsions:
REMARK  status: ('A' for Active; 'I' for Inactive)
REMARK    1  A    between atoms: C_1  and  C_2
REMARK    2  A    between atoms: C_2  and  C_3
REMARK    3  A    between atoms: C_2  and  C_4
REMARK    4  A    between atoms: C_2  and  C_5
REMARK    5  A    between atoms: C_12  and  C_14
REMARK    6  A    between atoms: N_16  and  N_17
REMARK    7  A    between atoms: C_18  and  C_20
REMARK                            x       y       z     vdW  Elec       q    Type
REMARK                         _______ _______ _______ _____ _____    ______ ____
ROOT
ATOM      1  C   UNL     1      -4.813  -0.089   0.017  0.00  0.00    +0.267 C 
ATOM      2  O   UNL     1      -4.813   1.127   0.023  0.00  0.00    -0.268 OA
ATOM      3  N   UNL     1      -3.646  -0.763   0.009  0.00  0.00    -0.230 N 
ATOM      4  H   UNL     1      -3.646  -1.863   0.003  0.00  0.00    +0.173 HD
ENDROOT
BRANCH   1  11
ATOM      5  C   UNL     1     -10.745  -1.983  -0.439  0.00  0.00    -0.001 C 
ATOM      6  C   UNL     1     -10.424  -3.228   0.394  0.00  0.00    +0.009 C 
ATOM      7  C   UNL     1      -9.024  -3.729   0.011  0.00  0.00    +0.043 C 
ATOM      8  C   UNL     1      -8.087  -2.562   0.014  0.00  0.00    -0.006 A 
ATOM      9  C   UNL     1      -8.421  -1.237   0.022  0.00  0.00    -0.036 A 
ATOM     10  C   UNL     1      -7.374  -0.330   0.023  0.00  0.00    +0.024 A 
ATOM     11  C   UNL     1      -6.083  -0.823   0.017  0.00  0.00    +0.076 A 
ATOM     12  S   UNL     1      -6.365  -2.585   0.000  0.00  0.00    -0.088 S 
ATOM     13  C   UNL     1      -9.886  -0.808   0.027  0.00  0.00    +0.040 C 
BRANCH   5  15
ATOM     14  C   UNL     1     -12.550  -0.392  -1.113  0.00  0.00    +0.011 C 
ATOM     15  C   UNL     1     -12.225  -1.629  -0.272  0.00  0.00    -0.035 C 
ATOM     16  C   UNL     1     -13.086  -2.804  -0.738  0.00  0.00    +0.011 C 
ATOM     17  C   UNL     1     -12.516  -1.335   1.201  0.00  0.00    +0.011 C 
ENDBRANCH   5  15
ENDBRANCH   1  11
BRANCH   3  18
ATOM     18  N   UNL     1      -2.433  -0.062   0.009  0.00  0.00    -0.227 N 
ATOM     19  C   UNL     1      -1.266  -0.736   0.002  0.00  0.00    +0.298 C 
ATOM     20  O   UNL     1      -1.265  -1.954  -0.005  0.00  0.00    -0.265 OA
ATOM     21  H   UNL     1      -2.433   1.038   0.015  0.00  0.00    +0.173 HD
BRANCH  19  22
ATOM     22  C   UNL     1       0.002  -0.004   0.002  0.00  0.00    +0.218 C 
ATOM     23  C   UNL     1      -0.016   1.335   0.009  0.00  0.00    +0.238 C 
ATOM     24  O   UNL     1       1.123   2.060   0.002  0.00  0.00    -0.492 OA
ATOM     25  C   UNL     1       2.327   1.374   0.365  0.00  0.00    +0.269 C 
ATOM     26  C   UNL     1       2.350   0.028  -0.375  0.00  0.00    +0.270 C 
ATOM     27  O   UNL     1       1.173  -0.701  -0.005  0.00  0.00    -0.481 OA
ENDBRANCH  19  22
ENDBRANCH   3  18
TORSDOF 4
