REMARK  Name = ZINC38978999
REMARK  9 active torsions:
REMARK  status: ('A' for Active; 'I' for Inactive)
REMARK    1  A    between atoms: C_1  and  C_2
REMARK    2  A    between atoms: C_2  and  C_3
REMARK    3  A    between atoms: C_3  and  O_4
REMARK    4  A    between atoms: O_4  and  C_5
REMARK    5  A    between atoms: C_5  and  C_7
REMARK    6  A    between atoms: C_10  and  N_13
REMARK    7  A    between atoms: N_13  and  C_14
REMARK    8  A    between atoms: N_17  and  S_18
REMARK    9  A    between atoms: S_18  and  C_21
REMARK                            x       y       z     vdW  Elec       q    Type
REMARK                         _______ _______ _______ _____ _____    ______ ____
ROOT
ATOM      1  C   UNL     1       2.115  -8.794  -3.789  0.00  0.00    +0.235 C 
ATOM      2  C   UNL     1       1.085  -9.774  -4.305  0.00  0.00    +0.170 C 
ATOM      3  N   UNL     1      -0.105  -9.367  -4.636  0.00  0.00    -0.111 NA
ATOM      4  N   UNL     1       1.417 -11.070  -4.416  0.00  0.00    -0.338 N 
ATOM      5  C   UNL     1       2.615 -11.507  -4.088  0.00  0.00    +0.064 A 
ATOM      6  C   UNL     1       2.931 -12.883  -4.218  0.00  0.00    +0.028 A 
ATOM      7  C   UNL     1       4.158 -13.337  -3.882  0.00  0.00    +0.002 A 
ATOM      8  C   UNL     1       5.172 -12.495  -3.395  0.00  0.00    +0.002 A 
ATOM      9  C   UNL     1       4.977 -11.168  -3.232  0.00  0.00    +0.027 A 
ATOM     10  C   UNL     1       3.667 -10.595  -3.575  0.00  0.00    +0.061 A 
ATOM     11  N   UNL     1       3.442  -9.319  -3.432  0.00  0.00    -0.359 N 
ATOM     12  H   UNL     1       4.135  -8.729  -3.097  0.00  0.00    +0.162 HD
ATOM     13  H   UNL     1       0.758 -11.700  -4.747  0.00  0.00    +0.167 HD
ENDROOT
BRANCH   3  14
ATOM     14  S   UNL     1      -1.224 -10.450  -5.199  0.00  0.00    +0.107 S 
ATOM     15  O   UNL     1      -0.738 -10.922  -6.448  0.00  0.00    -0.146 OA
ATOM     16  O   UNL     1      -1.524 -11.323  -4.119  0.00  0.00    -0.146 OA
BRANCH  14  17
ATOM     17  C   UNL     1      -2.697  -9.546  -5.540  0.00  0.00    +0.150 A 
ATOM     18  C   UNL     1      -3.082  -8.944  -6.692  0.00  0.00    +0.037 A 
ATOM     19  C   UNL     1      -4.296  -8.284  -6.731  0.00  0.00    +0.010 A 
ATOM     20  C   UNL     1      -5.066  -8.259  -5.615  0.00  0.00    +0.047 A 
ATOM     21  S   UNL     1      -4.075  -9.193  -4.461  0.00  0.00    -0.076 S 
ENDBRANCH  14  17
ENDBRANCH   3  14
BRANCH   1  22
ATOM     22  N   UNL     1       1.557  -8.143  -2.601  0.00  0.00    -0.318 N 
ATOM     23  H   UNL     1       1.193  -8.680  -1.880  0.00  0.00    +0.148 HD
BRANCH  22  27
ATOM     24  C   UNL     1       1.536  -3.996  -2.322  0.00  0.00    +0.059 A 
ATOM     25  C   UNL     1       2.220  -4.624  -3.368  0.00  0.00    +0.017 A 
ATOM     26  C   UNL     1       2.225  -5.993  -3.457  0.00  0.00    +0.024 A 
ATOM     27  C   UNL     1       1.550  -6.756  -2.507  0.00  0.00    +0.029 A 
ATOM     28  C   UNL     1       0.869  -6.134  -1.465  0.00  0.00    +0.024 A 
ATOM     29  C   UNL     1       0.864  -4.766  -1.367  0.00  0.00    +0.017 A 
BRANCH  24  30
ATOM     30  C   UNL     1       1.528  -2.525  -2.223  0.00  0.00    +0.339 C 
ATOM     31  O   UNL     1       0.938  -1.981  -1.311  0.00  0.00    -0.245 OA
BRANCH  30  32
ATOM     32  O   UNL     1       2.176  -1.785  -3.144  0.00  0.00    -0.461 OA
BRANCH  32  33
ATOM     33  C   UNL     1       2.127  -0.365  -2.987  0.00  0.00    +0.232 C 
BRANCH  33  35
ATOM     34  C   UNL     1       2.860   1.821  -3.949  0.00  0.00    +0.007 C 
ATOM     35  C   UNL     1       2.913   0.301  -4.118  0.00  0.00    +0.038 C 
ENDBRANCH  33  35
ENDBRANCH  32  33
ENDBRANCH  30  32
ENDBRANCH  24  30
ENDBRANCH  22  27
ENDBRANCH   1  22
TORSDOF 8
