REMARK  Name = ZINC61916779
REMARK  7 active torsions:
REMARK  status: ('A' for Active; 'I' for Inactive)
REMARK    1  A    between atoms: C_1  and  C_2
REMARK    2  A    between atoms: C_13  and  N_21
REMARK    3  A    between atoms: C_14  and  O_16
REMARK    4  A    between atoms: O_16  and  C_17
REMARK    5  A    between atoms: C_17  and  C_18
REMARK    6  A    between atoms: C_17  and  C_19
REMARK    7  A    between atoms: C_17  and  C_20
REMARK                            x       y       z     vdW  Elec       q    Type
REMARK                         _______ _______ _______ _____ _____    ______ ____
ROOT
ATOM      1  C   UNL     1       0.218   1.719  -0.497  0.00  0.00    +0.039 C 
ATOM      2  C   UNL     1       0.101   0.206  -0.305  0.00  0.00    +0.132 C 
ATOM      3  C   UNL     1       0.850  -0.519  -1.450  0.00  0.00    +0.137 C 
ATOM      4  N   UNL     1       0.586  -1.944  -1.377  0.00  0.00    -0.313 N 
ATOM      5  C   UNL     1       1.423  -2.865  -0.585  0.00  0.00    +0.109 C 
ATOM      6  C   UNL     1       1.794  -2.245   0.770  0.00  0.00    +0.047 C 
ATOM      7  C   UNL     1       0.599  -1.503   1.333  0.00  0.00    +0.162 C 
ATOM      8  O   UNL     1       0.659  -0.149   0.906  0.00  0.00    -0.375 OA
ATOM      9  C   UNL     1      -0.499  -2.462  -2.081  0.00  0.00    +0.125 A 
ATOM     10  C   UNL     1      -1.413  -1.595  -2.667  0.00  0.00    +0.046 A 
ATOM     11  C   UNL     1      -2.489  -2.118  -3.366  0.00  0.00    +0.031 A 
ATOM     12  C   UNL     1      -2.615  -3.499  -3.455  0.00  0.00    +0.087 A 
ATOM     13  C   UNL     1      -1.661  -4.309  -2.842  0.00  0.00    +0.238 A 
ATOM     14  N   UNL     1      -0.644  -3.774  -2.188  0.00  0.00    -0.196 NA
ENDROOT
BRANCH  12  15
ATOM     15  N   UNL     1      -3.690  -4.072  -4.153  0.00  0.00    -0.354 N 
ATOM     16  H   UNL     1      -4.351  -3.502  -4.577  0.00  0.00    +0.142 HD
ATOM     17  H   UNL     1      -3.772  -5.036  -4.211  0.00  0.00    +0.142 HD
ENDBRANCH  12  15
BRANCH  13  18
ATOM     18  O   UNL     1      -1.774  -5.659  -2.922  0.00  0.00    -0.469 OA
BRANCH  18  19
ATOM     19  C   UNL     1      -0.764  -6.434  -2.273  0.00  0.00    +0.104 C 
ATOM     20  C   UNL     1      -0.755  -6.110  -0.778  0.00  0.00    +0.055 C 
ATOM     21  C   UNL     1      -1.058  -7.923  -2.471  0.00  0.00    +0.055 C 
ATOM     22  C   UNL     1       0.602  -6.099  -2.876  0.00  0.00    +0.055 C 
ENDBRANCH  18  19
ENDBRANCH  13  18
TORSDOF 3
