REMARK  Name = ZINC39918619
REMARK  14 active torsions:
REMARK  status: ('A' for Active; 'I' for Inactive)
REMARK    1  A    between atoms: C_1  and  C_2
REMARK    2  A    between atoms: N_8  and  C_9
REMARK    3  A    between atoms: C_9  and  C_10
REMARK    4  A    between atoms: C_10  and  N_11
REMARK    5  A    between atoms: N_11  and  C_12
REMARK    6  A    between atoms: N_11  and  C_13
REMARK    7  A    between atoms: N_21  and  C_24
REMARK    8  A    between atoms: C_24  and  C_25
REMARK    9  A    between atoms: C_25  and  O_27
REMARK   10  A    between atoms: O_27  and  C_28
REMARK   11  A    between atoms: C_29  and  C_33
REMARK   12  A    between atoms: C_30  and  N_32
REMARK   13  A    between atoms: C_33  and  O_35
REMARK   14  A    between atoms: O_35  and  C_36
REMARK                            x       y       z     vdW  Elec       q    Type
REMARK                         _______ _______ _______ _____ _____    ______ ____
ROOT
ATOM      1  C   UNL     1      -0.018   1.486   0.076  0.00  0.00    +0.064 C 
ATOM      2  C   UNL     1       0.008  -0.020   0.048  0.00  0.00    +0.022 A 
ATOM      3  C   UNL     1      -0.005  -0.664  -1.139  0.00  0.00    +0.068 A 
ATOM      4  C   UNL     1       0.019  -2.074  -1.172  0.00  0.00    +0.142 A 
ATOM      5  C   UNL     1       0.054  -2.768   0.019  0.00  0.00    +0.083 A 
ATOM      6  C   UNL     1       0.066  -2.057   1.226  0.00  0.00    +0.260 A 
ATOM      7  O   UNL     1       0.098  -2.659   2.288  0.00  0.00    -0.267 OA
ATOM      8  N   UNL     1       0.050  -0.711   1.216  0.00  0.00    -0.314 N 
ATOM      9  C   UNL     1       0.077  -4.270   0.028  0.00  0.00    +0.144 C 
ATOM     10  C   UNL     1       1.422  -4.782   0.442  0.00  0.00    -0.002 A 
ATOM     11  C   UNL     1       2.669  -4.634  -0.126  0.00  0.00    +0.007 A 
ATOM     12  C   UNL     1       3.735  -5.249   0.524  0.00  0.00    +0.000 A 
ATOM     13  C   UNL     1       3.548  -5.973   1.684  0.00  0.00    +0.002 A 
ATOM     14  C   UNL     1       2.297  -6.126   2.260  0.00  0.00    +0.024 A 
ATOM     15  C   UNL     1       1.219  -5.513   1.618  0.00  0.00    +0.042 A 
ATOM     16  N   UNL     1      -0.120  -5.501   1.968  0.00  0.00    -0.259 N 
ATOM     17  C   UNL     1      -0.865  -4.795   1.092  0.00  0.00    +0.240 C 
ATOM     18  O   UNL     1      -2.063  -4.614   1.147  0.00  0.00    -0.274 OA
ATOM     19  C   UNL     1      -0.315  -4.814  -1.315  0.00  0.00    +0.117 C 
ATOM     20  C   UNL     1      -0.327  -4.019  -2.416  0.00  0.00    +0.196 C 
ATOM     21  O   UNL     1       0.010  -2.720  -2.357  0.00  0.00    -0.441 OA
ENDROOT
BRANCH  20  22
ATOM     22  N   UNL     1      -0.694  -4.556  -3.621  0.00  0.00    -0.329 N 
ATOM     23  H   UNL     1      -1.013  -5.471  -3.667  0.00  0.00    +0.145 HD
ATOM     24  H   UNL     1      -0.634  -4.022  -4.428  0.00  0.00    +0.145 HD
ENDBRANCH  20  22
BRANCH  19  25
ATOM     25  C   UNL     1      -0.674  -6.165  -1.435  0.00  0.00    +0.341 C 
ATOM     26  O   UNL     1       0.189  -7.023  -1.479  0.00  0.00    -0.245 OA
BRANCH  25  27
ATOM     27  O   UNL     1      -1.978  -6.514  -1.502  0.00  0.00    -0.465 OA
ATOM     28  C   UNL     1      -2.271  -7.907  -1.624  0.00  0.00    +0.280 C 
ENDBRANCH  25  27
ENDBRANCH  19  25
BRANCH   8  29
ATOM     29  C   UNL     1       0.072   0.019   2.486  0.00  0.00    +0.106 C 
BRANCH  29  30
ATOM     30  C   UNL     1      -1.363   0.250   2.966  0.00  0.00    -0.058 C 
BRANCH  30  31
ATOM     31  N   UNL     1      -1.341   0.983   4.239  0.00  0.00    +0.377 N 
ATOM     32  C   UNL     1      -2.716   1.310   4.640  0.00  0.00    -0.097 C 
ATOM     33  C   UNL     1      -0.714   0.149   5.274  0.00  0.00    -0.097 C 
ATOM     34  H   UNL     1      -0.811   1.835   4.128  0.00  0.00    -0.083 HD
ENDBRANCH  30  31
ENDBRANCH  29  30
ENDBRANCH   8  29
BRANCH  16  35
ATOM     35  C   UNL     1      -0.664  -6.175   3.149  0.00  0.00    +0.234 C 
BRANCH  35  36
ATOM     36  C   UNL     1      -0.639  -5.231   4.323  0.00  0.00    +0.325 C 
ATOM     37  O   UNL     1      -0.211  -4.109   4.187  0.00  0.00    -0.249 OA
BRANCH  36  38
ATOM     38  O   UNL     1      -1.093  -5.635   5.519  0.00  0.00    -0.467 OA
ATOM     39  C   UNL     1      -1.040  -4.688   6.588  0.00  0.00    +0.280 C 
ENDBRANCH  36  38
ENDBRANCH  35  36
ENDBRANCH  16  35
TORSDOF 9
