REMARK  Name = ZINC39697093
REMARK  7 active torsions:
REMARK  status: ('A' for Active; 'I' for Inactive)
REMARK    1  A    between atoms: C_1  and  C_2
REMARK    2  A    between atoms: C_5  and  C_8
REMARK    3  A    between atoms: C_8  and  N_9
REMARK    4  A    between atoms: C_10  and  C_12
REMARK    5  A    between atoms: C_23  and  C_25
REMARK    6  A    between atoms: C_30  and  S_31
REMARK    7  A    between atoms: S_31  and  C_32
REMARK                            x       y       z     vdW  Elec       q    Type
REMARK                         _______ _______ _______ _____ _____    ______ ____
ROOT
ATOM      1  C   UNL     1      -2.947  -6.534  -0.338  0.00  0.00    +0.100 C 
ATOM      2  C   UNL     1      -3.619  -5.997  -1.622  0.00  0.00    +0.121 C 
ATOM      3  N   UNL     1      -3.400  -7.059  -2.632  0.00  0.00    -0.296 N 
ATOM      4  C   UNL     1      -3.585  -8.325  -1.882  0.00  0.00    +0.115 C 
ATOM      5  C   UNL     1      -2.930  -8.062  -0.511  0.00  0.00    -0.004 C 
ATOM      6  C   UNL     1      -1.494  -8.578  -0.506  0.00  0.00    -0.010 C 
ATOM      7  C   UNL     1      -1.505 -10.105  -0.622  0.00  0.00    -0.082 C 
ATOM      8  N   UNL     1      -2.256 -10.677   0.502  0.00  0.00    +0.379 N 
ATOM      9  C   UNL     1      -3.659 -10.250   0.437  0.00  0.00    -0.082 C 
ATOM     10  C   UNL     1      -3.739  -8.729   0.597  0.00  0.00    -0.010 C 
ATOM     11  C   UNL     1      -3.100  -6.909  -3.937  0.00  0.00    +0.249 C 
ATOM     12  O   UNL     1      -2.884  -5.801  -4.388  0.00  0.00    -0.270 OA
ATOM     13  H   UNL     1      -2.210 -11.684   0.457  0.00  0.00    -0.086 HD
ATOM     14  H   UNL     1      -1.850 -10.363   1.370  0.00  0.00    -0.086 HD
ENDROOT
BRANCH  11  15
ATOM     15  C   UNL     1      -3.034  -8.089  -4.819  0.00  0.00    +0.069 A 
ATOM     16  C   UNL     1      -3.902  -9.170  -4.629  0.00  0.00    +0.017 A 
ATOM     17  C   UNL     1      -3.800 -10.253  -5.484  0.00  0.00    +0.020 A 
ATOM     18  C   UNL     1      -2.852 -10.239  -6.492  0.00  0.00    +0.112 A 
ATOM     19  N   UNL     1      -2.043  -9.211  -6.655  0.00  0.00    -0.248 NA
ATOM     20  C   UNL     1      -2.101  -8.146  -5.869  0.00  0.00    +0.114 A 
BRANCH  20  21
ATOM     21  S   UNL     1      -0.999  -6.798  -6.136  0.00  0.00    -0.069 S 
BRANCH  21  22
ATOM     22  C   UNL     1       0.059  -7.362  -7.428  0.00  0.00    +0.014 A 
ATOM     23  C   UNL     1      -0.220  -7.037  -8.749  0.00  0.00    +0.015 A 
ATOM     24  C   UNL     1       0.612  -7.480  -9.758  0.00  0.00    +0.001 A 
ATOM     25  C   UNL     1       1.721  -8.248  -9.455  0.00  0.00    +0.000 A 
ATOM     26  C   UNL     1       2.002  -8.575  -8.141  0.00  0.00    +0.001 A 
ATOM     27  C   UNL     1       1.178  -8.130  -7.126  0.00  0.00    +0.015 A 
ENDBRANCH  21  22
ENDBRANCH  20  21
ENDBRANCH  11  15
BRANCH   1  29
ATOM     28  N   UNL     1      -0.996  -5.804   0.996  0.00  0.00    -0.309 N 
ATOM     29  C   UNL     1      -1.542  -6.003  -0.220  0.00  0.00    +0.219 C 
ATOM     30  O   UNL     1      -0.901  -5.755  -1.220  0.00  0.00    -0.275 OA
ATOM     31  H   UNL     1      -1.509  -6.002   1.795  0.00  0.00    +0.149 HD
BRANCH  28  32
ATOM     32  C   UNL     1       0.370  -5.288   1.111  0.00  0.00    +0.161 C 
BRANCH  32  37
ATOM     33  C   UNL     1       1.778  -4.844   6.604  0.00  0.00    +0.067 C 
ATOM     34  C   UNL     1       1.411  -4.975   5.148  0.00  0.00    +0.056 A 
ATOM     35  C   UNL     1       0.726  -3.953   4.513  0.00  0.00    +0.134 A 
ATOM     36  N   UNL     1       0.405  -4.068   3.236  0.00  0.00    -0.255 NA
ATOM     37  C   UNL     1       0.737  -5.157   2.566  0.00  0.00    +0.076 A 
ATOM     38  C   UNL     1       1.422  -6.178   3.201  0.00  0.00    +0.136 A 
ATOM     39  N   UNL     1       1.748  -6.062   4.477  0.00  0.00    -0.257 NA
ENDBRANCH  32  37
ENDBRANCH  28  32
ENDBRANCH   1  29
TORSDOF 6
