REMARK  Name = ZINC37323783
REMARK  3 active torsions:
REMARK  status: ('A' for Active; 'I' for Inactive)
REMARK    1  A    between atoms: C_8  and  C_13
REMARK    2  A    between atoms: N_9  and  C_10
REMARK    3  A    between atoms: C_17  and  O_19
REMARK                            x       y       z     vdW  Elec       q    Type
REMARK                         _______ _______ _______ _____ _____    ______ ____
ROOT
ATOM      1  C   UNL     1       0.068   1.415   0.316  0.00  0.00    +0.002 A 
ATOM      2  C   UNL     1       1.252   2.111   0.120  0.00  0.00    +0.002 A 
ATOM      3  C   UNL     1       2.439   1.434  -0.067  0.00  0.00    +0.028 A 
ATOM      4  C   UNL     1       2.447   0.046  -0.059  0.00  0.00    +0.069 A 
ATOM      5  C   UNL     1       1.247  -0.660   0.139  0.00  0.00    +0.090 A 
ATOM      6  C   UNL     1       0.056   0.049   0.327  0.00  0.00    +0.030 A 
ATOM      7  N   UNL     1       1.549  -1.980   0.099  0.00  0.00    -0.228 NA
ATOM      8  C   UNL     1       2.834  -2.133  -0.107  0.00  0.00    +0.142 A 
ATOM      9  N   UNL     1       3.434  -0.907  -0.212  0.00  0.00    -0.320 N 
ENDROOT
BRANCH   8  10
ATOM     10  C   UNL     1       3.530  -3.434  -0.210  0.00  0.00    +0.021 A 
ATOM     11  C   UNL     1       4.912  -3.505  -0.027  0.00  0.00    +0.012 A 
ATOM     12  C   UNL     1       5.559  -4.719  -0.124  0.00  0.00    +0.004 A 
ATOM     13  C   UNL     1       4.842  -5.869  -0.403  0.00  0.00    +0.045 A 
ATOM     14  C   UNL     1       3.468  -5.808  -0.587  0.00  0.00    +0.118 A 
ATOM     15  C   UNL     1       2.808  -4.594  -0.486  0.00  0.00    +0.057 A 
BRANCH  14  16
ATOM     16  O   UNL     1       2.768  -6.940  -0.862  0.00  0.00    -0.507 OA
ATOM     17  H   UNL     1       2.444  -7.402  -0.077  0.00  0.00    +0.292 HD
ENDBRANCH  14  16
ENDBRANCH   8  10
BRANCH   9  18
ATOM     18  C   UNL     1       4.859  -0.655  -0.444  0.00  0.00    +0.089 C 
ATOM     19  C   UNL     1       5.228   0.399  -1.490  0.00  0.00    +0.027 C 
ATOM     20  C   UNL     1       5.443  -1.085  -1.791  0.00  0.00    +0.027 C 
ENDBRANCH   9  18
TORSDOF 3
