REMARK  Name = ZINC27475202
REMARK  5 active torsions:
REMARK  status: ('A' for Active; 'I' for Inactive)
REMARK    1  A    between atoms: C_5  and  C_7
REMARK    2  A    between atoms: N_8  and  N_9
REMARK    3  A    between atoms: C_10  and  C_11
REMARK    4  A    between atoms: C_16  and  O_17
REMARK    5  A    between atoms: N_20  and  C_21
REMARK                            x       y       z     vdW  Elec       q    Type
REMARK                         _______ _______ _______ _____ _____    ______ ____
ROOT
ATOM      1  C   UNL     1       1.308  -2.140  -0.105  0.00  0.00    +0.166 C 
ATOM      2  N   UNL     1       2.403  -2.891  -0.455  0.00  0.00    -0.219 N 
ATOM      3  N   UNL     1       0.190  -2.734   0.246  0.00  0.00    -0.210 NA
ATOM      4  H   UNL     1       2.326  -3.855  -0.533  0.00  0.00    +0.176 HD
ENDROOT
BRANCH   1   9
ATOM      5  C   UNL     1       0.359   1.475   0.209  0.00  0.00    +0.004 A 
ATOM      6  C   UNL     1       1.562   2.055  -0.170  0.00  0.00    +0.020 A 
ATOM      7  C   UNL     1       2.630   1.242  -0.511  0.00  0.00    +0.111 A 
ATOM      8  N   UNL     1       2.519  -0.068  -0.481  0.00  0.00    -0.252 NA
ATOM      9  C   UNL     1       1.386  -0.663  -0.124  0.00  0.00    +0.105 A 
ATOM     10  C   UNL     1       0.270   0.094   0.232  0.00  0.00    +0.031 A 
ENDBRANCH   1   9
BRANCH   3  11
ATOM     11  C   UNL     1       0.205  -4.042   0.633  0.00  0.00    +0.155 A 
ATOM     12  C   UNL     1      -1.002  -4.719   0.839  0.00  0.00    +0.048 A 
ATOM     13  C   UNL     1      -0.969  -6.044   1.231  0.00  0.00    +0.005 A 
ATOM     14  C   UNL     1       0.267  -6.654   1.405  0.00  0.00    +0.020 A 
ATOM     15  C   UNL     1       1.421  -5.928   1.184  0.00  0.00    +0.113 A 
ATOM     16  N   UNL     1       1.366  -4.666   0.806  0.00  0.00    -0.236 NA
ENDBRANCH   3  11
BRANCH   2  17
ATOM     17  N   UNL     1       3.633  -2.265  -0.699  0.00  0.00    -0.189 NA
ATOM     18  C   UNL     1       4.640  -2.959  -1.135  0.00  0.00    +0.142 C 
BRANCH  18  19
ATOM     19  C   UNL     1       5.910  -2.288  -1.462  0.00  0.00    +0.038 A 
ATOM     20  C   UNL     1       6.958  -3.011  -2.038  0.00  0.00    +0.033 A 
ATOM     21  C   UNL     1       8.146  -2.377  -2.342  0.00  0.00    +0.043 A 
ATOM     22  C   UNL     1       8.303  -1.026  -2.079  0.00  0.00    +0.039 A 
ATOM     23  C   UNL     1       7.273  -0.300  -1.509  0.00  0.00    +0.061 A 
ATOM     24  C   UNL     1       6.072  -0.921  -1.202  0.00  0.00    +0.139 A 
ATOM     25 BR   UNL     1       7.501   1.543  -1.153  0.00  0.00    -0.046 Br
ATOM     26 CL   UNL     1       9.447  -3.276  -3.058  0.00  0.00    -0.083 Cl
BRANCH  24  27
ATOM     27  O   UNL     1       5.058  -0.207  -0.647  0.00  0.00    -0.505 OA
ATOM     28  H   UNL     1       5.116  -0.124   0.314  0.00  0.00    +0.292 HD
ENDBRANCH  24  27
ENDBRANCH  18  19
ENDBRANCH   2  17
TORSDOF 5
