REMARK  Name = ZINC00941923
REMARK  9 active torsions:
REMARK  status: ('A' for Active; 'I' for Inactive)
REMARK    1  A    between atoms: C_1  and  C_2
REMARK    2  A    between atoms: C_2  and  C_3
REMARK    3  A    between atoms: C_3  and  C_4
REMARK    4  A    between atoms: C_9  and  C_19
REMARK    5  A    between atoms: C_13  and  C_16
REMARK    6  A    between atoms: C_14  and  O_15
REMARK    7  A    between atoms: C_16  and  N_51
REMARK    8  A    between atoms: C_17  and  N_51
REMARK    9  A    between atoms: C_18  and  N_51
REMARK                            x       y       z     vdW  Elec       q    Type
REMARK                         _______ _______ _______ _____ _____    ______ ____
ROOT
ATOM      1  C   UNL     1      -5.738  -1.819   1.718  0.00  0.00    -0.005 A 
ATOM      2  C   UNL     1      -4.612  -1.051   1.809  0.00  0.00    +0.022 A 
ATOM      3  C   UNL     1      -3.555  -1.264   0.923  0.00  0.00    +0.065 A 
ATOM      4  C   UNL     1      -2.322  -0.459   0.996  0.00  0.00    +0.200 A 
ATOM      5  O   UNL     1      -2.181   0.419   1.829  0.00  0.00    -0.286 OA
ATOM      6  C   UNL     1      -1.272  -0.764   0.010  0.00  0.00    +0.064 A 
ATOM      7  C   UNL     1      -1.489  -1.759  -0.889  0.00  0.00    +0.208 A 
ATOM      8  O   UNL     1      -2.620  -2.468  -0.916  0.00  0.00    -0.462 OA
ATOM      9  C   UNL     1      -3.643  -2.264  -0.062  0.00  0.00    +0.143 A 
ATOM     10  C   UNL     1      -4.794  -3.036  -0.141  0.00  0.00    +0.021 A 
ATOM     11  C   UNL     1      -5.835  -2.812   0.746  0.00  0.00    +0.125 A 
ENDROOT
BRANCH   6  12
ATOM     12  C   UNL     1       0.002  -0.004   0.002  0.00  0.00    -0.008 A 
ATOM     13  C   UNL     1      -0.017   1.389   0.010  0.00  0.00    +0.012 A 
ATOM     14  C   UNL     1       1.169   2.096   0.002  0.00  0.00    +0.050 A 
ATOM     15  C   UNL     1       2.381   1.424  -0.013  0.00  0.00    +0.166 A 
ATOM     16  C   UNL     1       2.406   0.030  -0.021  0.00  0.00    +0.167 A 
ATOM     17  C   UNL     1       1.220  -0.682  -0.013  0.00  0.00    +0.058 A 
ATOM     18  O   UNL     1       3.707  -0.383  -0.036  0.00  0.00    -0.453 OA
ATOM     19  C   UNL     1       4.478   0.761   0.376  0.00  0.00    +0.466 C 
ATOM     20  O   UNL     1       3.667   1.882  -0.023  0.00  0.00    -0.453 OA
ENDBRANCH   6  12
BRANCH  11  21
ATOM     21  O   UNL     1      -6.960  -3.568   0.666  0.00  0.00    -0.506 OA
ATOM     22  H   UNL     1      -6.933  -4.371   1.204  0.00  0.00    +0.292 HD
ENDBRANCH  11  21
BRANCH   1  23
ATOM     23  C   UNL     1      -6.880  -1.591   2.673  0.00  0.00    +0.038 C 
BRANCH  23  25
ATOM     24  C   UNL     1      -7.918  -2.324   4.824  0.00  0.00    +0.004 C 
ATOM     25  C   UNL     1      -6.758  -2.556   3.854  0.00  0.00    +0.001 C 
ENDBRANCH  23  25
ENDBRANCH   1  23
BRANCH  10  26
ATOM     26  C   UNL     1      -4.912  -4.113  -1.188  0.00  0.00    -0.036 C 
BRANCH  26  29
ATOM     27  C   UNL     1      -5.242  -5.865   0.450  0.00  0.00    -0.096 C 
ATOM     28  C   UNL     1      -4.274  -6.390  -1.707  0.00  0.00    -0.096 C 
ATOM     29  N   UNL     1      -4.371  -5.373  -0.638  0.00  0.00    +0.379 N 
ATOM     30  H   UNL     1      -3.433  -5.197  -0.260  0.00  0.00    -0.082 HD
ENDBRANCH  26  29
ENDBRANCH  10  26
TORSDOF 6
