REMARK  Name = ZINC12445474
REMARK  8 active torsions:
REMARK  status: ('A' for Active; 'I' for Inactive)
REMARK    1  A    between atoms: C_4  and  C_7
REMARK    2  A    between atoms: C_10  and  C_13
REMARK    3  A    between atoms: C_14  and  C_19
REMARK    4  A    between atoms: C_19  and  N_57
REMARK    5  A    between atoms: C_24  and  C_26
REMARK    6  A    between atoms: C_26  and  C_27
REMARK    7  A    between atoms: C_27  and  C_28
REMARK    8  A    between atoms: C_28  and  O_29
REMARK                            x       y       z     vdW  Elec       q    Type
REMARK                         _______ _______ _______ _____ _____    ______ ____
ROOT
ATOM      1  C   UNL     1      -1.083   3.286   0.318  0.00  0.00    +0.094 A 
ATOM      2  C   UNL     1       0.317   3.158   0.238  0.00  0.00    -0.019 A 
ATOM      3  C   UNL     1       0.615   1.840   0.266  0.00  0.00    +0.107 A 
ATOM      4  N   UNL     1      -0.544   1.153   0.360  0.00  0.00    -0.284 N 
ATOM      5  H   UNL     1      -0.635   0.158   0.404  0.00  0.00    +0.188 HD
ATOM      6  N   UNL     1      -1.598   2.076   0.386  0.00  0.00    -0.174 NA
ENDROOT
BRANCH   1  10
ATOM      7  C   UNL     1      -3.267   6.938   0.323  0.00  0.00    -0.018 A 
ATOM      8  C   UNL     1      -3.798   5.809  -0.300  0.00  0.00    +0.009 A 
ATOM      9  C   UNL     1      -3.091   4.627  -0.302  0.00  0.00    +0.010 A 
ATOM     10  C   UNL     1      -1.845   4.559   0.320  0.00  0.00    +0.002 A 
ATOM     11  C   UNL     1      -1.316   5.687   0.947  0.00  0.00    +0.010 A 
ATOM     12  C   UNL     1      -2.020   6.871   0.944  0.00  0.00    +0.009 A 
BRANCH   7  16
ATOM     13  C   UNL     1      -5.451  10.586   0.331  0.00  0.00    +0.000 A 
ATOM     14  C   UNL     1      -4.214  10.523   0.946  0.00  0.00    +0.001 A 
ATOM     15  C   UNL     1      -3.501   9.341   0.947  0.00  0.00    +0.008 A 
ATOM     16  C   UNL     1      -4.029   8.211   0.326  0.00  0.00    -0.018 A 
ATOM     17  C   UNL     1      -5.273   8.283  -0.299  0.00  0.00    +0.008 A 
ATOM     18  C   UNL     1      -5.980   9.468  -0.288  0.00  0.00    +0.001 A 
ENDBRANCH   7  16
ENDBRANCH   1  10
BRANCH   2  19
ATOM     19  C   UNL     1       1.308   4.289   0.139  0.00  0.00    -0.039 C 
BRANCH  19  25
ATOM     20  C   UNL     1       2.141   3.876   2.374  0.00  0.00    -0.078 C 
ATOM     21  C   UNL     1       2.225   4.458   3.787  0.00  0.00    -0.019 C 
ATOM     22  C   UNL     1       3.065   5.738   3.757  0.00  0.00    -0.003 C 
ATOM     23  C   UNL     1       2.436   6.730   2.775  0.00  0.00    -0.015 C 
ATOM     24  C   UNL     1       2.345   6.082   1.391  0.00  0.00    -0.068 C 
ATOM     25  N   UNL     1       1.504   4.869   1.483  0.00  0.00    +0.384 N 
ATOM     26  H   UNL     1       0.590   5.127   1.872  0.00  0.00    -0.081 HD
BRANCH  24  27
ATOM     27  C   UNL     1       1.698   7.062   0.411  0.00  0.00    -0.013 C 
BRANCH  27  28
ATOM     28  C   UNL     1       2.601   8.286   0.243  0.00  0.00    +0.026 C 
BRANCH  28  29
ATOM     29  C   UNL     1       1.901   9.319  -0.643  0.00  0.00    +0.156 C 
BRANCH  29  30
ATOM     30  O   UNL     1       2.743  10.462  -0.799  0.00  0.00    -0.395 OA
ATOM     31  H   UNL     1       2.362  11.159  -1.351  0.00  0.00    +0.209 HD
ENDBRANCH  29  30
ENDBRANCH  28  29
ENDBRANCH  27  28
ENDBRANCH  24  27
ENDBRANCH  19  25
ENDBRANCH   2  19
TORSDOF 8
