REMARK  Name = ZINC49054914
REMARK  2 active torsions:
REMARK  status: ('A' for Active; 'I' for Inactive)
REMARK    1  A    between atoms: C_4  and  C_7
REMARK    2  A    between atoms: C_18  and  N_19
REMARK                            x       y       z     vdW  Elec       q    Type
REMARK                         _______ _______ _______ _____ _____    ______ ____
ROOT
ATOM      1  C   UNL     1       3.711  -0.704  -0.036  0.00  0.00    +0.068 C 
ATOM      2  C   UNL     1       4.023  -1.412   1.262  0.00  0.00    +0.014 C 
ATOM      3  C   UNL     1       2.903  -2.314   1.768  0.00  0.00    +0.001 C 
ATOM      4  C   UNL     1       2.169  -2.990   0.602  0.00  0.00    +0.005 C 
ATOM      5  C   UNL     1       3.246  -3.761  -0.190  0.00  0.00    +0.040 C 
ATOM      6  C   UNL     1       3.701  -2.902  -1.343  0.00  0.00    +0.015 A 
ATOM      7  C   UNL     1       3.875  -1.546  -1.265  0.00  0.00    +0.059 A 
ATOM      8  N   UNL     1       4.232  -0.886  -2.376  0.00  0.00    -0.219 NA
ATOM      9  C   UNL     1       4.447  -1.507  -3.519  0.00  0.00    +0.214 A 
ATOM     10  N   UNL     1       4.327  -2.822  -3.619  0.00  0.00    -0.199 NA
ATOM     11  C   UNL     1       3.964  -3.542  -2.564  0.00  0.00    +0.130 A 
ATOM     12  N   UNL     1       4.804  -0.773  -4.637  0.00  0.00    -0.327 N 
ATOM     13  H   UNL     1       4.894   0.191  -4.575  0.00  0.00    +0.145 HD
ATOM     14  H   UNL     1       4.964  -1.223  -5.481  0.00  0.00    +0.145 HD
ENDROOT
BRANCH  11  15
ATOM     15  N   UNL     1       3.860  -4.918  -2.686  0.00  0.00    -0.316 N 
ATOM     16  C   UNL     1       4.915  -5.895  -2.343  0.00  0.00    +0.108 C 
ATOM     17  C   UNL     1       4.145  -7.201  -2.078  0.00  0.00    -0.006 C 
ATOM     18  C   UNL     1       5.019  -8.427  -2.181  0.00  0.00    +0.002 C 
ATOM     19  C   UNL     1       5.481  -8.660  -3.620  0.00  0.00    -0.019 C 
ATOM     20  C   UNL     1       4.232  -8.748  -4.506  0.00  0.00    -0.082 C 
ATOM     21  N   UNL     1       3.551  -7.454  -4.475  0.00  0.00    +0.382 N 
ATOM     22  C   UNL     1       3.043  -7.160  -3.154  0.00  0.00    -0.050 C 
ATOM     23  C   UNL     1       2.679  -5.650  -3.170  0.00  0.00    +0.091 C 
ATOM     24  H   UNL     1       4.202  -6.732  -4.747  0.00  0.00    -0.085 HD
ATOM     25  H   UNL     1       2.785  -7.469  -5.132  0.00  0.00    -0.085 HD
ENDBRANCH  11  15
BRANCH   1  29
ATOM     26  C   UNL     1      -0.009   1.378   0.025  0.00  0.00    +0.000 A 
ATOM     27  C   UNL     1       1.017   1.770   0.865  0.00  0.00    +0.000 A 
ATOM     28  C   UNL     1       2.223   1.095   0.845  0.00  0.00    +0.004 A 
ATOM     29  C   UNL     1       2.404   0.027  -0.014  0.00  0.00    -0.038 A 
ATOM     30  C   UNL     1       1.378  -0.366  -0.853  0.00  0.00    +0.004 A 
ATOM     31  C   UNL     1       0.172   0.310  -0.834  0.00  0.00    +0.000 A 
ENDBRANCH   1  29
TORSDOF 2
