REMARK  Name = ZINC63619462
REMARK  6 active torsions:
REMARK  status: ('A' for Active; 'I' for Inactive)
REMARK    1  A    between atoms: C_1  and  C_2
REMARK    2  A    between atoms: C_5  and  C_9
REMARK    3  A    between atoms: C_7  and  C_8
REMARK    4  A    between atoms: N_13  and  C_14
REMARK    5  A    between atoms: C_14  and  C_15
REMARK    6  A    between atoms: N_17  and  N_18
REMARK                            x       y       z     vdW  Elec       q    Type
REMARK                         _______ _______ _______ _____ _____    ______ ____
ROOT
ATOM      1  C   UNL     1       3.209  -5.484  -1.637  0.00  0.00    +0.213 C 
ATOM      2  O   UNL     1       2.821  -5.492  -2.786  0.00  0.00    -0.276 OA
ATOM      3  N   UNL     1       4.483  -5.823  -1.354  0.00  0.00    -0.225 N 
ATOM      4  H   UNL     1       4.793  -5.817  -0.435  0.00  0.00    +0.173 HD
ENDROOT
BRANCH   3   5
ATOM      5  N   UNL     1       5.358  -6.185  -2.386  0.00  0.00    -0.137 N 
ATOM      6  C   UNL     1       5.739  -7.452  -2.647  0.00  0.00    +0.263 C 
ATOM      7  O   UNL     1       5.404  -8.456  -2.056  0.00  0.00    -0.271 OA
ATOM      8  C   UNL     1       6.673  -7.357  -3.832  0.00  0.00    +0.114 C 
ATOM      9  C   UNL     1       6.111  -8.135  -5.017  0.00  0.00    +0.035 C 
ATOM     10  C   UNL     1       7.055  -8.000  -6.214  0.00  0.00    +0.003 C 
ATOM     11  C   UNL     1       8.436  -8.540  -5.836  0.00  0.00    +0.000 C 
ATOM     12  C   UNL     1       8.997  -7.734  -4.663  0.00  0.00    +0.003 C 
ATOM     13  C   UNL     1       8.060  -7.869  -3.459  0.00  0.00    +0.035 C 
ATOM     14  N   UNL     1       6.719  -5.920  -4.135  0.00  0.00    -0.284 N 
ATOM     15  C   UNL     1       5.914  -5.317  -3.240  0.00  0.00    +0.326 C 
ATOM     16  O   UNL     1       5.718  -4.118  -3.208  0.00  0.00    -0.251 OA
ATOM     17  H   UNL     1       7.225  -5.492  -4.843  0.00  0.00    +0.151 HD
ENDBRANCH   3   5
BRANCH   1  18
ATOM     18  C   UNL     1       2.268  -5.095  -0.526  0.00  0.00    +0.021 C 
BRANCH  18  23
ATOM     19  C   UNL     1       0.059  -4.275  -0.021  0.00  0.00    -0.037 C 
ATOM     20  C   UNL     1      -1.341  -4.831  -0.383  0.00  0.00    -0.013 C 
ATOM     21  C   UNL     1      -0.986  -6.232  -0.946  0.00  0.00    -0.020 C 
ATOM     22  C   UNL     1       0.351  -5.986  -1.675  0.00  0.00    -0.077 C 
ATOM     23  N   UNL     1       0.951  -4.773  -1.091  0.00  0.00    +0.390 N 
ATOM     24  H   UNL     1       1.052  -4.066  -1.804  0.00  0.00    -0.080 HD
BRANCH  19  29
ATOM     25  C   UNL     1      -0.018   1.503   0.010  0.00  0.00    +0.044 C 
ATOM     26  C   UNL     1       0.002  -0.004   0.002  0.00  0.00    -0.048 A 
ATOM     27  C   UNL     1       0.006  -0.689  -1.199  0.00  0.00    +0.004 A 
ATOM     28  C   UNL     1       0.025  -2.071  -1.207  0.00  0.00    +0.002 A 
ATOM     29  C   UNL     1       0.040  -2.768  -0.013  0.00  0.00    -0.061 A 
ATOM     30  C   UNL     1       0.037  -2.084   1.188  0.00  0.00    +0.005 A 
ATOM     31  C   UNL     1       0.023  -0.702   1.195  0.00  0.00    -0.047 A 
ATOM     32  C   UNL     1       0.025   0.045   2.504  0.00  0.00    +0.044 C 
ENDBRANCH  19  29
ENDBRANCH  18  23
ENDBRANCH   1  18
TORSDOF 4
