REMARK  Name = ZINC66115470
REMARK  9 active torsions:
REMARK  status: ('A' for Active; 'I' for Inactive)
REMARK    1  A    between atoms: C_1  and  C_2
REMARK    2  A    between atoms: C_2  and  C_3
REMARK    3  A    between atoms: C_3  and  O_4
REMARK    4  A    between atoms: O_4  and  C_5
REMARK    5  A    between atoms: C_14  and  C_15
REMARK    6  A    between atoms: C_15  and  N_16
REMARK    7  A    between atoms: C_22  and  C_24
REMARK    8  A    between atoms: C_24  and  C_25
REMARK    9  A    between atoms: N_27  and  N_28
REMARK                            x       y       z     vdW  Elec       q    Type
REMARK                         _______ _______ _______ _____ _____    ______ ____
ROOT
ATOM      1  N   UNL     1       1.491  -4.951   0.355  0.00  0.00    +0.391 N 
ATOM      2  C   UNL     1       1.753  -3.640  -0.259  0.00  0.00    -0.058 C 
ATOM      3  C   UNL     1       3.111  -3.688  -0.961  0.00  0.00    +0.085 C 
ATOM      4  N   UNL     1       3.177  -4.853  -1.839  0.00  0.00    -0.318 N 
ATOM      5  C   UNL     1       2.337  -5.889  -1.727  0.00  0.00    +0.200 C 
ATOM      6  O   UNL     1       2.471  -6.831  -2.479  0.00  0.00    -0.278 OA
ATOM      7  C   UNL     1       1.235  -5.932  -0.707  0.00  0.00    +0.028 C 
ATOM      8  H   UNL     1       3.856  -4.878  -2.531  0.00  0.00    +0.149 HD
ATOM      9  H   UNL     1       2.293  -5.239   0.896  0.00  0.00    -0.080 HD
ENDROOT
BRANCH   1  10
ATOM     10  C   UNL     1       0.315  -4.857   1.232  0.00  0.00    -0.038 C 
BRANCH  10  20
ATOM     11  C   UNL     1       0.387  -2.614   2.313  0.00  0.00    +0.122 A 
ATOM     12  C   UNL     1       0.667  -1.764   3.388  0.00  0.00    +0.046 A 
ATOM     13  C   UNL     1       1.193  -2.251   4.544  0.00  0.00    +0.012 A 
ATOM     14  C   UNL     1       1.460  -3.626   4.665  0.00  0.00    -0.017 A 
ATOM     15  C   UNL     1       2.002  -4.162   5.845  0.00  0.00    +0.008 A 
ATOM     16  C   UNL     1       2.248  -5.498   5.927  0.00  0.00    +0.001 A 
ATOM     17  C   UNL     1       1.970  -6.346   4.857  0.00  0.00    +0.001 A 
ATOM     18  C   UNL     1       1.444  -5.863   3.699  0.00  0.00    +0.009 A 
ATOM     19  C   UNL     1       1.176  -4.488   3.576  0.00  0.00    -0.013 A 
ATOM     20  C   UNL     1       0.629  -3.955   2.398  0.00  0.00    -0.015 A 
BRANCH  11  21
ATOM     21  O   UNL     1      -0.139  -2.098   1.170  0.00  0.00    -0.492 OA
BRANCH  21  22
ATOM     22  C   UNL     1      -0.370  -0.688   1.141  0.00  0.00    +0.229 C 
BRANCH  22  24
ATOM     23  C   UNL     1      -1.207   1.213  -0.246  0.00  0.00    +0.007 C 
ATOM     24  C   UNL     1      -0.960  -0.296  -0.215  0.00  0.00    +0.038 C 
ENDBRANCH  22  24
ENDBRANCH  21  22
ENDBRANCH  11  21
ENDBRANCH  10  20
ENDBRANCH   1  10
BRANCH   7  25
ATOM     25  C   UNL     1       1.163  -7.333  -0.097  0.00  0.00    +0.091 C 
BRANCH  25  26
ATOM     26  C   UNL     1       2.509  -7.704   0.469  0.00  0.00    +0.225 C 
ATOM     27  O   UNL     1       3.429  -6.915   0.415  0.00  0.00    -0.275 OA
ATOM     28  N   UNL     1       2.692  -8.914   1.035  0.00  0.00    -0.254 N 
ATOM     29  H   UNL     1       1.957  -9.545   1.078  0.00  0.00    +0.169 HD
BRANCH  28  30
ATOM     30  N   UNL     1       3.913  -9.251   1.547  0.00  0.00    -0.254 NA
ATOM     31  H   UNL     1       4.215  -8.577   2.235  0.00  0.00    +0.140 HD
ATOM     32  H   UNL     1       3.898 -10.182   1.936  0.00  0.00    +0.140 HD
ENDBRANCH  28  30
ENDBRANCH  25  26
ENDBRANCH   7  25
TORSDOF 8
