REMARK  Name = ZINC20670848
REMARK  7 active torsions:
REMARK  status: ('A' for Active; 'I' for Inactive)
REMARK    1  A    between atoms: C_1  and  C_2
REMARK    2  A    between atoms: C_3  and  C_21
REMARK    3  A    between atoms: C_8  and  C_10
REMARK    4  A    between atoms: C_10  and  C_11
REMARK    5  A    between atoms: C_11  and  C_12
REMARK    6  A    between atoms: C_12  and  N_13
REMARK    7  A    between atoms: C_14  and  C_16
REMARK                            x       y       z     vdW  Elec       q    Type
REMARK                         _______ _______ _______ _____ _____    ______ ____
ROOT
ATOM      1  C   UNL     1       9.784  -3.169  -0.108  0.00  0.00    +0.054 C 
ATOM      2  C   UNL     1       8.986  -1.891  -0.094  0.00  0.00    +0.016 A 
ATOM      3  C   UNL     1       9.416  -0.594  -0.091  0.00  0.00    +0.083 A 
ATOM      4  N   UNL     1       8.525   0.386  -0.077  0.00  0.00    -0.224 NA
ATOM      5  C   UNL     1       7.229   0.135  -0.066  0.00  0.00    +0.165 A 
ATOM      6  S   UNL     1       7.214  -1.653  -0.068  0.00  0.00    -0.057 S 
ATOM      7  N   UNL     1       6.161   1.023  -0.051  0.00  0.00    -0.265 N 
ATOM      8  C   UNL     1       4.897   0.557  -0.042  0.00  0.00    +0.219 C 
ATOM      9  O   UNL     1       4.691  -0.639  -0.046  0.00  0.00    -0.275 OA
ATOM     10  H   UNL     1       6.348   2.107  -0.047  0.00  0.00    +0.157 HD
ENDROOT
BRANCH   3  11
ATOM     11  C   UNL     1      10.867  -0.286  -0.104  0.00  0.00    +0.001 A 
ATOM     12  C   UNL     1      11.762  -1.108   0.579  0.00  0.00    +0.011 A 
ATOM     13  C   UNL     1      13.112  -0.820   0.560  0.00  0.00    +0.016 A 
ATOM     14  C   UNL     1      13.576   0.288  -0.127  0.00  0.00    +0.018 A 
ATOM     15  C   UNL     1      12.690   1.111  -0.802  0.00  0.00    +0.016 A 
ATOM     16  C   UNL     1      11.339   0.829  -0.794  0.00  0.00    +0.011 A 
ATOM     17 BR   UNL     1      15.425   0.681  -0.143  0.00  0.00    -0.050 Br
ENDBRANCH   3  11
BRANCH   8  18
ATOM     18  C   UNL     1       3.738   1.520  -0.025  0.00  0.00    +0.098 C 
BRANCH  18  19
ATOM     19  C   UNL     1       2.424   0.737  -0.017  0.00  0.00    +0.028 C 
BRANCH  19  20
ATOM     20  C   UNL     1       1.248   1.716  -0.001  0.00  0.00    +0.105 C 
BRANCH  20  21
ATOM     21  N   UNL     1      -0.011   0.966   0.007  0.00  0.00    -0.311 N 
ATOM     22  C   UNL     1      -1.187   1.624   0.017  0.00  0.00    +0.251 C 
ATOM     23  O   UNL     1      -1.204   2.841   0.023  0.00  0.00    -0.270 OA
ATOM     24  H   UNL     1       0.004  -0.134   0.006  0.00  0.00    +0.149 HD
BRANCH  22  25
ATOM     25  C   UNL     1      -2.447   0.874   0.018  0.00  0.00    +0.074 A 
ATOM     26  C   UNL     1      -3.748   1.351   0.033  0.00  0.00    +0.021 A 
ATOM     27  C   UNL     1      -4.756   0.419   0.028  0.00  0.00    +0.008 A 
ATOM     28  C   UNL     1      -4.438  -0.902   0.019  0.00  0.00    +0.046 A 
ATOM     29  S   UNL     1      -2.704  -0.892   0.011  0.00  0.00    -0.092 S 
ENDBRANCH  22  25
ENDBRANCH  20  21
ENDBRANCH  19  20
ENDBRANCH  18  19
ENDBRANCH   8  18
TORSDOF 6
