REMARK  Name = ZINC02152077
REMARK  4 active torsions:
REMARK  status: ('A' for Active; 'I' for Inactive)
REMARK    1  A    between atoms: C_1  and  C_2
REMARK    2  A    between atoms: C_2  and  C_4
REMARK    3  A    between atoms: C_2  and  N_14
REMARK    4  A    between atoms: N_6  and  C_7
REMARK                            x       y       z     vdW  Elec       q    Type
REMARK                         _______ _______ _______ _____ _____    ______ ____
ROOT
ATOM      1  N   UNL     1      -1.404  -0.492  -1.843  0.00  0.00    -0.288 N 
ATOM      2  C   UNL     1      -1.913  -0.797  -0.633  0.00  0.00    +0.303 C 
ATOM      3  O   UNL     1      -1.284  -0.534   0.374  0.00  0.00    -0.253 OA
ATOM      4  N   UNL     1      -3.117  -1.394  -0.539  0.00  0.00    -0.285 N 
ATOM      5  C   UNL     1      -3.938  -1.620  -1.735  0.00  0.00    +0.114 C 
ATOM      6  C   UNL     1      -5.353  -1.107  -1.507  0.00  0.00    +0.027 C 
ATOM      7  C   UNL     1      -5.926  -1.641  -0.194  0.00  0.00    +0.018 C 
ATOM      8  C   UNL     1      -5.019  -1.182   0.951  0.00  0.00    +0.054 C 
ATOM      9  C   UNL     1      -3.636  -1.840   0.764  0.00  0.00    +0.119 C 
ATOM     10  C   UNL     1      -4.848   0.318   0.896  0.00  0.00    +0.027 A 
ATOM     11  C   UNL     1      -4.586   0.962   2.065  0.00  0.00    +0.022 A 
ATOM     12  C   UNL     1      -4.351   2.341   2.081  0.00  0.00    +0.007 A 
ATOM     13  C   UNL     1      -4.363   3.025   0.901  0.00  0.00    +0.070 A 
ATOM     14  C   UNL     1      -4.633   2.331  -0.287  0.00  0.00    +0.251 A 
ATOM     15  O   UNL     1      -4.584   2.919  -1.355  0.00  0.00    -0.268 OA
ATOM     16  N   UNL     1      -4.949   1.013  -0.260  0.00  0.00    -0.312 N 
ATOM     17  C   UNL     1      -5.416   0.409  -1.503  0.00  0.00    +0.130 C 
ATOM     18  H   UNL     1      -1.935  -0.635  -2.642  0.00  0.00    +0.151 HD
ENDROOT
BRANCH   1  20
ATOM     19  C   UNL     1       0.964  -1.089  -1.978  0.00  0.00    +0.038 C 
ATOM     20  C   UNL     1      -0.050   0.057  -1.952  0.00  0.00    +0.158 C 
BRANCH  20  21
ATOM     21  C   UNL     1       0.066   0.860  -3.222  0.00  0.00    +0.237 C 
ATOM     22  O   UNL     1      -0.888   0.963  -3.963  0.00  0.00    -0.273 OA
ATOM     23  N   UNL     1       1.230   1.462  -3.534  0.00  0.00    -0.282 N 
ATOM     24  H   UNL     1       1.973   1.435  -2.911  0.00  0.00    +0.155 HD
BRANCH  23  25
ATOM     25  C   UNL     1       1.368   2.127  -4.759  0.00  0.00    +0.069 A 
ATOM     26  C   UNL     1       0.286   2.797  -5.312  0.00  0.00    +0.026 A 
ATOM     27  C   UNL     1       0.425   3.453  -6.520  0.00  0.00    +0.002 A 
ATOM     28  C   UNL     1       1.641   3.443  -7.179  0.00  0.00    +0.003 A 
ATOM     29  C   UNL     1       2.722   2.776  -6.633  0.00  0.00    +0.040 A 
ATOM     30  C   UNL     1       2.591   2.123  -5.420  0.00  0.00    +0.144 A 
ATOM     31  F   UNL     1       3.649   1.477  -4.883  0.00  0.00    -0.204 F 
ENDBRANCH  23  25
ENDBRANCH  20  21
ENDBRANCH   1  20
TORSDOF 3
