REMARK  Name = ZINC13960038
REMARK  8 active torsions:
REMARK  status: ('A' for Active; 'I' for Inactive)
REMARK    1  A    between atoms: C_5  and  C_7
REMARK    2  A    between atoms: C_7  and  N_8
REMARK    3  A    between atoms: N_13  and  C_14
REMARK    4  A    between atoms: C_14  and  N_16
REMARK    5  A    between atoms: N_16  and  N_17
REMARK    6  A    between atoms: C_18  and  C_20
REMARK    7  A    between atoms: C_26  and  C_27
REMARK    8  A    between atoms: C_26  and  N_60
REMARK                            x       y       z     vdW  Elec       q    Type
REMARK                         _______ _______ _______ _____ _____    ______ ____
ROOT
ATOM      1  N   UNL     1      -1.197   2.366   0.025  0.00  0.00    -0.246 N 
ATOM      2  H   UNL     1      -2.031   1.870   0.027  0.00  0.00    +0.172 HD
ENDROOT
BRANCH   1   3
ATOM      3  N   UNL     1      -1.216   3.767   0.034  0.00  0.00    -0.235 N 
ATOM      4  C   UNL     1      -2.392   4.425   0.046  0.00  0.00    +0.230 C 
ATOM      5  O   UNL     1      -3.434   3.804   0.048  0.00  0.00    -0.274 OA
ATOM      6  H   UNL     1      -0.383   4.263   0.032  0.00  0.00    +0.173 HD
BRANCH   4   7
ATOM      7  C   UNL     1      -2.413   5.932   0.055  0.00  0.00    +0.060 C 
ATOM      8  C   UNL     1      -1.710   6.460  -1.198  0.00  0.00    +0.009 C 
ATOM      9  C   UNL     1      -1.788   7.990  -1.210  0.00  0.00    -0.018 C 
ATOM     10  C   UNL     1      -3.256   8.421  -1.161  0.00  0.00    -0.078 C 
ATOM     11  C   UNL     1      -3.862   6.423   0.068  0.00  0.00    -0.066 C 
ATOM     12  N   UNL     1      -3.867   7.901   0.080  0.00  0.00    +0.383 N 
ATOM     13  H   UNL     1      -3.320   8.230   0.884  0.00  0.00    -0.081 HD
BRANCH  12  14
ATOM     14  C   UNL     1      -5.252   8.400   0.207  0.00  0.00    -0.043 C 
BRANCH  14  15
ATOM     15  C   UNL     1      -5.269   9.884  -0.053  0.00  0.00    -0.064 A 
ATOM     16  C   UNL     1      -5.077  10.771   0.990  0.00  0.00    +0.004 A 
ATOM     17  C   UNL     1      -5.087  12.132   0.751  0.00  0.00    +0.038 A 
ATOM     18  C   UNL     1      -5.300  12.608  -0.531  0.00  0.00    +0.123 A 
ATOM     19  C   UNL     1      -5.497  11.719  -1.575  0.00  0.00    +0.038 A 
ATOM     20  C   UNL     1      -5.481  10.358  -1.335  0.00  0.00    +0.004 A 
ATOM     21  F   UNL     1      -5.314  13.938  -0.765  0.00  0.00    -0.205 F 
ENDBRANCH  14  15
ENDBRANCH  12  14
ENDBRANCH   4   7
ENDBRANCH   1   3
BRANCH   1  22
ATOM     22  C   UNL     1      -0.021   1.708   0.013  0.00  0.00    +0.152 C 
ATOM     23  S   UNL     1       0.002  -0.004   0.002  0.00  0.00    -0.017 S 
BRANCH  22  29
ATOM     24  N   UNL     1       3.887   0.141   0.199  0.00  0.00    -0.265 N 
ATOM     25  C   UNL     1       4.544   1.318   0.264  0.00  0.00    +0.110 A 
ATOM     26  C   UNL     1       3.627   2.309   0.197  0.00  0.00    +0.065 A 
ATOM     27  C   UNL     1       2.358   1.717   0.095  0.00  0.00    +0.146 A 
ATOM     28  N   UNL     1       2.517   0.414   0.092  0.00  0.00    -0.156 NA
ATOM     29  N   UNL     1       1.137   2.397   0.004  0.00  0.00    -0.279 N 
ATOM     30  H   UNL     1       1.125   3.365  -0.065  0.00  0.00    +0.155 HD
BRANCH  24  31
ATOM     31  C   UNL     1       4.498  -1.190   0.233  0.00  0.00    +0.181 C 
BRANCH  31  36
ATOM     32  C   UNL     1       2.326  -3.672   2.070  0.00  0.00    +0.000 A 
ATOM     33  C   UNL     1       2.739  -3.488   3.377  0.00  0.00    +0.003 A 
ATOM     34  C   UNL     1       3.721  -2.561   3.667  0.00  0.00    +0.039 A 
ATOM     35  C   UNL     1       4.295  -1.819   2.649  0.00  0.00    +0.128 A 
ATOM     36  C   UNL     1       3.878  -2.000   1.342  0.00  0.00    +0.009 A 
ATOM     37  C   UNL     1       2.895  -2.929   1.053  0.00  0.00    +0.008 A 
ATOM     38  F   UNL     1       5.259  -0.915   2.932  0.00  0.00    -0.205 F 
ENDBRANCH  31  36
ENDBRANCH  24  31
ENDBRANCH  22  29
ENDBRANCH   1  22
TORSDOF 8
