REMARK  Name = ZINC08843014
REMARK  5 active torsions:
REMARK  status: ('A' for Active; 'I' for Inactive)
REMARK    1  A    between atoms: C_3  and  C_6
REMARK    2  A    between atoms: C_6  and  C_7
REMARK    3  A    between atoms: N_9  and  N_10
REMARK    4  A    between atoms: C_11  and  C_12
REMARK    5  A    between atoms: C_14  and  O_20
REMARK                            x       y       z     vdW  Elec       q    Type
REMARK                         _______ _______ _______ _____ _____    ______ ____
ROOT
ATOM      1  N   UNL     1      -3.419   3.902  -3.021  0.00  0.00    -0.188 NA
ATOM      2  C   UNL     1      -3.899   5.100  -3.164  0.00  0.00    +0.139 C 
ENDROOT
BRANCH   2   3
ATOM      3  C   UNL     1      -4.567   5.767  -2.032  0.00  0.00    +0.012 A 
ATOM      4  C   UNL     1      -4.264   5.394  -0.721  0.00  0.00    +0.057 A 
ATOM      5  C   UNL     1      -4.896   6.024   0.337  0.00  0.00    +0.131 A 
ATOM      6  C   UNL     1      -5.829   7.025   0.094  0.00  0.00    +0.060 A 
ATOM      7  C   UNL     1      -6.130   7.397  -1.204  0.00  0.00    +0.034 A 
ATOM      8  C   UNL     1      -5.502   6.779  -2.267  0.00  0.00    +0.028 A 
ATOM      9 BR   UNL     1      -5.912   7.296  -4.039  0.00  0.00    -0.050 Br
ATOM     10 BR   UNL     1      -6.688   7.883   1.543  0.00  0.00    -0.046 Br
BRANCH   5  11
ATOM     11  O   UNL     1      -4.604   5.664   1.615  0.00  0.00    -0.506 OA
ATOM     12  H   UNL     1      -3.876   6.164   2.008  0.00  0.00    +0.292 HD
ENDBRANCH   5  11
ENDBRANCH   2   3
BRANCH   1  15
ATOM     13  C   UNL     1      -3.314   1.882  -1.766  0.00  0.00    +0.237 C 
ATOM     14  O   UNL     1      -2.428   1.489  -2.495  0.00  0.00    -0.274 OA
ATOM     15  N   UNL     1      -3.901   3.072  -2.000  0.00  0.00    -0.207 N 
ATOM     16  H   UNL     1      -4.658   3.354  -1.463  0.00  0.00    +0.177 HD
BRANCH  13  17
ATOM     17  C   UNL     1      -3.758   1.040  -0.598  0.00  0.00    +0.139 C 
BRANCH  17  20
ATOM     18  C   UNL     1      -1.206  -1.732  -0.037  0.00  0.00    +0.008 A 
ATOM     19  C   UNL     1      -1.775  -0.477   0.071  0.00  0.00    +0.011 A 
ATOM     20  C   UNL     1      -2.950  -0.232  -0.559  0.00  0.00    -0.001 A 
ATOM     21  S   UNL     1      -3.286  -1.802  -1.338  0.00  0.00    -0.101 S 
ATOM     22  C   UNL     1      -1.839  -2.680  -0.771  0.00  0.00    +0.045 A 
ENDBRANCH  17  20
ENDBRANCH  13  17
ENDBRANCH   1  15
TORSDOF 5
