REMARK  Name = ZINC20806215
REMARK  3 active torsions:
REMARK  status: ('A' for Active; 'I' for Inactive)
REMARK    1  A    between atoms: N_18  and  N_19
REMARK    2  A    between atoms: N_19  and  C_20
REMARK    3  A    between atoms: C_23  and  S_26
REMARK                            x       y       z     vdW  Elec       q    Type
REMARK                         _______ _______ _______ _____ _____    ______ ____
ROOT
ATOM      1  C   UNL     1      -1.224   1.748   0.017  0.00  0.00    +0.001 A 
ATOM      2  C   UNL     1      -0.013   1.076   0.008  0.00  0.00    +0.001 A 
ATOM      3  C   UNL     1       1.175   1.778   0.000  0.00  0.00    +0.011 A 
ATOM      4  C   UNL     1       1.161   3.172   0.008  0.00  0.00    +0.013 A 
ATOM      5  C   UNL     1      -0.068   3.855   0.022  0.00  0.00    +0.012 A 
ATOM      6  C   UNL     1      -1.258   3.127   0.030  0.00  0.00    +0.011 A 
ATOM      7  C   UNL     1       0.191   5.310   0.028  0.00  0.00    +0.100 A 
ATOM      8  C   UNL     1       1.643   5.505   0.016  0.00  0.00    +0.118 A 
ATOM      9  N   UNL     1       2.143   6.726   0.018  0.00  0.00    -0.241 NA
ATOM     10  C   UNL     1       1.319   7.780   0.032  0.00  0.00    +0.090 A 
ATOM     11  C   UNL     1       1.839   9.088   0.035  0.00  0.00    +0.030 A 
ATOM     12  C   UNL     1       0.992  10.153   0.049  0.00  0.00    +0.002 A 
ATOM     13  C   UNL     1      -0.390   9.969   0.061  0.00  0.00    +0.002 A 
ATOM     14  C   UNL     1      -0.929   8.720   0.059  0.00  0.00    +0.030 A 
ATOM     15  C   UNL     1      -0.087   7.593   0.044  0.00  0.00    +0.090 A 
ATOM     16  N   UNL     1      -0.607   6.361   0.042  0.00  0.00    -0.243 NA
ATOM     17  C   UNL     1       2.258   4.164   0.003  0.00  0.00    +0.117 C 
ATOM     18  N   UNL     1       3.542   3.900  -0.010  0.00  0.00    -0.180 NA
ENDROOT
BRANCH  18  19
ATOM     19  N   UNL     1       4.473   4.947  -0.013  0.00  0.00    -0.237 N 
ATOM     20  H   UNL     1       4.126   5.991  -0.005  0.00  0.00    +0.174 HD
BRANCH  19  21
ATOM     21  C   UNL     1       5.839   4.666  -0.026  0.00  0.00    +0.048 A 
ATOM     22  C   UNL     1       6.279   3.347  -0.031  0.00  0.00    +0.026 A 
ATOM     23  C   UNL     1       7.632   3.073  -0.050  0.00  0.00    +0.031 A 
ATOM     24  C   UNL     1       8.550   4.108  -0.053  0.00  0.00    +0.120 A 
ATOM     25  C   UNL     1       8.116   5.421  -0.042  0.00  0.00    +0.031 A 
ATOM     26  C   UNL     1       6.764   5.703  -0.029  0.00  0.00    +0.026 A 
BRANCH  24  27
ATOM     27  S   UNL     1      10.275   3.753  -0.070  0.00  0.00    +0.140 S 
ATOM     28  O   UNL     1      10.417   2.454  -0.628  0.00  0.00    -0.140 OA
ATOM     29  O   UNL     1      10.919   4.893  -0.621  0.00  0.00    -0.140 OA
ATOM     30  O   UNL     1      10.729   3.655   1.380  0.00  0.00    -0.043 OA
ENDBRANCH  24  27
ENDBRANCH  19  21
ENDBRANCH  18  19
TORSDOF 3
