REMARK  Name = ZINC00680105
REMARK  9 active torsions:
REMARK  status: ('A' for Active; 'I' for Inactive)
REMARK    1  A    between atoms: C_1  and  C_2
REMARK    2  A    between atoms: C_3  and  C_9
REMARK    3  A    between atoms: C_4  and  C_8
REMARK    4  A    between atoms: N_5  and  C_7
REMARK    5  A    between atoms: C_11  and  C_31
REMARK    6  A    between atoms: C_12  and  N_30
REMARK    7  A    between atoms: N_13  and  C_23
REMARK    8  A    between atoms: C_19  and  C_21
REMARK    9  A    between atoms: C_19  and  C_22
REMARK                            x       y       z     vdW  Elec       q    Type
REMARK                         _______ _______ _______ _____ _____    ______ ____
ROOT
ATOM      1  C   UNL     1       1.260   2.147  -0.001  0.00  0.00    +0.101 C 
ATOM      2  C   UNL     1      -0.013   1.353   0.020  0.00  0.00    +0.077 C 
ATOM      3  C   UNL     1       0.006  -0.005   0.013  0.00  0.00    +0.107 C 
ATOM      4  N   UNL     1       1.206  -0.678  -0.021  0.00  0.00    -0.260 N 
ATOM      5  C   UNL     1       2.348  -0.047  -0.439  0.00  0.00    +0.025 C 
ATOM      6  C   UNL     1       2.421   1.301  -0.459  0.00  0.00    +0.025 C 
ATOM      7  C   UNL     1       3.583   1.957  -0.902  0.00  0.00    +0.162 C 
ATOM      8  O   UNL     1       3.619   3.172  -0.899  0.00  0.00    -0.292 OA
ATOM      9  C   UNL     1       4.782   1.185  -1.380  0.00  0.00    +0.086 C 
ATOM     10  C   UNL     1       4.315  -0.158  -1.952  0.00  0.00    -0.023 C 
ATOM     11  C   UNL     1       3.519  -0.895  -0.873  0.00  0.00    +0.058 C 
ATOM     12  C   UNL     1       3.424   0.085  -3.172  0.00  0.00    +0.011 C 
ATOM     13  C   UNL     1       5.530  -0.993  -2.361  0.00  0.00    +0.011 C 
ENDROOT
BRANCH   1  16
ATOM     14  C   UNL     1       1.697   0.380   2.594  0.00  0.00    +0.068 C 
ATOM     15  C   UNL     1       1.736   1.885   2.531  0.00  0.00    +0.064 A 
ATOM     16  C   UNL     1       1.543   2.664   1.386  0.00  0.00    +0.009 A 
ATOM     17  C   UNL     1       1.661   3.965   1.742  0.00  0.00    +0.040 A 
ATOM     18  N   UNL     1       1.910   4.007   3.067  0.00  0.00    -0.271 N 
ATOM     19  N   UNL     1       1.957   2.689   3.540  0.00  0.00    -0.176 NA
ATOM     20  C   UNL     1       2.105   5.218   3.869  0.00  0.00    +0.172 C 
ATOM     21  C   UNL     1       1.532   5.152   0.823  0.00  0.00    +0.065 C 
ENDBRANCH   1  16
BRANCH   4  22
ATOM     22  C   UNL     1       1.261  -2.019   0.376  0.00  0.00    +0.041 A 
ATOM     23  C   UNL     1       0.595  -2.991  -0.360  0.00  0.00    +0.024 A 
ATOM     24  C   UNL     1       0.650  -4.313   0.033  0.00  0.00    +0.003 A 
ATOM     25  C   UNL     1       1.368  -4.672   1.159  0.00  0.00    +0.015 A 
ATOM     26  C   UNL     1       2.033  -3.707   1.895  0.00  0.00    +0.020 A 
ATOM     27  C   UNL     1       1.986  -2.382   1.503  0.00  0.00    +0.039 A 
ATOM     28 BR   UNL     1       3.013  -4.202   3.435  0.00  0.00    -0.050 Br
ENDBRANCH   4  22
BRANCH   3  29
ATOM     29  N   UNL     1      -1.174  -0.708   0.040  0.00  0.00    -0.345 N 
ATOM     30  H   UNL     1      -2.017  -0.237   0.137  0.00  0.00    +0.144 HD
ATOM     31  H   UNL     1      -1.165  -1.675  -0.037  0.00  0.00    +0.144 HD
ENDBRANCH   3  29
BRANCH   2  32
ATOM     32  C   UNL     1      -1.270   2.039   0.042  0.00  0.00    +0.099 C 
ATOM     33  N   UNL     1      -2.267   2.584   0.060  0.00  0.00    -0.191 NA
ENDBRANCH   2  32
TORSDOF 4
