REMARK  Name = ZINC04729938
REMARK  6 active torsions:
REMARK  status: ('A' for Active; 'I' for Inactive)
REMARK    1  A    between atoms: C_1  and  C_2
REMARK    2  A    between atoms: C_2  and  C_3
REMARK    3  A    between atoms: C_2  and  C_4
REMARK    4  A    between atoms: C_6  and  C_18
REMARK    5  A    between atoms: C_9  and  C_11
REMARK    6  A    between atoms: C_23  and  O_24
REMARK                            x       y       z     vdW  Elec       q    Type
REMARK                         _______ _______ _______ _____ _____    ______ ____
ROOT
ATOM      1  C   UNL     1      -0.019   1.526   0.010  0.00  0.00    +0.053 C 
ATOM      2  C   UNL     1      -0.617   3.467  -1.290  0.00  0.00    -0.029 C 
ATOM      3  C   UNL     1       0.844   3.783  -1.629  0.00  0.00    +0.044 C 
ATOM      4  C   UNL     1       1.749   3.015  -0.707  0.00  0.00    +0.040 C 
ATOM      5  N   UNL     1       1.351   2.025   0.000  0.00  0.00    -0.303 NA
ATOM      6  N   UNL     1      -0.757   2.003  -1.169  0.00  0.00    +0.399 N 
ATOM      7  H   UNL     1      -1.750   1.763  -1.069  0.00  0.00    -0.082 HD
ATOM      8  H   UNL     1      -0.380   1.554  -2.011  0.00  0.00    -0.082 HD
ENDROOT
BRANCH   4   9
ATOM      9  C   UNL     1       3.165   3.421  -0.612  0.00  0.00    -0.004 A 
ATOM     10  C   UNL     1       3.639   4.493  -1.371  0.00  0.00    +0.011 A 
ATOM     11  C   UNL     1       4.961   4.872  -1.274  0.00  0.00    +0.020 A 
ATOM     12  C   UNL     1       5.822   4.184  -0.435  0.00  0.00    +0.041 A 
ATOM     13  C   UNL     1       5.359   3.117   0.317  0.00  0.00    +0.020 A 
ATOM     14  C   UNL     1       4.037   2.732   0.234  0.00  0.00    +0.011 A 
ATOM     15 CL   UNL     1       7.487   4.662  -0.324  0.00  0.00    -0.084 Cl
ENDBRANCH   4   9
BRANCH   2  16
ATOM     16  C   UNL     1      -1.514   3.970  -2.392  0.00  0.00    -0.018 A 
ATOM     17  C   UNL     1      -1.991   3.095  -3.349  0.00  0.00    +0.020 A 
ATOM     18  C   UNL     1      -2.819   3.555  -4.357  0.00  0.00    +0.018 A 
ATOM     19  C   UNL     1      -3.162   4.894  -4.415  0.00  0.00    +0.019 A 
ATOM     20  C   UNL     1      -2.683   5.773  -3.463  0.00  0.00    +0.047 A 
ATOM     21  C   UNL     1      -1.857   5.313  -2.449  0.00  0.00    +0.119 A 
ATOM     22 BR   UNL     1      -3.475   2.354  -5.661  0.00  0.00    -0.050 Br
BRANCH  21  23
ATOM     23  O   UNL     1      -1.385   6.176  -1.511  0.00  0.00    -0.507 OA
ATOM     24  H   UNL     1      -0.540   6.585  -1.743  0.00  0.00    +0.292 HD
ENDBRANCH  21  23
ENDBRANCH   2  16
BRANCH   1  26
ATOM     25  C   UNL     1       0.742  -0.511   1.242  0.00  0.00    +0.007 C 
ATOM     26  C   UNL     1       0.002  -0.004   0.002  0.00  0.00    -0.010 C 
ATOM     27  C   UNL     1      -1.433  -0.534   0.013  0.00  0.00    +0.007 C 
ENDBRANCH   1  26
TORSDOF 4
