REMARK  Name = ZINC21043384
REMARK  8 active torsions:
REMARK  status: ('A' for Active; 'I' for Inactive)
REMARK    1  A    between atoms: C_1  and  C_2
REMARK    2  A    between atoms: N_5  and  C_7
REMARK    3  A    between atoms: C_18  and  C_20
REMARK    4  A    between atoms: N_22  and  C_23
REMARK    5  A    between atoms: C_23  and  C_24
REMARK    6  A    between atoms: C_24  and  N_25
REMARK    7  A    between atoms: N_25  and  C_26
REMARK    8  A    between atoms: N_25  and  C_27
REMARK                            x       y       z     vdW  Elec       q    Type
REMARK                         _______ _______ _______ _____ _____    ______ ____
ROOT
ATOM      1  C   UNL     1      -0.768  11.279   1.649  0.00  0.00    +0.068 C 
ATOM      2  C   UNL     1      -1.823  11.808   0.712  0.00  0.00    +0.069 A 
ATOM      3  C   UNL     1      -2.558  11.057  -0.200  0.00  0.00    +0.033 A 
ATOM      4  C   UNL     1      -3.442  11.925  -0.850  0.00  0.00    +0.054 A 
ATOM      5  N   UNL     1      -3.210  13.149  -0.368  0.00  0.00    -0.236 N 
ATOM      6  N   UNL     1      -2.207  13.058   0.611  0.00  0.00    -0.171 NA
ATOM      7  C   UNL     1      -4.425  11.437  -1.876  0.00  0.00    +0.061 C 
ATOM      8  C   UNL     1      -3.888  10.250  -2.669  0.00  0.00    +0.042 C 
ATOM      9  C   UNL     1      -3.216   9.224  -1.768  0.00  0.00    -0.031 A 
ATOM     10  C   UNL     1      -2.563   9.658  -0.604  0.00  0.00    +0.027 A 
ATOM     11  S   UNL     1      -1.895   8.189   0.100  0.00  0.00    -0.083 S 
ATOM     12  C   UNL     1      -2.494   7.037  -1.130  0.00  0.00    +0.075 A 
ATOM     13  C   UNL     1      -3.170   7.871  -2.007  0.00  0.00    +0.025 A 
ENDROOT
BRANCH   5  14
ATOM     14  C   UNL     1      -3.857  14.325  -0.771  0.00  0.00    +0.066 A 
ATOM     15  C   UNL     1      -3.130  15.496  -0.942  0.00  0.00    +0.028 A 
ATOM     16  C   UNL     1      -3.769  16.652  -1.345  0.00  0.00    +0.002 A 
ATOM     17  C   UNL     1      -5.134  16.647  -1.567  0.00  0.00    +0.000 A 
ATOM     18  C   UNL     1      -5.862  15.484  -1.392  0.00  0.00    +0.002 A 
ATOM     19  C   UNL     1      -5.227  14.324  -0.995  0.00  0.00    +0.028 A 
ENDBRANCH   5  14
BRANCH  12  20
ATOM     20  C   UNL     1      -2.320   5.585  -1.191  0.00  0.00    +0.251 C 
ATOM     21  O   UNL     1      -2.807   4.952  -2.109  0.00  0.00    -0.270 OA
ATOM     22  N   UNL     1      -1.621   4.949  -0.230  0.00  0.00    -0.313 N 
ATOM     23  H   UNL     1      -1.180   5.521   0.600  0.00  0.00    +0.149 HD
BRANCH  22  24
ATOM     24  C   UNL     1      -1.447   3.496  -0.291  0.00  0.00    +0.086 C 
BRANCH  24  25
ATOM     25  C   UNL     1      -0.621   3.030   0.910  0.00  0.00    -0.060 C 
BRANCH  25  26
ATOM     26  N   UNL     1      -0.447   1.573   0.848  0.00  0.00    +0.381 N 
ATOM     27  C   UNL     1       0.372   1.189  -0.309  0.00  0.00    -0.096 C 
ATOM     28  H   UNL     1      -1.441   1.118   0.725  0.00  0.00    -0.082 HD
BRANCH  26  29
ATOM     29  C   UNL     1       0.133   1.059   2.097  0.00  0.00    -0.069 C 
ATOM     30  C   UNL     1       1.550   1.611   2.266  0.00  0.00    -0.015 C 
ATOM     31  C   UNL     1       2.153   1.076   3.566  0.00  0.00    -0.002 C 
ATOM     32  C   UNL     1       2.204  -0.453   3.514  0.00  0.00    -0.000 C 
ATOM     33  C   UNL     1       0.787  -1.004   3.344  0.00  0.00    -0.002 C 
ATOM     34  C   UNL     1       0.183  -0.469   2.044  0.00  0.00    -0.015 C 
ENDBRANCH  26  29
ENDBRANCH  25  26
ENDBRANCH  24  25
ENDBRANCH  22  24
ENDBRANCH  12  20
TORSDOF 6
