REMARK  Name = ZINC36559604
REMARK  13 active torsions:
REMARK  status: ('A' for Active; 'I' for Inactive)
REMARK    1  A    between atoms: C_1  and  C_2
REMARK    2  A    between atoms: C_2  and  C_3
REMARK    3  A    between atoms: C_3  and  N_4
REMARK    4  A    between atoms: N_4  and  C_5
REMARK    5  A    between atoms: C_5  and  C_7
REMARK    6  A    between atoms: C_5  and  C_16
REMARK    7  A    between atoms: C_8  and  O_15
REMARK    8  A    between atoms: C_10  and  O_14
REMARK    9  A    between atoms: C_12  and  O_13
REMARK   10  A    between atoms: N_18  and  C_19
REMARK   11  A    between atoms: C_25  and  C_27
REMARK   12  A    between atoms: C_27  and  C_35
REMARK   13  A    between atoms: C_28  and  C_29
REMARK                            x       y       z     vdW  Elec       q    Type
REMARK                         _______ _______ _______ _____ _____    ______ ____
ROOT
ATOM      1  C   UNL     1      -0.003  -2.550   0.886  0.00  0.00    +0.199 C 
ENDROOT
BRANCH   1   2
ATOM      2  C   UNL     1       0.658  -3.885   0.659  0.00  0.00    +0.065 A 
ATOM      3  C   UNL     1       1.853  -3.957  -0.041  0.00  0.00    +0.129 A 
ATOM      4  C   UNL     1       2.461  -5.185  -0.250  0.00  0.00    +0.091 A 
ATOM      5  C   UNL     1       1.875  -6.342   0.241  0.00  0.00    +0.124 A 
ATOM      6  C   UNL     1       0.680  -6.270   0.943  0.00  0.00    +0.091 A 
ATOM      7  C   UNL     1       0.074  -5.041   1.155  0.00  0.00    +0.129 A 
BRANCH   7   8
ATOM      8  O   UNL     1      -1.094  -4.969   1.846  0.00  0.00    -0.506 OA
ATOM      9  H   UNL     1      -1.883  -5.044   1.293  0.00  0.00    +0.292 HD
ENDBRANCH   7   8
BRANCH   5  10
ATOM     10  O   UNL     1       2.470  -7.546   0.036  0.00  0.00    -0.507 OA
ATOM     11  H   UNL     1       3.092  -7.801   0.732  0.00  0.00    +0.292 HD
ENDBRANCH   5  10
BRANCH   3  12
ATOM     12  O   UNL     1       2.428  -2.823  -0.523  0.00  0.00    -0.506 OA
ATOM     13  H   UNL     1       3.101  -2.446   0.059  0.00  0.00    +0.292 HD
ENDBRANCH   3  12
ENDBRANCH   1   2
BRANCH   1  14
ATOM     14  C   UNL     1       0.764  -1.780   1.931  0.00  0.00    +0.239 C 
ATOM     15  O   UNL     1       1.019  -0.608   1.755  0.00  0.00    -0.273 OA
ATOM     16  N   UNL     1       1.167  -2.396   3.060  0.00  0.00    -0.311 N 
ATOM     17  H   UNL     1       0.964  -3.334   3.200  0.00  0.00    +0.149 HD
BRANCH  16  18
ATOM     18  C   UNL     1       1.913  -1.648   4.075  0.00  0.00    +0.073 C 
ATOM     19  C   UNL     1       3.401  -1.648   3.718  0.00  0.00    +0.022 C 
ATOM     20  C   UNL     1       4.180  -0.867   4.779  0.00  0.00    +0.002 C 
ATOM     21  C   UNL     1       3.983  -1.527   6.145  0.00  0.00    +0.000 C 
ATOM     22  C   UNL     1       2.495  -1.527   6.502  0.00  0.00    +0.002 C 
ATOM     23  C   UNL     1       1.716  -2.308   5.441  0.00  0.00    +0.022 C 
ENDBRANCH  16  18
ENDBRANCH   1  14
BRANCH   1  24
ATOM     24  N   UNL     1      -0.015  -1.791  -0.367  0.00  0.00    -0.282 N 
ATOM     25  C   UNL     1      -0.805  -2.186  -1.386  0.00  0.00    +0.248 C 
ATOM     26  O   UNL     1      -1.566  -3.124  -1.238  0.00  0.00    -0.270 OA
BRANCH  25  27
ATOM     27  C   UNL     1      -0.748  -1.482  -2.677  0.00  0.00    +0.045 C 
ATOM     28  C   UNL     1      -1.558  -0.415  -2.907  0.00  0.00    +0.021 C 
BRANCH  28  29
ATOM     29  C   UNL     1      -2.630  -0.089  -1.957  0.00  0.00    -0.024 A 
ATOM     30  C   UNL     1      -2.896   1.245  -1.626  0.00  0.00    +0.008 A 
ATOM     31  C   UNL     1      -3.904   1.542  -0.734  0.00  0.00    +0.001 A 
ATOM     32  C   UNL     1      -4.653   0.525  -0.166  0.00  0.00    +0.000 A 
ATOM     33  C   UNL     1      -4.397  -0.796  -0.488  0.00  0.00    +0.001 A 
ATOM     34  C   UNL     1      -3.396  -1.110  -1.382  0.00  0.00    +0.008 A 
ENDBRANCH  28  29
BRANCH  27  35
ATOM     35  C   UNL     1       0.193  -1.937  -3.727  0.00  0.00    -0.013 A 
ATOM     36  C   UNL     1       0.035  -3.193  -4.313  0.00  0.00    +0.008 A 
ATOM     37  C   UNL     1       0.914  -3.611  -5.290  0.00  0.00    +0.001 A 
ATOM     38  C   UNL     1       1.952  -2.788  -5.689  0.00  0.00    +0.000 A 
ATOM     39  C   UNL     1       2.114  -1.541  -5.112  0.00  0.00    +0.001 A 
ATOM     40  C   UNL     1       1.238  -1.109  -4.138  0.00  0.00    +0.008 A 
ENDBRANCH  27  35
ENDBRANCH  25  27
BRANCH  24  41
ATOM     41  C   UNL     1       0.830  -0.604  -0.514  0.00  0.00    +0.109 C 
BRANCH  41  43
ATOM     42  C   UNL     1       0.959   1.860  -0.120  0.00  0.00    +0.005 C 
ATOM     43  C   UNL     1       0.033   0.642  -0.123  0.00  0.00    +0.016 C 
ENDBRANCH  41  43
ENDBRANCH  24  41
ENDBRANCH   1  24
TORSDOF 12
