REMARK  Name = ZINC64373051
REMARK  7 active torsions:
REMARK  status: ('A' for Active; 'I' for Inactive)
REMARK    1  A    between atoms: C_7  and  C_10
REMARK    2  A    between atoms: C_10  and  C_11
REMARK    3  A    between atoms: C_11  and  N_12
REMARK    4  A    between atoms: C_13  and  C_15
REMARK    5  A    between atoms: C_19  and  S_22
REMARK    6  A    between atoms: S_22  and  C_23
REMARK    7  A    between atoms: C_23  and  C_24
REMARK                            x       y       z     vdW  Elec       q    Type
REMARK                         _______ _______ _______ _____ _____    ______ ____
ROOT
ATOM      1  C   UNL     1      -1.694  -6.485  -2.622  0.00  0.00    +0.086 C 
ATOM      2  C   UNL     1      -2.126  -7.005  -3.789  0.00  0.00    +0.020 C 
ATOM      3  C   UNL     1      -3.163  -8.120  -3.849  0.00  0.00    +0.122 C 
ATOM      4  S   UNL     1      -2.666  -8.921  -5.436  0.00  0.00    -0.122 S 
ATOM      5  C   UNL     1      -1.772  -7.475  -6.145  0.00  0.00    +0.188 C 
ATOM      6  N   UNL     1      -1.675  -6.568  -4.983  0.00  0.00    -0.326 N 
ATOM      7  H   UNL     1      -1.294  -5.681  -5.075  0.00  0.00    +0.148 HD
ENDROOT
BRANCH   1   9
ATOM      8  N   UNL     1      -0.276  -4.945  -1.464  0.00  0.00    -0.311 N 
ATOM      9  C   UNL     1      -0.631  -5.552  -2.613  0.00  0.00    +0.238 C 
ATOM     10  O   UNL     1      -0.036  -5.298  -3.645  0.00  0.00    -0.271 OA
ATOM     11  H   UNL     1      -0.750  -5.148  -0.642  0.00  0.00    +0.149 HD
BRANCH   8  12
ATOM     12  C   UNL     1       0.825  -3.979  -1.455  0.00  0.00    +0.109 C 
BRANCH  12  13
ATOM     13  C   UNL     1       1.021  -3.441  -0.036  0.00  0.00    +0.052 C 
BRANCH  13  20
ATOM     14  C   UNL     1       1.133   1.134  -0.373  0.00  0.00    +0.001 A 
ATOM     15  C   UNL     1       2.427   1.670  -0.318  0.00  0.00    +0.002 A 
ATOM     16  C   UNL     1       3.529   0.902  -0.179  0.00  0.00    +0.026 A 
ATOM     17  C   UNL     1       3.413  -0.512  -0.081  0.00  0.00    +0.043 A 
ATOM     18  N   UNL     1       4.313  -1.454   0.056  0.00  0.00    -0.380 N 
ATOM     19  C   UNL     1       3.629  -2.752   0.104  0.00  0.00    +0.144 C 
ATOM     20  C   UNL     1       2.154  -2.447  -0.027  0.00  0.00    -0.040 C 
ATOM     21  C   UNL     1       2.056  -1.103  -0.135  0.00  0.00    -0.001 A 
ATOM     22  C   UNL     1       0.911  -0.198  -0.288  0.00  0.00    +0.010 A 
ATOM     23  H   UNL     1       5.272  -1.317   0.116  0.00  0.00    +0.160 HD
ENDBRANCH  13  20
ENDBRANCH  12  13
ENDBRANCH   8  12
ENDBRANCH   1   9
BRANCH   5  24
ATOM     24  S   UNL     1      -0.127  -7.959  -6.738  0.00  0.00    -0.123 S 
BRANCH  24  25
ATOM     25  C   UNL     1       0.689  -8.636  -5.266  0.00  0.00    +0.108 C 
BRANCH  25  26
ATOM     26  C   UNL     1       2.083  -9.082  -5.624  0.00  0.00    -0.019 A 
ATOM     27  C   UNL     1       2.304 -10.374  -6.063  0.00  0.00    +0.007 A 
ATOM     28  C   UNL     1       3.582 -10.783  -6.392  0.00  0.00    +0.020 A 
ATOM     29  C   UNL     1       4.641  -9.900  -6.283  0.00  0.00    +0.042 A 
ATOM     30  C   UNL     1       4.421  -8.607  -5.844  0.00  0.00    +0.040 A 
ATOM     31  C   UNL     1       3.141  -8.196  -5.519  0.00  0.00    +0.046 A 
ATOM     32 CL   UNL     1       2.862  -6.572  -4.974  0.00  0.00    -0.083 Cl
ATOM     33 CL   UNL     1       6.247 -10.415  -6.695  0.00  0.00    -0.083 Cl
ENDBRANCH  25  26
ENDBRANCH  24  25
ENDBRANCH   5  24
TORSDOF 7
