REMARK  Name = ZINC39465454
REMARK  5 active torsions:
REMARK  status: ('A' for Active; 'I' for Inactive)
REMARK    1  A    between atoms: C_1  and  C_2
REMARK    2  A    between atoms: C_2  and  O_3
REMARK    3  A    between atoms: O_3  and  C_4
REMARK    4  A    between atoms: C_9  and  C_10
REMARK    5  A    between atoms: C_10  and  C_11
REMARK                            x       y       z     vdW  Elec       q    Type
REMARK                         _______ _______ _______ _____ _____    ______ ____
ROOT
ATOM      1  C   UNL     1       0.802  -1.824   1.306  0.00  0.00    +0.124 A 
ATOM      2  C   UNL     1       0.261  -2.674   0.354  0.00  0.00    +0.050 A 
ATOM      3  C   UNL     1       0.370  -4.047   0.500  0.00  0.00    -0.038 A 
ATOM      4  C   UNL     1       1.020  -4.574   1.596  0.00  0.00    -0.023 A 
ATOM      5  C   UNL     1       1.562  -3.723   2.550  0.00  0.00    +0.013 A 
ATOM      6  C   UNL     1       1.460  -2.355   2.405  0.00  0.00    -0.001 A 
ATOM      7  C   UNL     1       1.167  -6.059   1.801  0.00  0.00    +0.130 C 
ATOM      8  C   UNL     1       0.900  -6.389   3.273  0.00  0.00    +0.196 C 
ATOM      9  O   UNL     1       1.158  -7.791   3.486  0.00  0.00    -0.292 OA
ATOM     10  P   UNL     1       0.473  -8.863   2.472  0.00  0.00    +0.448 P 
ATOM     11  O   UNL     1       1.276 -10.182   2.468  0.00  0.00    -0.236 OA
ATOM     12  N   UNL     1       0.525  -8.157   0.977  0.00  0.00    -0.154 NA
ATOM     13  N   UNL     1       0.251  -6.805   0.939  0.00  0.00    -0.224 NA
ATOM     14  C   UNL     1       0.338  -6.335  -0.452  0.00  0.00    +0.108 C 
ATOM     15  C   UNL     1      -0.235  -4.934  -0.557  0.00  0.00    +0.052 C 
ATOM     16  O   UNL     1      -0.991  -9.131   2.888  0.00  0.00    -0.126 OA
ATOM     17  H   UNL     1       0.729  -8.669   0.179  0.00  0.00    +0.153 HD
ENDROOT
BRANCH   1  18
ATOM     18  O   UNL     1       0.693  -0.477   1.160  0.00  0.00    -0.492 OA
BRANCH  18  20
ATOM     19  C   UNL     1      -0.019   1.526   0.010  0.00  0.00    +0.048 C 
ATOM     20  C   UNL     1       0.002  -0.004   0.002  0.00  0.00    +0.225 C 
ENDBRANCH  18  20
ENDBRANCH   1  18
BRANCH   6  21
ATOM     21  C   UNL     1       2.057  -1.440   3.443  0.00  0.00    +0.074 C 
BRANCH  21  22
ATOM     22  C   UNL     1       0.997  -1.057   4.444  0.00  0.00    -0.043 A 
ATOM     23  C   UNL     1       0.217   0.064   4.231  0.00  0.00    +0.004 A 
ATOM     24  C   UNL     1      -0.754   0.415   5.149  0.00  0.00    +0.000 A 
ATOM     25  C   UNL     1      -0.947  -0.355   6.280  0.00  0.00    +0.000 A 
ATOM     26  C   UNL     1      -0.167  -1.477   6.494  0.00  0.00    +0.000 A 
ATOM     27  C   UNL     1       0.802  -1.830   5.573  0.00  0.00    +0.004 A 
ENDBRANCH  21  22
ENDBRANCH   6  21
TORSDOF 4
