REMARK  Name = ZINC39724252
REMARK  9 active torsions:
REMARK  status: ('A' for Active; 'I' for Inactive)
REMARK    1  A    between atoms: C_1  and  C_2
REMARK    2  A    between atoms: C_2  and  C_3
REMARK    3  A    between atoms: C_11  and  S_17
REMARK    4  A    between atoms: N_12  and  C_15
REMARK    5  A    between atoms: C_15  and  C_16
REMARK    6  A    between atoms: S_17  and  C_18
REMARK    7  A    between atoms: C_18  and  C_19
REMARK    8  A    between atoms: C_25  and  C_33
REMARK    9  A    between atoms: C_26  and  C_30
REMARK                            x       y       z     vdW  Elec       q    Type
REMARK                         _______ _______ _______ _____ _____    ______ ____
ROOT
ATOM      1  C   UNL     1       3.277   3.363   4.199  0.00  0.00    +0.151 C 
ENDROOT
BRANCH   1   2
ATOM      2  C   UNL     1       3.503   4.810   4.555  0.00  0.00    +0.121 A 
ATOM      3  N   UNL     1       4.384   5.537   3.826  0.00  0.00    -0.310 N 
ATOM      4  H   UNL     1       4.854   5.114   3.090  0.00  0.00    +0.170 HD
ATOM      5  C   UNL     1       4.622   6.834   4.102  0.00  0.00    +0.260 A 
ATOM      6  O   UNL     1       5.415   7.479   3.440  0.00  0.00    -0.267 OA
ATOM      7  C   UNL     1       3.892   7.456   5.231  0.00  0.00    +0.076 A 
ATOM      8  C   UNL     1       3.962   8.764   5.710  0.00  0.00    -0.015 A 
ATOM      9  C   UNL     1       3.187   9.137   6.785  0.00  0.00    +0.106 A 
ATOM     10  S   UNL     1       2.310   7.633   7.176  0.00  0.00    -0.062 S 
ATOM     11  C   UNL     1       3.002   6.595   5.914  0.00  0.00    +0.116 A 
ATOM     12  N   UNL     1       2.840   5.328   5.553  0.00  0.00    -0.226 NA
ATOM     13  C   UNL     1       4.880   9.764   5.054  0.00  0.00    +0.046 C 
BRANCH   9  14
ATOM     14  C   UNL     1       3.107  10.401   7.423  0.00  0.00    +0.393 C 
ATOM     15  O   UNL     1       3.789  11.335   7.019  0.00  0.00    -0.240 OA
ATOM     16  O   UNL     1       2.356  10.559   8.378  0.00  0.00    -0.240 OA
ENDBRANCH   9  14
ENDBRANCH   1   2
BRANCH   1  17
ATOM     17  S   UNL     1       2.050   2.647   5.328  0.00  0.00    -0.083 S 
BRANCH  17  24
ATOM     18  C   UNL     1       0.731  -0.503   1.223  0.00  0.00    -0.016 C 
ATOM     19  C   UNL     1       0.201  -0.876   2.377  0.00  0.00    -0.001 C 
ATOM     20  C   UNL     1       1.100  -1.358   3.471  0.00  0.00    +0.134 C 
ATOM     21  C   UNL     1       2.532  -0.795   3.266  0.00  0.00    +0.185 C 
ATOM     22  S   UNL     1       2.494  -0.725   1.416  0.00  0.00    -0.102 S 
ATOM     23  N   UNL     1       2.607   0.567   3.785  0.00  0.00    -0.247 NA
ATOM     24  C   UNL     1       1.899   0.977   4.789  0.00  0.00    +0.160 C 
ATOM     25  N   UNL     1       1.028   0.131   5.445  0.00  0.00    -0.251 N 
ATOM     26  C   UNL     1       0.592  -0.955   4.823  0.00  0.00    +0.231 C 
ATOM     27  O   UNL     1      -0.223  -1.651   5.391  0.00  0.00    -0.274 OA
BRANCH  18  29
ATOM     28  C   UNL     1      -0.019   1.526   0.010  0.00  0.00    +0.009 C 
ATOM     29  C   UNL     1       0.002  -0.004   0.002  0.00  0.00    +0.038 C 
ENDBRANCH  18  29
BRANCH  25  30
ATOM     30  C   UNL     1       0.578   0.447   6.803  0.00  0.00    +0.112 C 
ATOM     31  C   UNL     1      -0.697   1.289   6.735  0.00  0.00    +0.025 C 
ENDBRANCH  25  30
ENDBRANCH  17  24
ENDBRANCH   1  17
TORSDOF 6
