REMARK  Name = ZINC12034275
REMARK  6 active torsions:
REMARK  status: ('A' for Active; 'I' for Inactive)
REMARK    1  A    between atoms: C_1  and  N_64
REMARK    2  A    between atoms: C_2  and  C_3
REMARK    3  A    between atoms: C_2  and  N_64
REMARK    4  A    between atoms: C_6  and  C_11
REMARK    5  A    between atoms: N_13  and  C_14
REMARK    6  A    between atoms: C_24  and  N_64
REMARK                            x       y       z     vdW  Elec       q    Type
REMARK                         _______ _______ _______ _____ _____    ______ ____
ROOT
ATOM      1  C   UNL     1      -2.428   9.958  -0.751  0.00  0.00    +0.003 A 
ATOM      2  C   UNL     1      -3.103   9.291  -1.722  0.00  0.00    +0.020 A 
ATOM      3  C   UNL     1      -3.009   7.903  -1.812  0.00  0.00    +0.020 A 
ATOM      4  C   UNL     1      -2.214   7.219  -0.894  0.00  0.00    +0.101 A 
ATOM      5  C   UNL     1      -1.532   7.960   0.105  0.00  0.00    +0.261 A 
ATOM      6  O   UNL     1      -0.835   7.386   0.923  0.00  0.00    -0.267 OA
ATOM      7  N   UNL     1      -1.654   9.301   0.145  0.00  0.00    -0.327 N 
ATOM      8  H   UNL     1      -1.183   9.803   0.828  0.00  0.00    +0.169 HD
ENDROOT
BRANCH   4   9
ATOM      9  C   UNL     1      -2.090   5.755  -0.956  0.00  0.00    +0.250 C 
ATOM     10  O   UNL     1      -2.597   5.140  -1.875  0.00  0.00    -0.270 OA
ATOM     11  N   UNL     1      -1.414   5.095   0.006  0.00  0.00    -0.306 N 
ATOM     12  H   UNL     1      -0.950   5.590   0.699  0.00  0.00    +0.150 HD
BRANCH  11  13
ATOM     13  C   UNL     1      -1.382   3.630   0.004  0.00  0.00    +0.036 C 
ATOM     14  C   UNL     1      -0.749   3.136  -1.298  0.00  0.00    +0.029 C 
ATOM     15  C   UNL     1      -0.715   1.606  -1.300  0.00  0.00    -0.008 C 
ATOM     16  C   UNL     1       0.113   1.113  -0.112  0.00  0.00    +0.007 C 
ATOM     17  C   UNL     1      -0.520   1.608   1.191  0.00  0.00    -0.008 C 
ATOM     18  C   UNL     1      -0.554   3.137   1.193  0.00  0.00    +0.029 C 
ATOM     19  C   UNL     1      -1.946   1.065   1.303  0.00  0.00    +0.007 C 
ATOM     20  C   UNL     1      -2.774   1.558   0.114  0.00  0.00    -0.008 C 
ATOM     21  C   UNL     1      -2.141   1.064  -1.188  0.00  0.00    +0.007 C 
ATOM     22  C   UNL     1      -2.808   3.088   0.116  0.00  0.00    +0.029 C 
ENDBRANCH  11  13
ENDBRANCH   4   9
BRANCH   1  23
ATOM     23  C   UNL     1      -2.543  11.459  -0.669  0.00  0.00    -0.025 C 
BRANCH  23  25
ATOM     24  C   UNL     1      -3.007  13.259   0.882  0.00  0.00    -0.095 C 
ATOM     25  N   UNL     1      -3.184  11.816   0.614  0.00  0.00    +0.383 N 
ATOM     26  H   UNL     1      -2.741  11.280   1.369  0.00  0.00    -0.081 HD
BRANCH  25  27
ATOM     27  C   UNL     1      -4.623  11.483   0.569  0.00  0.00    -0.068 C 
ATOM     28  C   UNL     1      -5.335  12.320  -0.496  0.00  0.00    -0.015 C 
ATOM     29  C   UNL     1      -6.821  11.958  -0.521  0.00  0.00    -0.002 C 
ATOM     30  C   UNL     1      -7.439  12.245   0.849  0.00  0.00    -0.000 C 
ATOM     31  C   UNL     1      -6.727  11.408   1.915  0.00  0.00    -0.002 C 
ATOM     32  C   UNL     1      -5.241  11.770   1.939  0.00  0.00    -0.015 C 
ENDBRANCH  25  27
ENDBRANCH  23  25
ENDBRANCH   1  23
TORSDOF 5
