REMARK  Name = ZINC10490781
REMARK  8 active torsions:
REMARK  status: ('A' for Active; 'I' for Inactive)
REMARK    1  A    between atoms: C_1  and  C_2
REMARK    2  A    between atoms: C_5  and  S_8
REMARK    3  A    between atoms: S_8  and  N_11
REMARK    4  A    between atoms: C_15  and  C_17
REMARK    5  A    between atoms: C_17  and  C_18
REMARK    6  A    between atoms: C_17  and  C_19
REMARK    7  A    between atoms: C_20  and  C_22
REMARK    8  A    between atoms: C_27  and  O_28
REMARK                            x       y       z     vdW  Elec       q    Type
REMARK                         _______ _______ _______ _____ _____    ______ ____
ROOT
ATOM      1  N   UNL     1      -3.053   7.877   0.498  0.00  0.00    -0.154 NA
ATOM      2  C   UNL     1      -4.200   7.132   1.043  0.00  0.00    +0.130 C 
ATOM      3  C   UNL     1      -3.585   6.077   1.979  0.00  0.00    +0.127 C 
ATOM      4  N   UNL     1      -2.244   5.830   1.415  0.00  0.00    -0.279 N 
ATOM      5  C   UNL     1      -1.849   7.069   0.732  0.00  0.00    +0.171 C 
ATOM      6  C   UNL     1      -1.527   4.692   1.504  0.00  0.00    +0.251 C 
ATOM      7  O   UNL     1      -0.394   4.652   1.064  0.00  0.00    -0.270 OA
ENDROOT
BRANCH   6   8
ATOM      8  C   UNL     1      -2.117   3.496   2.134  0.00  0.00    +0.078 A 
ATOM      9  C   UNL     1      -3.165   3.628   3.048  0.00  0.00    +0.017 A 
ATOM     10  C   UNL     1      -3.716   2.506   3.629  0.00  0.00    +0.001 A 
ATOM     11  C   UNL     1      -3.226   1.247   3.320  0.00  0.00    +0.004 A 
ATOM     12  C   UNL     1      -2.190   1.102   2.419  0.00  0.00    +0.046 A 
ATOM     13  C   UNL     1      -1.629   2.220   1.820  0.00  0.00    +0.129 A 
BRANCH  13  14
ATOM     14  O   UNL     1      -0.611   2.079   0.934  0.00  0.00    -0.506 OA
ATOM     15  H   UNL     1      -0.900   1.978   0.016  0.00  0.00    +0.292 HD
ENDBRANCH  13  14
ENDBRANCH   6   8
BRANCH   1  16
ATOM     16  S   UNL     1      -3.110   9.355  -0.245  0.00  0.00    +0.063 S 
ATOM     17  O   UNL     1      -4.219  10.048   0.312  0.00  0.00    -0.153 OA
ATOM     18  O   UNL     1      -1.790   9.878  -0.211  0.00  0.00    -0.153 OA
BRANCH  16  23
ATOM     19  C   UNL     1      -4.429   8.384  -6.053  0.00  0.00    +0.044 C 
ATOM     20  C   UNL     1      -4.100   8.627  -4.602  0.00  0.00    -0.050 A 
ATOM     21  C   UNL     1      -5.029   8.328  -3.623  0.00  0.00    +0.005 A 
ATOM     22  C   UNL     1      -4.727   8.551  -2.293  0.00  0.00    +0.029 A 
ATOM     23  C   UNL     1      -3.495   9.072  -1.941  0.00  0.00    +0.106 A 
ATOM     24  C   UNL     1      -2.568   9.375  -2.921  0.00  0.00    +0.029 A 
ATOM     25  C   UNL     1      -2.869   9.149  -4.251  0.00  0.00    +0.005 A 
ENDBRANCH  16  23
ENDBRANCH   1  16
BRANCH   5  26
ATOM     26  C   UNL     1      -1.189   6.732  -0.607  0.00  0.00    +0.020 C 
ATOM     27  C   UNL     1      -2.257   6.268  -1.599  0.00  0.00    +0.010 C 
ATOM     28  C   UNL     1      -0.487   7.976  -1.157  0.00  0.00    +0.010 C 
ENDBRANCH   5  26
TORSDOF 5
