REMARK  Name = ZINC39630589
REMARK  10 active torsions:
REMARK  status: ('A' for Active; 'I' for Inactive)
REMARK    1  A    between atoms: C_1  and  C_2
REMARK    2  A    between atoms: C_2  and  C_3
REMARK    3  A    between atoms: C_2  and  C_4
REMARK    4  A    between atoms: C_2  and  C_29
REMARK    5  A    between atoms: C_4  and  N_5
REMARK    6  A    between atoms: C_6  and  C_8
REMARK    7  A    between atoms: C_19  and  C_21
REMARK    8  A    between atoms: C_29  and  N_30
REMARK    9  A    between atoms: N_30  and  C_31
REMARK   10  A    between atoms: N_30  and  C_32
REMARK                            x       y       z     vdW  Elec       q    Type
REMARK                         _______ _______ _______ _____ _____    ______ ____
ROOT
ATOM      1  C   UNL     1      -5.553   0.270   2.136  0.00  0.00    +0.100 C 
ATOM      2  C   UNL     1      -5.249  -0.192   3.579  0.00  0.00    +0.121 C 
ATOM      3  N   UNL     1      -6.580  -0.466   4.172  0.00  0.00    -0.296 N 
ATOM      4  C   UNL     1      -7.347  -1.105   3.076  0.00  0.00    +0.115 C 
ATOM      5  C   UNL     1      -6.930  -0.332   1.810  0.00  0.00    -0.004 C 
ATOM      6  C   UNL     1      -6.822  -1.284   0.622  0.00  0.00    -0.010 C 
ATOM      7  C   UNL     1      -8.213  -1.824   0.279  0.00  0.00    -0.082 C 
ATOM      8  N   UNL     1      -9.109  -0.707  -0.043  0.00  0.00    +0.379 N 
ATOM      9  C   UNL     1      -9.280   0.153   1.134  0.00  0.00    -0.082 C 
ATOM     10  C   UNL     1      -7.934   0.777   1.513  0.00  0.00    -0.010 C 
ATOM     11  C   UNL     1      -6.998  -0.195   5.424  0.00  0.00    +0.249 C 
ATOM     12  O   UNL     1      -8.129  -0.483   5.763  0.00  0.00    -0.270 OA
ATOM     13  H   UNL     1      -8.713  -0.167  -0.797  0.00  0.00    -0.086 HD
ATOM     14  H   UNL     1     -10.007  -1.069  -0.327  0.00  0.00    -0.086 HD
ENDROOT
BRANCH  11  15
ATOM     15  C   UNL     1      -6.082   0.453   6.384  0.00  0.00    +0.073 A 
ATOM     16  C   UNL     1      -6.036   1.847   6.481  0.00  0.00    +0.054 A 
ATOM     17  C   UNL     1      -5.177   2.445   7.381  0.00  0.00    +0.021 A 
ATOM     18  C   UNL     1      -4.363   1.669   8.186  0.00  0.00    +0.003 A 
ATOM     19  C   UNL     1      -4.402   0.289   8.096  0.00  0.00    +0.021 A 
ATOM     20  C   UNL     1      -5.260  -0.324   7.205  0.00  0.00    +0.054 A 
ATOM     21 CL   UNL     1      -5.312  -2.056   7.099  0.00  0.00    -0.083 Cl
ATOM     22 CL   UNL     1      -7.057   2.823   5.471  0.00  0.00    -0.083 Cl
ENDBRANCH  11  15
BRANCH   1  24
ATOM     23  N   UNL     1      -4.270   0.382   0.024  0.00  0.00    -0.315 N 
ATOM     24  C   UNL     1      -4.510  -0.258   1.185  0.00  0.00    +0.218 C 
ATOM     25  O   UNL     1      -3.887  -1.260   1.465  0.00  0.00    -0.275 OA
ATOM     26  H   UNL     1      -4.768   1.184  -0.200  0.00  0.00    +0.149 HD
BRANCH  23  27
ATOM     27  C   UNL     1      -3.256  -0.132  -0.900  0.00  0.00    +0.108 C 
BRANCH  27  29
ATOM     28  C   UNL     1      -4.544   0.796  -2.829  0.00  0.00    +0.010 C 
ATOM     29  C   UNL     1      -3.183   0.773  -2.131  0.00  0.00    -0.034 C 
ATOM     30  C   UNL     1      -2.807   2.192  -1.700  0.00  0.00    +0.010 C 
BRANCH  29  31
ATOM     31  C   UNL     1      -2.124   0.236  -3.097  0.00  0.00    -0.072 C 
BRANCH  31  32
ATOM     32  N   UNL     1      -2.042   1.114  -4.272  0.00  0.00    +0.376 N 
ATOM     33  C   UNL     1      -1.122   2.224  -3.990  0.00  0.00    -0.097 C 
ATOM     34  C   UNL     1      -1.547   0.347  -5.422  0.00  0.00    -0.097 C 
ATOM     35  H   UNL     1      -2.958   1.482  -4.481  0.00  0.00    -0.083 HD
ENDBRANCH  31  32
ENDBRANCH  29  31
ENDBRANCH  27  29
ENDBRANCH  23  27
ENDBRANCH   1  24
TORSDOF 6
