REMARK  Name = ZINC01213486
REMARK  4 active torsions:
REMARK  status: ('A' for Active; 'I' for Inactive)
REMARK    1  A    between atoms: C_4  and  C_7
REMARK    2  A    between atoms: C_9  and  C_24
REMARK    3  A    between atoms: C_27  and  O_30
REMARK    4  A    between atoms: O_30  and  C_31
REMARK                            x       y       z     vdW  Elec       q    Type
REMARK                         _______ _______ _______ _____ _____    ______ ____
ROOT
ATOM      1  C   UNL     1       1.972   0.178  -2.173  0.00  0.00    +0.047 C 
ATOM      2  C   UNL     1       2.586   1.300  -1.726  0.00  0.00    +0.039 C 
ATOM      3  C   UNL     1       1.879   1.899  -0.530  0.00  0.00    +0.140 C 
ATOM      4  N   UNL     1       2.464   3.126   0.037  0.00  0.00    -0.288 N 
ATOM      5  C   UNL     1       3.573   3.645  -0.519  0.00  0.00    +0.306 C 
ATOM      6  O   UNL     1       4.040   4.657  -0.036  0.00  0.00    -0.252 OA
ATOM      7  N   UNL     1       4.189   3.106  -1.577  0.00  0.00    -0.254 N 
ATOM      8  C   UNL     1       3.748   1.957  -2.207  0.00  0.00    +0.134 C 
ATOM      9  N   UNL     1       4.521   1.629  -3.220  0.00  0.00    -0.230 NA
ATOM     10  C   UNL     1       4.414   0.566  -4.081  0.00  0.00    +0.087 A 
ATOM     11  C   UNL     1       5.436   0.567  -5.026  0.00  0.00    +0.030 A 
ATOM     12  C   UNL     1       5.492  -0.432  -5.983  0.00  0.00    +0.002 A 
ATOM     13  C   UNL     1       4.538  -1.431  -6.003  0.00  0.00    +0.002 A 
ATOM     14  C   UNL     1       3.515  -1.440  -5.065  0.00  0.00    +0.025 A 
ATOM     15  C   UNL     1       3.449  -0.449  -4.107  0.00  0.00    +0.057 A 
ATOM     16  N   UNL     1       2.344  -0.628  -3.247  0.00  0.00    -0.312 N 
ATOM     17  H   UNL     1       2.054   3.556   0.804  0.00  0.00    +0.151 HD
ATOM     18  H   UNL     1       4.985   3.542  -1.919  0.00  0.00    +0.158 HD
ATOM     19  H   UNL     1       1.782  -1.399  -3.423  0.00  0.00    +0.152 HD
ENDROOT
BRANCH   1  23
ATOM     20  C   UNL     1      -1.500  -1.026  -0.047  0.00  0.00    +0.000 A 
ATOM     21  C   UNL     1      -1.601  -0.649  -1.375  0.00  0.00    +0.001 A 
ATOM     22  C   UNL     1      -0.478  -0.257  -2.072  0.00  0.00    +0.010 A 
ATOM     23  C   UNL     1       0.765  -0.240  -1.434  0.00  0.00    -0.003 A 
ATOM     24  C   UNL     1       0.861  -0.628  -0.095  0.00  0.00    +0.010 A 
ATOM     25  C   UNL     1      -0.272  -1.012   0.591  0.00  0.00    +0.001 A 
ENDBRANCH   1  23
BRANCH   3  26
ATOM     26  C   UNL     1       0.459   2.204  -0.932  0.00  0.00    -0.022 A 
ATOM     27  C   UNL     1       0.189   2.690  -2.198  0.00  0.00    +0.009 A 
ATOM     28  C   UNL     1      -1.111   2.975  -2.567  0.00  0.00    +0.046 A 
ATOM     29  C   UNL     1      -2.148   2.762  -1.670  0.00  0.00    +0.127 A 
ATOM     30  C   UNL     1      -1.875   2.274  -0.401  0.00  0.00    +0.046 A 
ATOM     31  C   UNL     1      -0.572   1.996  -0.035  0.00  0.00    +0.009 A 
BRANCH  29  32
ATOM     32  O   UNL     1      -3.429   3.037  -2.033  0.00  0.00    -0.434 OA
BRANCH  32  33
ATOM     33  C   UNL     1      -3.635   3.537  -3.356  0.00  0.00    +0.541 C 
ATOM     34  F   UNL     1      -2.934   4.736  -3.516  0.00  0.00    -0.166 F 
ATOM     35  F   UNL     1      -3.174   2.599  -4.286  0.00  0.00    -0.166 F 
ENDBRANCH  32  33
ENDBRANCH  29  32
ENDBRANCH   3  26
TORSDOF 4
