REMARK  Name = ZINC19848901
REMARK  12 active torsions:
REMARK  status: ('A' for Active; 'I' for Inactive)
REMARK    1  A    between atoms: C_1  and  C_2
REMARK    2  A    between atoms: C_2  and  C_3
REMARK    3  A    between atoms: C_2  and  C_4
REMARK    4  A    between atoms: C_4  and  C_5
REMARK    5  A    between atoms: C_5  and  C_30
REMARK    6  A    between atoms: C_10  and  C_13
REMARK    7  A    between atoms: C_17  and  O_20
REMARK    8  A    between atoms: C_18  and  O_19
REMARK    9  A    between atoms: O_20  and  C_21
REMARK   10  A    between atoms: N_24  and  C_27
REMARK   11  A    between atoms: C_27  and  C_28
REMARK   12  A    between atoms: C_27  and  C_29
REMARK                            x       y       z     vdW  Elec       q    Type
REMARK                         _______ _______ _______ _____ _____    ______ ____
ROOT
ATOM      1  C   UNL     1      -1.784   4.224  -0.675  0.00  0.00    +0.048 C 
ATOM      2  C   UNL     1      -0.645   3.255  -0.888  0.00  0.00    +0.086 C 
ATOM      3  C   UNL     1      -1.184   2.083   0.018  0.00  0.00    +0.077 C 
ATOM      4  C   UNL     1      -2.574   1.944  -0.481  0.00  0.00    -0.023 C 
ATOM      5  N   UNL     1      -2.990   3.342  -0.828  0.00  0.00    +0.396 N 
ATOM      6  C   UNL     1      -0.014   1.208   0.009  0.00  0.00    +0.225 C 
ATOM      7  O   UNL     1       0.002  -0.004   0.002  0.00  0.00    -0.275 OA
ATOM      8  N   UNL     1       1.062   2.060   0.003  0.00  0.00    -0.239 N 
ATOM      9  C   UNL     1       0.711   3.348  -0.305  0.00  0.00    +0.225 C 
ATOM     10  O   UNL     1       1.371   4.351  -0.134  0.00  0.00    -0.275 OA
ATOM     11  H   UNL     1      -3.785   3.687  -0.150  0.00  0.00    -0.083 HD
ATOM     12  H   UNL     1      -3.349   3.389  -1.867  0.00  0.00    -0.083 HD
ENDROOT
BRANCH   4  13
ATOM     13  C   UNL     1      -2.606   1.066  -1.705  0.00  0.00    -0.015 A 
ATOM     14  C   UNL     1      -2.504   1.631  -2.963  0.00  0.00    +0.006 A 
ATOM     15  C   UNL     1      -2.527   0.828  -4.088  0.00  0.00    +0.004 A 
ATOM     16  C   UNL     1      -2.663  -0.543  -3.960  0.00  0.00    +0.049 A 
ATOM     17  C   UNL     1      -2.771  -1.114  -2.703  0.00  0.00    +0.161 A 
ATOM     18  C   UNL     1      -2.742  -0.306  -1.570  0.00  0.00    +0.160 A 
BRANCH  18  19
ATOM     19  O   UNL     1      -2.848  -0.862  -0.334  0.00  0.00    -0.503 OA
ATOM     20  H   UNL     1      -2.957  -1.951  -0.228  0.00  0.00    +0.292 HD
ENDBRANCH  18  19
BRANCH  17  21
ATOM     21  O   UNL     1      -2.905  -2.461  -2.576  0.00  0.00    -0.491 OA
ATOM     22  C   UNL     1      -2.927  -3.228  -3.782  0.00  0.00    +0.277 C 
ENDBRANCH  17  21
ENDBRANCH   4  13
BRANCH   8  23
ATOM     23  C   UNL     1       2.434   1.638   0.294  0.00  0.00    +0.078 C 
ATOM     24  C   UNL     1       2.500   1.054   1.706  0.00  0.00    +0.028 C 
ATOM     25  C   UNL     1       2.866   0.574  -0.718  0.00  0.00    +0.028 C 
ENDBRANCH   8  23
BRANCH   1  26
ATOM     26  C   UNL     1      -1.725   4.823   0.706  0.00  0.00    +0.346 C 
ATOM     27  O   UNL     1      -0.671   4.886   1.293  0.00  0.00    -0.248 OA
ATOM     28  O   UNL     1      -2.844   5.288   1.284  0.00  0.00    -0.248 OA
ENDBRANCH   1  26
BRANCH   1  29
ATOM     29  C   UNL     1      -1.772   5.320  -1.742  0.00  0.00    +0.002 C 
BRANCH  29  31
ATOM     30  C   UNL     1      -2.852   7.447  -2.487  0.00  0.00    +0.007 C 
ATOM     31  C   UNL     1      -2.936   6.282  -1.498  0.00  0.00    -0.018 C 
ATOM     32  C   UNL     1      -4.260   5.542  -1.693  0.00  0.00    +0.007 C 
ENDBRANCH  29  31
ENDBRANCH   1  29
TORSDOF 7
