REMARK  Name = ZINC12080433
REMARK  9 active torsions:
REMARK  status: ('A' for Active; 'I' for Inactive)
REMARK    1  A    between atoms: C_1  and  C_2
REMARK    2  A    between atoms: C_2  and  C_3
REMARK    3  A    between atoms: C_9  and  C_10
REMARK    4  A    between atoms: C_9  and  N_57
REMARK    5  A    between atoms: C_10  and  C_12
REMARK    6  A    between atoms: C_10  and  O_30
REMARK    7  A    between atoms: C_12  and  N_13
REMARK    8  A    between atoms: C_22  and  C_28
REMARK    9  A    between atoms: C_23  and  C_27
REMARK                            x       y       z     vdW  Elec       q    Type
REMARK                         _______ _______ _______ _____ _____    ______ ____
ROOT
ATOM      1  N   UNL     1      -0.166   0.843   0.432  0.00  0.00    -0.322 N 
ATOM      2  C   UNL     1       1.177   1.197   0.428  0.00  0.00    +0.068 A 
ATOM      3  C   UNL     1       1.834   2.418   0.343  0.00  0.00    +0.028 A 
ATOM      4  C   UNL     1       3.213   2.458   0.366  0.00  0.00    +0.002 A 
ATOM      5  C   UNL     1       3.945   1.287   0.473  0.00  0.00    +0.002 A 
ATOM      6  C   UNL     1       3.301   0.069   0.558  0.00  0.00    +0.028 A 
ATOM      7  C   UNL     1       1.915   0.018   0.536  0.00  0.00    +0.075 A 
ATOM      8  N   UNL     1       1.004  -1.036   0.604  0.00  0.00    -0.260 N 
ATOM      9  C   UNL     1      -0.251  -0.516   0.539  0.00  0.00    +0.140 A 
ATOM     10  C   UNL     1      -1.365  -1.366   0.587  0.00  0.00    +0.096 A 
ATOM     11  C   UNL     1      -1.169  -2.756   0.700  0.00  0.00    -0.024 A 
ATOM     12  C   UNL     1       0.103  -3.245   0.762  0.00  0.00    +0.075 A 
ATOM     13  C   UNL     1       1.191  -2.366   0.713  0.00  0.00    +0.258 A 
ATOM     14  O   UNL     1       2.326  -2.810   0.769  0.00  0.00    -0.267 OA
ATOM     15  C   UNL     1      -2.350  -3.691   0.753  0.00  0.00    +0.045 C 
ENDROOT
BRANCH  10  16
ATOM     16  C   UNL     1      -2.690  -0.826   0.519  0.00  0.00    +0.103 C 
ATOM     17  N   UNL     1      -3.740  -0.398   0.465  0.00  0.00    -0.191 NA
ENDBRANCH  10  16
BRANCH   1  18
ATOM     18  C   UNL     1      -1.298   1.768   0.332  0.00  0.00    +0.153 C 
BRANCH  18  19
ATOM     19  C   UNL     1      -1.725   2.205   1.734  0.00  0.00    +0.118 C 
BRANCH  19  20
ATOM     20  O   UNL     1      -2.113   1.059   2.493  0.00  0.00    -0.392 OA
ATOM     21  H   UNL     1      -2.852   0.565   2.111  0.00  0.00    +0.210 HD
ENDBRANCH  19  20
BRANCH  19  22
ATOM     22  C   UNL     1      -2.906   3.171   1.629  0.00  0.00    -0.045 C 
BRANCH  22  28
ATOM     23  C   UNL     1      -4.399   4.581   2.913  0.00  0.00    -0.069 C 
ATOM     24  C   UNL     1      -4.910   4.873   4.326  0.00  0.00    -0.015 C 
ATOM     25  C   UNL     1      -3.753   5.389   5.186  0.00  0.00    -0.003 C 
ATOM     26  C   UNL     1      -2.631   4.348   5.196  0.00  0.00    -0.019 C 
ATOM     27  C   UNL     1      -2.185   4.071   3.758  0.00  0.00    -0.078 C 
ATOM     28  N   UNL     1      -3.338   3.554   2.990  0.00  0.00    +0.383 N 
ATOM     29  H   UNL     1      -3.711   2.725   3.467  0.00  0.00    -0.081 HD
BRANCH  23  31
ATOM     30  C   UNL     1      -6.619   5.127   1.906  0.00  0.00    +0.002 C 
ATOM     31  C   UNL     1      -5.547   4.045   2.056  0.00  0.00    -0.019 C 
ENDBRANCH  23  31
ENDBRANCH  22  28
ENDBRANCH  19  22
ENDBRANCH  18  19
ENDBRANCH   1  18
TORSDOF 7
