REMARK  Name = ZINC09042017
REMARK  14 active torsions:
REMARK  status: ('A' for Active; 'I' for Inactive)
REMARK    1  A    between atoms: C_1  and  C_2
REMARK    2  A    between atoms: C_7  and  O_8
REMARK    3  A    between atoms: O_8  and  C_9
REMARK    4  A    between atoms: C_9  and  C_10
REMARK    5  A    between atoms: C_10  and  O_11
REMARK    6  A    between atoms: O_11  and  C_12
REMARK    7  A    between atoms: C_15  and  C_18
REMARK    8  A    between atoms: C_21  and  C_22
REMARK    9  A    between atoms: C_21  and  O_27
REMARK   10  A    between atoms: N_32  and  C_33
REMARK   11  A    between atoms: C_33  and  C_34
REMARK   12  A    between atoms: C_34  and  N_66
REMARK   13  A    between atoms: C_35  and  N_66
REMARK   14  A    between atoms: C_36  and  N_66
REMARK                            x       y       z     vdW  Elec       q    Type
REMARK                         _______ _______ _______ _____ _____    ______ ____
ROOT
ATOM      1  C   UNL     1       1.782   7.394   0.102  0.00  0.00    +0.144 C 
ATOM      2  C   UNL     1       1.601   7.950   1.496  0.00  0.00    +0.074 C 
ATOM      3  C   UNL     1       2.486   7.839   2.559  0.00  0.00    +0.168 C 
ATOM      4  C   UNL     1       0.361   8.600   1.498  0.00  0.00    +0.249 C 
ATOM      5  O   UNL     1      -0.141   9.176   2.447  0.00  0.00    -0.282 OA
ATOM      6  C   UNL     1      -0.238   8.466   0.144  0.00  0.00    +0.288 C 
ATOM      7  O   UNL     1      -1.314   8.919  -0.189  0.00  0.00    -0.266 OA
ATOM      8  N   UNL     1       0.586   7.770  -0.657  0.00  0.00    -0.285 N 
ENDROOT
BRANCH   1  12
ATOM      9  C   UNL     1       2.141   3.139   0.259  0.00  0.00    +0.121 A 
ATOM     10  C   UNL     1       0.893   3.735   0.368  0.00  0.00    +0.046 A 
ATOM     11  C   UNL     1       0.780   5.111   0.322  0.00  0.00    +0.009 A 
ATOM     12  C   UNL     1       1.909   5.894   0.158  0.00  0.00    -0.022 A 
ATOM     13  C   UNL     1       3.153   5.302   0.043  0.00  0.00    +0.009 A 
ATOM     14  C   UNL     1       3.272   3.926   0.093  0.00  0.00    +0.046 A 
BRANCH   9  15
ATOM     15  O   UNL     1       2.256   1.786   0.309  0.00  0.00    -0.489 OA
BRANCH  15  16
ATOM     16  C   UNL     1       1.050   1.039   0.481  0.00  0.00    +0.270 C 
BRANCH  16  17
ATOM     17  C   UNL     1       1.376  -0.456   0.513  0.00  0.00    +0.270 C 
BRANCH  17  18
ATOM     18  O   UNL     1       2.168  -0.746   1.667  0.00  0.00    -0.488 OA
BRANCH  18  25
ATOM     19  C   UNL     1       3.745  -1.338   3.934  0.00  0.00    +0.047 C 
ATOM     20  C   UNL     1       3.322  -2.390   2.942  0.00  0.00    -0.009 A 
ATOM     21  C   UNL     1       3.701  -3.706   3.124  0.00  0.00    +0.007 A 
ATOM     22  C   UNL     1       3.317  -4.670   2.211  0.00  0.00    +0.000 A 
ATOM     23  C   UNL     1       2.549  -4.322   1.115  0.00  0.00    +0.004 A 
ATOM     24  C   UNL     1       2.163  -3.008   0.931  0.00  0.00    +0.046 A 
ATOM     25  C   UNL     1       2.547  -2.038   1.846  0.00  0.00    +0.124 A 
ENDBRANCH  18  25
ENDBRANCH  17  18
ENDBRANCH  16  17
ENDBRANCH  15  16
ENDBRANCH   9  15
ENDBRANCH   1  12
BRANCH   3  26
ATOM     26  C   UNL     1       2.220   8.514   3.775  0.00  0.00    +0.169 A 
ATOM     27  C   UNL     1       2.282   7.966   5.042  0.00  0.00    +0.053 A 
ATOM     28  C   UNL     1       1.944   8.990   5.936  0.00  0.00    +0.042 A 
ATOM     29  C   UNL     1       1.696  10.098   5.201  0.00  0.00    +0.196 A 
ATOM     30  O   UNL     1       1.868   9.811   3.905  0.00  0.00    -0.460 OA
ENDBRANCH   3  26
BRANCH   3  31
ATOM     31  O   UNL     1       3.601   7.085   2.434  0.00  0.00    -0.503 OA
ATOM     32  H   UNL     1       4.121   7.115   3.287  0.00  0.00    +0.292 HD
ENDBRANCH   3  31
BRANCH   8  33
ATOM     33  C   UNL     1       0.330   7.440  -2.062  0.00  0.00    +0.090 C 
BRANCH  33  34
ATOM     34  C   UNL     1      -0.401   6.099  -2.146  0.00  0.00    -0.060 C 
BRANCH  34  37
ATOM     35  C   UNL     1       0.600   5.527  -4.276  0.00  0.00    -0.097 C 
ATOM     36  C   UNL     1      -1.559   4.614  -3.669  0.00  0.00    -0.097 C 
ATOM     37  N   UNL     1      -0.670   5.791  -3.567  0.00  0.00    +0.377 N 
ATOM     38  H   UNL     1      -1.133   6.598  -4.001  0.00  0.00    -0.083 HD
ENDBRANCH  34  37
ENDBRANCH  33  34
ENDBRANCH   8  33
TORSDOF 11
