REMARK  Name = ZINC13843147
REMARK  10 active torsions:
REMARK  status: ('A' for Active; 'I' for Inactive)
REMARK    1  A    between atoms: C_1  and  C_2
REMARK    2  A    between atoms: C_5  and  C_8
REMARK    3  A    between atoms: N_10  and  C_11
REMARK    4  A    between atoms: C_11  and  N_13
REMARK    5  A    between atoms: N_13  and  C_14
REMARK    6  A    between atoms: C_15  and  C_28
REMARK    7  A    between atoms: C_20  and  C_24
REMARK    8  A    between atoms: C_24  and  C_25
REMARK    9  A    between atoms: C_24  and  C_26
REMARK   10  A    between atoms: C_24  and  C_27
REMARK                            x       y       z     vdW  Elec       q    Type
REMARK                         _______ _______ _______ _____ _____    ______ ____
ROOT
ATOM      1  C   UNL     1       1.211  -0.680  -0.013  0.00  0.00    +0.084 A 
ATOM      2  C   UNL     1       1.433  -2.051  -0.023  0.00  0.00    +0.068 A 
ATOM      3  C   UNL     1       2.812  -2.507  -0.039  0.00  0.00    -0.023 A 
ATOM      4  C   UNL     1       3.743  -1.528  -0.043  0.00  0.00    -0.004 A 
ATOM      5  S   UNL     1       2.813  -0.021  -0.033  0.00  0.00    -0.077 S 
ATOM      6  C   UNL     1       5.231  -1.696  -0.058  0.00  0.00    +0.046 C 
ATOM      7  C   UNL     1       5.557  -3.151   0.309  0.00  0.00    -0.000 C 
ATOM      8  C   UNL     1       4.670  -4.081  -0.524  0.00  0.00    +0.009 C 
ATOM      9  C   UNL     1       3.219  -3.976  -0.052  0.00  0.00    +0.037 C 
ENDROOT
BRANCH   2  10
ATOM     10  C   UNL     1       0.318  -3.001  -0.016  0.00  0.00    +0.244 C 
ATOM     11  O   UNL     1      -0.156  -3.391  -1.067  0.00  0.00    -0.270 OA
ATOM     12  N   UNL     1      -0.184  -3.444   1.154  0.00  0.00    -0.325 N 
ATOM     13  H   UNL     1       0.194  -3.134   1.992  0.00  0.00    +0.145 HD
ATOM     14  H   UNL     1      -0.922  -4.074   1.158  0.00  0.00    +0.145 HD
ENDBRANCH   2  10
BRANCH   7  15
ATOM     15  C   UNL     1       7.029  -3.438   0.005  0.00  0.00    -0.035 C 
ATOM     16  C   UNL     1       7.299  -3.201  -1.482  0.00  0.00    +0.011 C 
ATOM     17  C   UNL     1       7.913  -2.508   0.839  0.00  0.00    +0.011 C 
ATOM     18  C   UNL     1       7.347  -4.894   0.355  0.00  0.00    +0.011 C 
ENDBRANCH   7  15
BRANCH   1  19
ATOM     19  N   UNL     1       0.002  -0.004   0.002  0.00  0.00    -0.291 N 
ATOM     20  H   UNL     1      -0.831  -0.500   0.007  0.00  0.00    +0.154 HD
BRANCH  19  21
ATOM     21  C   UNL     1      -0.016   1.344   0.009  0.00  0.00    +0.141 C 
ATOM     22  S   UNL     1       1.455   2.220   0.000  0.00  0.00    -0.018 S 
BRANCH  21  25
ATOM     23  C   UNL     1      -1.211   3.349   0.026  0.00  0.00    +0.250 C 
ATOM     24  O   UNL     1      -0.167   3.971   0.024  0.00  0.00    -0.270 OA
ATOM     25  N   UNL     1      -1.192   2.002   0.019  0.00  0.00    -0.264 N 
ATOM     26  H   UNL     1      -2.026   1.505   0.020  0.00  0.00    +0.157 HD
BRANCH  23  31
ATOM     27  C   UNL     1      -6.232   6.158   0.064  0.00  0.00    +0.044 C 
ATOM     28  C   UNL     1      -4.917   5.422   0.054  0.00  0.00    -0.050 A 
ATOM     29  C   UNL     1      -3.730   6.134   0.053  0.00  0.00    +0.004 A 
ATOM     30  C   UNL     1      -2.523   5.466   0.044  0.00  0.00    +0.013 A 
ATOM     31  C   UNL     1      -2.500   4.071   0.036  0.00  0.00    +0.037 A 
ATOM     32  C   UNL     1      -3.702   3.359   0.032  0.00  0.00    +0.013 A 
ATOM     33  C   UNL     1      -4.902   4.039   0.047  0.00  0.00    +0.004 A 
ENDBRANCH  23  31
ENDBRANCH  21  25
ENDBRANCH  19  21
ENDBRANCH   1  19
TORSDOF 6
