REMARK  Name = ZINC51633277
REMARK  5 active torsions:
REMARK  status: ('A' for Active; 'I' for Inactive)
REMARK    1  A    between atoms: C_10  and  N_12
REMARK    2  A    between atoms: N_12  and  S_13
REMARK    3  A    between atoms: S_13  and  C_16
REMARK    4  A    between atoms: C_19  and  C_21
REMARK    5  A    between atoms: C_21  and  N_22
REMARK                            x       y       z     vdW  Elec       q    Type
REMARK                         _______ _______ _______ _____ _____    ______ ____
ROOT
ATOM      1  S   UNL     1       6.275   0.041   0.547  0.00  0.00    +0.065 S 
ATOM      2  O   UNL     1       6.909   0.690   1.641  0.00  0.00    -0.153 OA
ATOM      3  O   UNL     1       6.611  -1.281   0.148  0.00  0.00    -0.153 OA
ENDROOT
BRANCH   1   4
ATOM      4  C   UNL     1       6.520   1.071  -0.861  0.00  0.00    +0.143 A 
ATOM      5  C   UNL     1       6.844   2.386  -0.911  0.00  0.00    +0.036 A 
ATOM      6  C   UNL     1       6.987   2.995  -2.143  0.00  0.00    +0.011 A 
ATOM      7  C   UNL     1       6.800   2.259  -3.266  0.00  0.00    -0.026 A 
ATOM      8  S   UNL     1       6.414   0.651  -2.593  0.00  0.00    -0.075 S 
BRANCH   7   9
ATOM      9  C   UNL     1       6.897   2.685  -4.708  0.00  0.00    -0.043 C 
BRANCH   9  10
ATOM     10  N   UNL     1       8.273   2.493  -5.184  0.00  0.00    +0.381 N 
ATOM     11  H   UNL     1       8.903   3.049  -4.625  0.00  0.00    -0.090 HD
ATOM     12  H   UNL     1       8.524   1.518  -5.104  0.00  0.00    -0.090 HD
ATOM     13  H   UNL     1       8.339   2.778  -6.149  0.00  0.00    -0.090 HD
ENDBRANCH   9  10
ENDBRANCH   7   9
ENDBRANCH   1   4
BRANCH   1  14
ATOM     14  N   UNL     1       4.651   0.038   0.875  0.00  0.00    -0.182 NA
ATOM     15  H   UNL     1       4.324   0.418   1.705  0.00  0.00    +0.149 HD
BRANCH  14  25
ATOM     16  C   UNL     1       0.185   1.883  -0.113  0.00  0.00    +0.000 A 
ATOM     17  C   UNL     1       1.440   2.461  -0.059  0.00  0.00    +0.000 A 
ATOM     18  C   UNL     1       2.563   1.659  -0.050  0.00  0.00    +0.005 A 
ATOM     19  C   UNL     1       2.443   0.276  -0.093  0.00  0.00    -0.026 A 
ATOM     20  C   UNL     1       1.193  -0.299  -0.142  0.00  0.00    -0.043 A 
ATOM     21  C   UNL     1       0.064   0.510  -0.155  0.00  0.00    +0.004 A 
ATOM     22  C   UNL     1       0.988  -1.791  -0.175  0.00  0.00    +0.035 C 
ATOM     23  C   UNL     1       2.276  -2.502  -0.586  0.00  0.00    +0.007 C 
ATOM     24  C   UNL     1       3.417  -1.986   0.299  0.00  0.00    +0.025 C 
ATOM     25  C   UNL     1       3.711  -0.538  -0.088  0.00  0.00    +0.107 C 
ENDBRANCH  14  25
ENDBRANCH   1  14
TORSDOF 5
