REMARK  Name = ZINC58950688
REMARK  12 active torsions:
REMARK  status: ('A' for Active; 'I' for Inactive)
REMARK    1  A    between atoms: C_1  and  C_2
REMARK    2  A    between atoms: C_2  and  N_3
REMARK    3  A    between atoms: N_3  and  C_4
REMARK    4  A    between atoms: N_3  and  C_6
REMARK    5  A    between atoms: C_4  and  C_5
REMARK    6  A    between atoms: C_9  and  C_12
REMARK    7  A    between atoms: C_15  and  C_29
REMARK    8  A    between atoms: C_21  and  N_28
REMARK    9  A    between atoms: C_22  and  C_23
REMARK   10  A    between atoms: C_23  and  O_25
REMARK   11  A    between atoms: O_25  and  C_26
REMARK   12  A    between atoms: C_26  and  C_27
REMARK                            x       y       z     vdW  Elec       q    Type
REMARK                         _______ _______ _______ _____ _____    ______ ____
ROOT
ATOM      1  C   UNL     1       1.148  -6.279   0.901  0.00  0.00    +0.098 C 
ATOM      2  C   UNL     1       1.985  -6.637  -0.301  0.00  0.00    +0.048 A 
ATOM      3  C   UNL     1       1.641  -6.692  -1.597  0.00  0.00    +0.041 A 
ATOM      4  N   UNL     1       2.739  -7.060  -2.297  0.00  0.00    -0.278 N 
ATOM      5  N   UNL     1       3.796  -7.237  -1.389  0.00  0.00    -0.135 NA
ATOM      6  H   UNL     1       2.787  -7.181  -3.258  0.00  0.00    +0.189 HD
ATOM      7  C   UNL     1       3.349  -6.986  -0.193  0.00  0.00    +0.245 A 
ATOM      8  O   UNL     1       3.992  -7.024   1.005  0.00  0.00    -0.422 OA
ATOM      9  C   UNL     1       3.234  -6.984   2.117  0.00  0.00    +0.197 C 
ATOM     10  C   UNL     1       1.922  -6.653   2.140  0.00  0.00    +0.105 C 
ATOM     11  C   UNL     1       0.278  -6.398  -2.169  0.00  0.00    +0.065 C 
ENDROOT
BRANCH   1  15
ATOM     12  C   UNL     1       0.353  -2.082   0.910  0.00  0.00    +0.013 A 
ATOM     13  C   UNL     1      -0.694  -2.984   0.876  0.00  0.00    +0.022 A 
ATOM     14  C   UNL     1      -0.437  -4.342   0.873  0.00  0.00    +0.006 A 
ATOM     15  C   UNL     1       0.868  -4.799   0.903  0.00  0.00    -0.035 A 
ATOM     16  C   UNL     1       1.915  -3.897   0.937  0.00  0.00    +0.006 A 
ATOM     17  C   UNL     1       1.657  -2.539   0.936  0.00  0.00    +0.022 A 
BRANCH  12  18
ATOM     18  N   UNL     1       0.092  -0.709   0.913  0.00  0.00    -0.394 NA
ATOM     19  H   UNL     1       0.964  -0.201   0.935  0.00  0.00    +0.126 HD
BRANCH  18  21
ATOM     20  C   UNL     1      -0.829   1.170  -0.359  0.00  0.00    +0.022 C 
ATOM     21  C   UNL     1      -0.653  -0.349  -0.301  0.00  0.00    +0.081 C 
ENDBRANCH  18  21
BRANCH  18  22
ATOM     22  C   UNL     1      -0.705  -0.364   2.098  0.00  0.00    +0.081 C 
ATOM     23  C   UNL     1       0.119  -0.623   3.360  0.00  0.00    +0.022 C 
ENDBRANCH  18  22
ENDBRANCH  12  18
ENDBRANCH   1  15
BRANCH   9  24
ATOM     24  N   UNL     1       3.832  -7.300   3.308  0.00  0.00    -0.329 N 
ATOM     25  H   UNL     1       4.747  -7.623   3.320  0.00  0.00    +0.145 HD
ATOM     26  H   UNL     1       3.341  -7.201   4.138  0.00  0.00    +0.145 HD
ENDBRANCH   9  24
BRANCH  10  27
ATOM     27  C   UNL     1       1.251  -6.657   3.372  0.00  0.00    +0.341 C 
ATOM     28  O   UNL     1       0.538  -7.597   3.675  0.00  0.00    -0.245 OA
BRANCH  27  29
ATOM     29  O   UNL     1       1.396  -5.617   4.223  0.00  0.00    -0.462 OA
BRANCH  29  30
ATOM     30  C   UNL     1       0.683  -5.688   5.460  0.00  0.00    +0.229 C 
ATOM     31  C   UNL     1       0.969  -4.431   6.285  0.00  0.00    +0.048 C 
ENDBRANCH  29  30
ENDBRANCH  27  29
ENDBRANCH  10  27
TORSDOF 8
