REMARK  Name = ZINC20190919
REMARK  14 active torsions:
REMARK  status: ('A' for Active; 'I' for Inactive)
REMARK    1  A    between atoms: C_1  and  C_2
REMARK    2  A    between atoms: C_2  and  S_3
REMARK    3  A    between atoms: S_3  and  C_4
REMARK    4  A    between atoms: C_4  and  C_5
REMARK    5  A    between atoms: C_5  and  O_6
REMARK    6  A    between atoms: O_6  and  C_7
REMARK    7  A    between atoms: C_7  and  C_9
REMARK    8  A    between atoms: C_10  and  C_40
REMARK    9  A    between atoms: C_14  and  C_16
REMARK   10  A    between atoms: C_22  and  C_27
REMARK   11  A    between atoms: C_30  and  C_36
REMARK   12  A    between atoms: C_32  and  C_35
REMARK   13  A    between atoms: C_36  and  O_38
REMARK   14  A    between atoms: O_38  and  C_39
REMARK                            x       y       z     vdW  Elec       q    Type
REMARK                         _______ _______ _______ _____ _____    ______ ____
ROOT
ATOM      1  C   UNL     1       3.345   5.954   1.210  0.00  0.00    +0.065 C 
ATOM      2  C   UNL     1       4.627   6.358   1.201  0.00  0.00    +0.016 C 
ATOM      3  N   UNL     1       5.295   6.518   0.019  0.00  0.00    -0.321 N 
ATOM      4  C   UNL     1       4.608   6.667  -1.155  0.00  0.00    +0.016 C 
ATOM      5  C   UNL     1       3.320   6.271  -1.250  0.00  0.00    +0.025 C 
ATOM      6  C   UNL     1       2.613   5.660  -0.067  0.00  0.00    +0.099 C 
ATOM      7  C   UNL     1       2.604   6.415  -2.451  0.00  0.00    +0.176 C 
ATOM      8  O   UNL     1       1.442   6.062  -2.499  0.00  0.00    -0.291 OA
ATOM      9  C   UNL     1       3.249   6.999  -3.678  0.00  0.00    +0.171 C 
ATOM     10  C   UNL     1       4.754   6.711  -3.634  0.00  0.00    +0.013 C 
ATOM     11  C   UNL     1       5.320   7.285  -2.333  0.00  0.00    +0.055 C 
ATOM     12  C   UNL     1       5.439   7.371  -4.832  0.00  0.00    +0.009 C 
ATOM     13  C   UNL     1       5.333   6.635   2.504  0.00  0.00    +0.061 C 
ATOM     14  H   UNL     1       6.395   6.529   0.006  0.00  0.00    +0.152 HD
ENDROOT
BRANCH   6  15
ATOM     15  C   UNL     1       2.530   4.168  -0.257  0.00  0.00    +0.047 A 
ATOM     16  C   UNL     1       3.654   3.433  -0.348  0.00  0.00    +0.204 A 
ATOM     17  O   UNL     1       3.642   2.107  -0.518  0.00  0.00    -0.462 OA
ATOM     18  C   UNL     1       2.497   1.400  -0.611  0.00  0.00    +0.138 A 
ATOM     19  C   UNL     1       2.519   0.022  -0.787  0.00  0.00    +0.047 A 
ATOM     20  C   UNL     1       1.335  -0.678  -0.880  0.00  0.00    +0.007 A 
ATOM     21  C   UNL     1       0.116  -0.021  -0.799  0.00  0.00    -0.050 A 
ATOM     22  C   UNL     1       0.072   1.344  -0.624  0.00  0.00    +0.018 A 
ATOM     23  C   UNL     1       1.262   2.063  -0.529  0.00  0.00    +0.064 A 
ATOM     24  C   UNL     1       1.265   3.527  -0.342  0.00  0.00    +0.197 A 
ATOM     25  O   UNL     1       0.226   4.160  -0.263  0.00  0.00    -0.287 OA
ATOM     26  C   UNL     1      -1.167  -0.806  -0.903  0.00  0.00    +0.044 C 
ENDBRANCH   6  15
BRANCH   1  27
ATOM     27  C   UNL     1       2.674   5.803   2.445  0.00  0.00    +0.338 C 
ATOM     28  O   UNL     1       1.844   6.623   2.791  0.00  0.00    -0.245 OA
BRANCH  27  29
ATOM     29  O   UNL     1       2.953   4.749   3.240  0.00  0.00    -0.460 OA
BRANCH  29  30
ATOM     30  C   UNL     1       2.237   4.659   4.474  0.00  0.00    +0.243 C 
BRANCH  30  31
ATOM     31  C   UNL     1       2.685   3.408   5.233  0.00  0.00    +0.110 C 
BRANCH  31  32
ATOM     32  S   UNL     1       1.776   3.294   6.799  0.00  0.00    -0.158 S 
BRANCH  32  34
ATOM     33  C   UNL     1       1.722   1.561   8.915  0.00  0.00    +0.015 C 
ATOM     34  C   UNL     1       2.414   1.780   7.568  0.00  0.00    +0.066 C 
ENDBRANCH  32  34
ENDBRANCH  31  32
ENDBRANCH  30  31
ENDBRANCH  29  30
ENDBRANCH  27  29
ENDBRANCH   1  27
BRANCH   9  35
ATOM     35  C   UNL     1       2.652   6.370  -4.910  0.00  0.00    +0.318 C 
ATOM     36  O   UNL     1       3.356   5.762  -5.681  0.00  0.00    -0.250 OA
BRANCH  35  37
ATOM     37  O   UNL     1       1.336   6.485  -5.152  0.00  0.00    -0.467 OA
ATOM     38  C   UNL     1       0.830   5.854  -6.357  0.00  0.00    +0.280 C 
ENDBRANCH  35  37
ENDBRANCH   9  35
TORSDOF 9
