REMARK  Name = ZINC08878692
REMARK  10 active torsions:
REMARK  status: ('A' for Active; 'I' for Inactive)
REMARK    1  A    between atoms: C_1  and  C_2
REMARK    2  A    between atoms: C_6  and  O_32
REMARK    3  A    between atoms: C_7  and  O_31
REMARK    4  A    between atoms: C_12  and  C_13
REMARK    5  A    between atoms: C_13  and  C_14
REMARK    6  A    between atoms: N_16  and  C_17
REMARK    7  A    between atoms: C_17  and  C_18
REMARK    8  A    between atoms: C_18  and  C_19
REMARK    9  A    between atoms: C_26  and  O_29
REMARK   10  A    between atoms: O_29  and  C_30
REMARK                            x       y       z     vdW  Elec       q    Type
REMARK                         _______ _______ _______ _____ _____    ______ ____
ROOT
ATOM      1  C   UNL     1       7.492   1.529  -2.655  0.00  0.00    +0.218 C 
ATOM      2  O   UNL     1       6.870   1.542  -3.696  0.00  0.00    -0.275 OA
ATOM      3  N   UNL     1       6.853   1.732  -1.486  0.00  0.00    -0.315 N 
ATOM      4  H   UNL     1       7.351   1.722  -0.653  0.00  0.00    +0.149 HD
ENDROOT
BRANCH   1   5
ATOM      5  C   UNL     1       8.979   1.286  -2.669  0.00  0.00    +0.138 C 
BRANCH   5  17
ATOM      6  C   UNL     1       9.041  -1.357  -3.831  0.00  0.00    +0.045 C 
ATOM      7  C   UNL     1       9.470  -0.154  -4.632  0.00  0.00    -0.029 A 
ATOM      8  C   UNL     1       9.923  -0.296  -6.018  0.00  0.00    +0.025 A 
ATOM      9  C   UNL     1       9.969  -1.551  -6.636  0.00  0.00    +0.015 A 
ATOM     10  C   UNL     1      10.400  -1.658  -7.927  0.00  0.00    +0.050 A 
ATOM     11  C   UNL     1      10.795  -0.527  -8.635  0.00  0.00    +0.162 A 
ATOM     12  C   UNL     1      10.756   0.727  -8.040  0.00  0.00    +0.202 A 
ATOM     13  C   UNL     1      10.320   0.853  -6.726  0.00  0.00    +0.184 A 
ATOM     14  O   UNL     1      10.274   2.062  -6.125  0.00  0.00    -0.418 OA
ATOM     15  C   UNL     1       9.856   2.199  -4.858  0.00  0.00    +0.341 A 
ATOM     16  O   UNL     1       9.831   3.310  -4.357  0.00  0.00    -0.245 OA
ATOM     17  C   UNL     1       9.443   1.091  -4.090  0.00  0.00    +0.049 A 
BRANCH  12  18
ATOM     18  O   UNL     1      11.143   1.828  -8.739  0.00  0.00    -0.501 OA
ATOM     19  H   UNL     1      12.084   2.037  -8.656  0.00  0.00    +0.292 HD
ENDBRANCH  12  18
BRANCH  11  20
ATOM     20  O   UNL     1      11.221  -0.650  -9.919  0.00  0.00    -0.503 OA
ATOM     21  H   UNL     1      12.173  -0.796 -10.006  0.00  0.00    +0.292 HD
ENDBRANCH  11  20
ENDBRANCH   5  17
ENDBRANCH   1   5
BRANCH   3  22
ATOM     22  C   UNL     1       5.407   1.968  -1.472  0.00  0.00    +0.109 C 
BRANCH  22  23
ATOM     23  C   UNL     1       4.937   2.167  -0.030  0.00  0.00    +0.056 C 
BRANCH  23  24
ATOM     24  C   UNL     1       3.449   2.410  -0.016  0.00  0.00    -0.021 A 
ATOM     25  C   UNL     1       2.836   3.603  -0.004  0.00  0.00    +0.087 A 
ATOM     26  N   UNL     1       1.479   3.430   0.007  0.00  0.00    -0.360 N 
ATOM     27  H   UNL     1       0.825   4.147   0.017  0.00  0.00    +0.165 HD
ATOM     28  C   UNL     1       1.178   2.084   0.002  0.00  0.00    +0.047 A 
ATOM     29  C   UNL     1       2.400   1.388  -0.013  0.00  0.00    +0.006 A 
ATOM     30  C   UNL     1       2.407  -0.009  -0.021  0.00  0.00    +0.056 A 
ATOM     31  C   UNL     1       1.210  -0.697  -0.013  0.00  0.00    +0.121 A 
ATOM     32  C   UNL     1       0.002  -0.004   0.002  0.00  0.00    +0.047 A 
ATOM     33  C   UNL     1      -0.017   1.373   0.010  0.00  0.00    +0.030 A 
BRANCH  31  34
ATOM     34  O   UNL     1       1.210  -2.057  -0.021  0.00  0.00    -0.495 OA
ATOM     35  C   UNL     1      -0.063  -2.706  -0.012  0.00  0.00    +0.277 C 
ENDBRANCH  31  34
ENDBRANCH  23  24
ENDBRANCH  22  23
ENDBRANCH   3  22
TORSDOF 8
