REMARK  Name = ZINC64858484
REMARK  3 active torsions:
REMARK  status: ('A' for Active; 'I' for Inactive)
REMARK    1  A    between atoms: C_1  and  C_2
REMARK    2  A    between atoms: C_2  and  C_3
REMARK    3  A    between atoms: C_2  and  C_4
REMARK                            x       y       z     vdW  Elec       q    Type
REMARK                         _______ _______ _______ _____ _____    ______ ____
ROOT
ATOM      1  C   UNL     1      -1.384  -0.584   0.118  0.00  0.00    +0.218 C 
ATOM      2  O   UNL     1      -1.690  -1.232   1.097  0.00  0.00    -0.275 OA
ATOM      3  N   UNL     1      -2.284  -0.381  -0.864  0.00  0.00    -0.301 N 
ATOM      4  C   UNL     1      -1.896   0.303  -2.105  0.00  0.00    +0.110 C 
ATOM      5  C   UNL     1      -2.855   1.474  -2.342  0.00  0.00    +0.051 C 
ATOM      6  C   UNL     1      -4.295   0.963  -2.325  0.00  0.00    +0.075 C 
ATOM      7  C   UNL     1      -4.612   0.343  -0.965  0.00  0.00    +0.051 C 
ATOM      8  C   UNL     1      -3.670  -0.846  -0.717  0.00  0.00    +0.110 C 
ATOM      9  C   UNL     1      -5.245   2.102  -2.600  0.00  0.00    +0.047 A 
ATOM     10  C   UNL     1      -5.761   3.003  -1.757  0.00  0.00    +0.025 A 
ATOM     11  C   UNL     1      -6.576   3.871  -2.516  0.00  0.00    +0.020 A 
ATOM     12  C   UNL     1      -6.529   3.455  -3.801  0.00  0.00    +0.092 A 
ATOM     13  N   UNL     1      -5.729   2.364  -3.863  0.00  0.00    -0.316 N 
ATOM     14  C   UNL     1      -5.394   1.550  -4.956  0.00  0.00    +0.069 A 
ATOM     15  C   UNL     1      -5.704   1.913  -6.252  0.00  0.00    +0.048 A 
ATOM     16  C   UNL     1      -5.335   1.089  -7.303  0.00  0.00    +0.043 A 
ATOM     17  C   UNL     1      -4.657  -0.091  -7.054  0.00  0.00    +0.022 A 
ATOM     18  C   UNL     1      -4.351  -0.463  -5.758  0.00  0.00    +0.026 A 
ATOM     19  C   UNL     1      -4.727   0.348  -4.699  0.00  0.00    +0.052 A 
ATOM     20  N   UNL     1      -4.473  -0.046  -3.379  0.00  0.00    -0.331 N 
ATOM     21 CL   UNL     1      -5.724   1.538  -8.934  0.00  0.00    -0.083 Cl
ATOM     22  H   UNL     1      -4.414  -0.989  -3.159  0.00  0.00    +0.147 HD
ENDROOT
BRANCH   1  24
ATOM     23  C   UNL     1      -0.014   1.456   0.453  0.00  0.00    +0.017 C 
ATOM     24  C   UNL     1       0.003  -0.006   0.001  0.00  0.00    +0.069 C 
ATOM     25  C   UNL     1       0.964  -0.803   0.886  0.00  0.00    +0.017 C 
ENDBRANCH   1  24
TORSDOF 1
