REMARK  Name = ZINC02957864
REMARK  3 active torsions:
REMARK  status: ('A' for Active; 'I' for Inactive)
REMARK    1  A    between atoms: C_8  and  C_12
REMARK    2  A    between atoms: N_14  and  C_19
REMARK    3  A    between atoms: C_22  and  C_25
REMARK                            x       y       z     vdW  Elec       q    Type
REMARK                         _______ _______ _______ _____ _____    ______ ____
ROOT
ATOM      1  C   UNL     1       2.663  -4.215   0.122  0.00  0.00    +0.072 A 
ATOM      2  C   UNL     1       3.810  -4.901   0.282  0.00  0.00    +0.120 A 
ATOM      3  N   UNL     1       3.484  -6.237   0.437  0.00  0.00    -0.295 N 
ATOM      4  C   UNL     1       2.144  -6.356   0.370  0.00  0.00    +0.163 A 
ATOM      5  S   UNL     1       1.262  -7.817   0.507  0.00  0.00    -0.013 S 
ATOM      6  N   UNL     1       1.615  -5.131   0.184  0.00  0.00    -0.333 N 
ATOM      7  H   UNL     1       0.671  -4.924   0.104  0.00  0.00    +0.168 HD
ENDROOT
BRANCH   1  15
ATOM      8  C   UNL     1       0.097   1.370  -0.482  0.00  0.00    +0.001 A 
ATOM      9  C   UNL     1       1.279   2.038  -0.769  0.00  0.00    +0.004 A 
ATOM     10  C   UNL     1       2.467   1.346  -0.884  0.00  0.00    +0.047 A 
ATOM     11  C   UNL     1       2.483  -0.030  -0.710  0.00  0.00    +0.139 A 
ATOM     12  C   UNL     1       1.284  -0.706  -0.416  0.00  0.00    +0.018 A 
ATOM     13  C   UNL     1       0.089   0.015  -0.306  0.00  0.00    +0.011 A 
ATOM     14  C   UNL     1       1.307  -2.158  -0.224  0.00  0.00    +0.028 A 
ATOM     15  C   UNL     1       2.538  -2.757  -0.076  0.00  0.00    +0.085 A 
ATOM     16  C   UNL     1       3.725  -1.885  -0.124  0.00  0.00    +0.347 A 
ATOM     17  O   UNL     1       4.753  -2.195   0.449  0.00  0.00    -0.244 OA
ATOM     18  O   UNL     1       3.639  -0.730  -0.822  0.00  0.00    -0.422 OA
ENDBRANCH   1  15
BRANCH   3  19
ATOM     19  C   UNL     1       4.388  -7.281   0.628  0.00  0.00    +0.048 A 
ATOM     20  C   UNL     1       4.551  -8.248  -0.359  0.00  0.00    +0.027 A 
ATOM     21  C   UNL     1       5.438  -9.277  -0.175  0.00  0.00    +0.017 A 
ATOM     22  C   UNL     1       6.182  -9.353   1.008  0.00  0.00    +0.063 A 
ATOM     23  C   UNL     1       6.016  -8.378   1.998  0.00  0.00    +0.017 A 
ATOM     24  C   UNL     1       5.130  -7.350   1.804  0.00  0.00    +0.027 A 
BRANCH  22  25
ATOM     25  C   UNL     1       7.136 -10.456   1.211  0.00  0.00    +0.387 C 
ATOM     26  O   UNL     1       7.279 -11.307   0.344  0.00  0.00    -0.241 OA
ATOM     27  O   UNL     1       7.785 -10.521   2.246  0.00  0.00    -0.241 OA
ENDBRANCH  22  25
ENDBRANCH   3  19
TORSDOF 3
