REMARK  Name = ZINC36660426
REMARK  13 active torsions:
REMARK  status: ('A' for Active; 'I' for Inactive)
REMARK    1  A    between atoms: C_1  and  C_2
REMARK    2  A    between atoms: C_4  and  C_37
REMARK    3  A    between atoms: N_11  and  C_12
REMARK    4  A    between atoms: C_12  and  C_13
REMARK    5  A    between atoms: C_13  and  C_14
REMARK    6  A    between atoms: C_14  and  N_15
REMARK    7  A    between atoms: N_15  and  C_16
REMARK    8  A    between atoms: N_15  and  C_17
REMARK    9  A    between atoms: C_18  and  C_20
REMARK   10  A    between atoms: N_25  and  S_26
REMARK   11  A    between atoms: S_26  and  C_29
REMARK   12  A    between atoms: C_32  and  O_35
REMARK   13  A    between atoms: O_35  and  C_36
REMARK                            x       y       z     vdW  Elec       q    Type
REMARK                         _______ _______ _______ _____ _____    ______ ____
ROOT
ATOM      1  C   UNL     1       0.148   1.731   1.706  0.00  0.00    +0.044 C 
ATOM      2  C   UNL     1       0.250   0.248   1.455  0.00  0.00    -0.048 A 
ATOM      3  C   UNL     1       0.450  -0.208   0.160  0.00  0.00    +0.008 A 
ATOM      4  C   UNL     1       0.543  -1.568  -0.072  0.00  0.00    -0.034 A 
ATOM      5  C   UNL     1       0.438  -2.443   0.980  0.00  0.00    +0.044 A 
ATOM      6  C   UNL     1       0.234  -2.015   2.311  0.00  0.00    +0.081 A 
ATOM      7  C   UNL     1       0.148  -0.618   2.512  0.00  0.00    +0.032 A 
ATOM      8  N   UNL     1       0.151  -2.997   3.235  0.00  0.00    -0.224 NA
ATOM      9  C   UNL     1       0.251  -4.269   2.924  0.00  0.00    +0.168 A 
ATOM     10  S   UNL     1       0.494  -4.210   1.155  0.00  0.00    -0.052 S 
ATOM     11  N   UNL     1       0.187  -5.374   3.757  0.00  0.00    -0.249 N 
ATOM     12  C   UNL     1       0.315  -6.613   3.243  0.00  0.00    +0.240 C 
ATOM     13  O   UNL     1       0.579  -6.758   2.068  0.00  0.00    -0.273 OA
ATOM     14  C   UNL     1       0.760  -2.085  -1.471  0.00  0.00    +0.045 C 
ENDROOT
BRANCH  12  15
ATOM     15  C   UNL     1       0.129  -7.819   4.127  0.00  0.00    +0.166 C 
ATOM     16  C   UNL     1       1.483  -8.232   4.742  0.00  0.00    +0.031 C 
ATOM     17  C   UNL     1       1.418  -9.782   4.716  0.00  0.00    +0.019 C 
ATOM     18  C   UNL     1       0.645 -10.039   3.398  0.00  0.00    +0.110 C 
ATOM     19  N   UNL     1      -0.356  -8.955   3.329  0.00  0.00    -0.165 NA
BRANCH  19  20
ATOM     20  S   UNL     1      -1.786  -9.007   2.495  0.00  0.00    +0.062 S 
ATOM     21  O   UNL     1      -2.197 -10.367   2.480  0.00  0.00    -0.153 OA
ATOM     22  O   UNL     1      -2.602  -7.970   3.022  0.00  0.00    -0.153 OA
BRANCH  20  23
ATOM     23  C   UNL     1      -1.430  -8.570   0.825  0.00  0.00    +0.106 A 
ATOM     24  C   UNL     1      -1.587  -7.262   0.406  0.00  0.00    +0.032 A 
ATOM     25  C   UNL     1      -1.310  -6.917  -0.902  0.00  0.00    +0.047 A 
ATOM     26  C   UNL     1      -0.873  -7.884  -1.796  0.00  0.00    +0.120 A 
ATOM     27  C   UNL     1      -0.716  -9.196  -1.373  0.00  0.00    +0.047 A 
ATOM     28  C   UNL     1      -0.990  -9.535  -0.062  0.00  0.00    +0.032 A 
BRANCH  26  29
ATOM     29  O   UNL     1      -0.600  -7.547  -3.084  0.00  0.00    -0.495 OA
ATOM     30  C   UNL     1      -0.155  -8.595  -3.948  0.00  0.00    +0.277 C 
ENDBRANCH  26  29
ENDBRANCH  20  23
ENDBRANCH  19  20
ENDBRANCH  12  15
BRANCH  11  31
ATOM     31  C   UNL     1      -0.021  -5.196   5.196  0.00  0.00    +0.114 C 
BRANCH  31  32
ATOM     32  C   UNL     1      -1.521  -5.145   5.493  0.00  0.00    +0.001 C 
BRANCH  32  33
ATOM     33  C   UNL     1      -1.737  -4.959   6.996  0.00  0.00    -0.078 C 
BRANCH  33  34
ATOM     34  N   UNL     1      -3.178  -4.910   7.281  0.00  0.00    +0.376 N 
ATOM     35  C   UNL     1      -3.388  -4.852   8.733  0.00  0.00    -0.097 C 
ATOM     36  C   UNL     1      -3.760  -3.716   6.654  0.00  0.00    -0.097 C 
ATOM     37  H   UNL     1      -3.622  -5.736   6.909  0.00  0.00    -0.083 HD
ENDBRANCH  33  34
ENDBRANCH  32  33
ENDBRANCH  31  32
ENDBRANCH  11  31
TORSDOF 8
