REMARK  Name = ZINC60335912
REMARK  10 active torsions:
REMARK  status: ('A' for Active; 'I' for Inactive)
REMARK    1  A    between atoms: C_1  and  C_2
REMARK    2  A    between atoms: C_2  and  C_3
REMARK    3  A    between atoms: C_2  and  C_4
REMARK    4  A    between atoms: C_2  and  O_5
REMARK    5  A    between atoms: O_5  and  C_6
REMARK    6  A    between atoms: N_8  and  C_9
REMARK    7  A    between atoms: C_9  and  C_10
REMARK    8  A    between atoms: C_17  and  C_19
REMARK    9  A    between atoms: C_21  and  S_25
REMARK   10  A    between atoms: S_25  and  N_28
REMARK                            x       y       z     vdW  Elec       q    Type
REMARK                         _______ _______ _______ _____ _____    ______ ____
ROOT
ATOM      1  C   UNL     1       4.771  -0.756  -3.654  0.00  0.00    +0.094 C 
ATOM      2  C   UNL     1       6.173  -0.355  -3.184  0.00  0.00    +0.024 C 
ATOM      3  C   UNL     1       7.216  -1.190  -3.932  0.00  0.00    +0.003 C 
ATOM      4  C   UNL     1       7.007  -2.672  -3.616  0.00  0.00    +0.019 C 
ATOM      5  C   UNL     1       5.614  -3.100  -4.091  0.00  0.00    +0.108 C 
ATOM      6  N   UNL     1       4.612  -2.208  -3.491  0.00  0.00    -0.292 N 
ATOM      7  C   UNL     1       3.569  -2.711  -2.802  0.00  0.00    +0.263 C 
ATOM      8  O   UNL     1       2.768  -1.960  -2.276  0.00  0.00    -0.268 OA
ENDROOT
BRANCH   7   9
ATOM      9  C   UNL     1       3.400  -4.163  -2.684  0.00  0.00    +0.104 A 
ATOM     10  C   UNL     1       2.712  -4.826  -1.690  0.00  0.00    +0.060 A 
ATOM     11  C   UNL     1       2.804  -6.193  -1.968  0.00  0.00    +0.123 A 
ATOM     12  C   UNL     1       3.531  -6.339  -3.101  0.00  0.00    +0.112 A 
ATOM     13  N   UNL     1       3.894  -5.113  -3.550  0.00  0.00    -0.355 N 
ATOM     14  H   UNL     1       4.418  -4.934  -4.347  0.00  0.00    +0.166 HD
BRANCH  11  15
ATOM     15  S   UNL     1       2.100  -7.495  -1.012  0.00  0.00    +0.062 S 
ATOM     16  O   UNL     1       2.863  -8.661  -1.290  0.00  0.00    -0.153 OA
ATOM     17  O   UNL     1       1.935  -6.989   0.305  0.00  0.00    -0.153 OA
BRANCH  15  18
ATOM     18  N   UNL     1       0.579  -7.772  -1.607  0.00  0.00    -0.175 NA
ATOM     19  C   UNL     1      -0.558  -7.034  -1.055  0.00  0.00    +0.120 C 
ATOM     20  C   UNL     1      -1.140  -6.112  -2.133  0.00  0.00    +0.086 C 
ATOM     21  S   UNL     1      -1.606  -7.120  -3.572  0.00  0.00    -0.158 S 
ATOM     22  C   UNL     1      -0.080  -8.034  -3.949  0.00  0.00    +0.086 C 
ATOM     23  C   UNL     1       0.389  -8.747  -2.682  0.00  0.00    +0.120 C 
ENDBRANCH  15  18
ENDBRANCH  11  15
ENDBRANCH   7   9
BRANCH   1  24
ATOM     24  C   UNL     1       3.721  -0.028  -2.814  0.00  0.00    +0.130 C 
BRANCH  24  27
ATOM     25  C   UNL     1       1.317   0.367  -2.870  0.00  0.00    +0.401 C 
ATOM     26  O   UNL     1       1.452   1.138  -1.941  0.00  0.00    -0.226 OA
ATOM     27  N   UNL     1       2.391  -0.268  -3.380  0.00  0.00    -0.279 N 
ATOM     28  H   UNL     1       2.283  -0.883  -4.122  0.00  0.00    +0.152 HD
BRANCH  25  29
ATOM     29  O   UNL     1       0.095   0.146  -3.390  0.00  0.00    -0.445 OA
BRANCH  29  31
ATOM     30  C   UNL     1      -0.762   2.358  -2.930  0.00  0.00    +0.055 C 
ATOM     31  C   UNL     1      -0.999   0.853  -2.800  0.00  0.00    +0.107 C 
ATOM     32  C   UNL     1      -1.108   0.479  -1.320  0.00  0.00    +0.055 C 
ATOM     33  C   UNL     1      -2.296   0.476  -3.518  0.00  0.00    +0.055 C 
ENDBRANCH  29  31
ENDBRANCH  25  29
ENDBRANCH  24  27
ENDBRANCH   1  24
TORSDOF 7
