REMARK  Name = ZINC47687896
REMARK  10 active torsions:
REMARK  status: ('A' for Active; 'I' for Inactive)
REMARK    1  A    between atoms: C_1  and  C_2
REMARK    2  A    between atoms: C_2  and  O_3
REMARK    3  A    between atoms: O_3  and  C_4
REMARK    4  A    between atoms: C_4  and  C_6
REMARK    5  A    between atoms: C_10  and  N_15
REMARK    6  A    between atoms: C_16  and  C_18
REMARK    7  A    between atoms: C_18  and  C_20
REMARK    8  A    between atoms: C_18  and  N_23
REMARK    9  A    between atoms: C_20  and  C_21
REMARK   10  A    between atoms: C_20  and  C_22
REMARK                            x       y       z     vdW  Elec       q    Type
REMARK                         _______ _______ _______ _____ _____    ______ ____
ROOT
ATOM      1  N   UNL     1       3.251  -6.598  -6.628  0.00  0.00    -0.284 N 
ATOM      2  C   UNL     1       4.103  -6.875  -7.634  0.00  0.00    +0.238 C 
ATOM      3  O   UNL     1       4.709  -5.978  -8.181  0.00  0.00    -0.273 OA
ATOM      4  H   UNL     1       2.820  -7.319  -6.144  0.00  0.00    +0.155 HD
ENDROOT
BRANCH   1   9
ATOM      5  C   UNL     1       0.106  -1.710  -4.798  0.00  0.00    +0.097 A 
ATOM      6  C   UNL     1       0.199  -3.033  -5.099  0.00  0.00    +0.031 A 
ATOM      7  C   UNL     1       1.426  -3.571  -5.527  0.00  0.00    -0.008 A 
ATOM      8  C   UNL     1       1.720  -4.913  -5.883  0.00  0.00    +0.032 A 
ATOM      9  C   UNL     1       2.986  -5.266  -6.282  0.00  0.00    +0.034 A 
ATOM     10  C   UNL     1       4.014  -4.325  -6.347  0.00  0.00    +0.024 A 
ATOM     11  C   UNL     1       3.762  -3.023  -6.010  0.00  0.00    +0.017 A 
ATOM     12  C   UNL     1       2.497  -2.650  -5.608  0.00  0.00    +0.020 A 
ATOM     13  S   UNL     1       1.760  -1.115  -5.104  0.00  0.00    -0.082 S 
BRANCH   5  14
ATOM     14  C   UNL     1      -1.067  -0.956  -4.340  0.00  0.00    +0.346 C 
ATOM     15  O   UNL     1      -2.131  -1.524  -4.181  0.00  0.00    -0.244 OA
BRANCH  14  16
ATOM     16  O   UNL     1      -0.966   0.366  -4.095  0.00  0.00    -0.461 OA
BRANCH  16  18
ATOM     17  C   UNL     1      -1.840   2.518  -3.427  0.00  0.00    +0.048 C 
ATOM     18  C   UNL     1      -2.148   1.036  -3.651  0.00  0.00    +0.229 C 
ENDBRANCH  16  18
ENDBRANCH  14  16
ENDBRANCH   5  14
ENDBRANCH   1   9
BRANCH   2  19
ATOM     19  C   UNL     1       4.304  -8.301  -8.080  0.00  0.00    +0.163 C 
BRANCH  19  20
ATOM     20  N   UNL     1       4.986  -8.316  -9.376  0.00  0.00    -0.288 N 
ATOM     21  C   UNL     1       4.839  -9.370 -10.203  0.00  0.00    +0.298 C 
ATOM     22  O   UNL     1       4.140 -10.309  -9.873  0.00  0.00    -0.253 OA
ATOM     23  N   UNL     1       5.466  -9.384 -11.396  0.00  0.00    -0.313 N 
ATOM     24  H   UNL     1       5.543  -7.567  -9.640  0.00  0.00    +0.151 HD
ATOM     25  H   UNL     1       6.024  -8.635 -11.659  0.00  0.00    +0.146 HD
ATOM     26  H   UNL     1       5.360 -10.143 -11.991  0.00  0.00    +0.146 HD
ENDBRANCH  19  20
BRANCH  19  27
ATOM     27  C   UNL     1       5.155  -9.042  -7.047  0.00  0.00    +0.012 C 
ATOM     28  C   UNL     1       6.457  -8.273  -6.812  0.00  0.00    +0.009 C 
ATOM     29  C   UNL     1       4.382  -9.150  -5.731  0.00  0.00    +0.009 C 
ENDBRANCH  19  27
ENDBRANCH   2  19
TORSDOF 7
