REMARK  Name = ZINC38713072
REMARK  14 active torsions:
REMARK  status: ('A' for Active; 'I' for Inactive)
REMARK    1  A    between atoms: C_1  and  C_2
REMARK    2  A    between atoms: C_2  and  N_3
REMARK    3  A    between atoms: N_3  and  C_4
REMARK    4  A    between atoms: N_3  and  C_6
REMARK    5  A    between atoms: C_4  and  C_5
REMARK    6  A    between atoms: C_6  and  C_7
REMARK    7  A    between atoms: C_7  and  N_8
REMARK    8  A    between atoms: C_9  and  C_28
REMARK    9  A    between atoms: C_30  and  O_38
REMARK   10  A    between atoms: C_31  and  O_36
REMARK   11  A    between atoms: C_32  and  O_34
REMARK   12  A    between atoms: O_34  and  C_35
REMARK   13  A    between atoms: O_36  and  C_37
REMARK   14  A    between atoms: O_38  and  C_39
REMARK                            x       y       z     vdW  Elec       q    Type
REMARK                         _______ _______ _______ _____ _____    ______ ____
ROOT
ATOM      1  N   UNL     1      -1.382  -3.580  -1.830  0.00  0.00    -0.285 N 
ATOM      2  C   UNL     1      -1.458  -4.247  -3.140  0.00  0.00    +0.145 C 
ATOM      3  C   UNL     1      -1.704  -5.691  -2.848  0.00  0.00    +0.072 A 
ATOM      4  C   UNL     1      -1.882  -6.842  -3.738  0.00  0.00    +0.199 A 
ATOM      5  O   UNL     1      -1.671  -6.796  -4.938  0.00  0.00    -0.287 OA
ATOM      6  C   UNL     1      -2.343  -8.067  -3.041  0.00  0.00    +0.065 A 
ATOM      7  C   UNL     1      -2.755  -9.187  -3.786  0.00  0.00    +0.016 A 
ATOM      8  C   UNL     1      -3.186 -10.311  -3.165  0.00  0.00    +0.009 A 
ATOM      9  C   UNL     1      -3.225 -10.371  -1.756  0.00  0.00    -0.014 A 
ATOM     10  C   UNL     1      -3.674 -11.527  -1.098  0.00  0.00    +0.008 A 
ATOM     11  C   UNL     1      -3.701 -11.563   0.264  0.00  0.00    +0.001 A 
ATOM     12  C   UNL     1      -3.289 -10.468   1.017  0.00  0.00    +0.001 A 
ATOM     13  C   UNL     1      -2.849  -9.329   0.411  0.00  0.00    +0.012 A 
ATOM     14  C   UNL     1      -2.809  -9.258  -0.989  0.00  0.00    +0.025 A 
ATOM     15  C   UNL     1      -2.360  -8.085  -1.644  0.00  0.00    +0.147 A 
ATOM     16  O   UNL     1      -1.962  -7.031  -0.900  0.00  0.00    -0.449 OA
ATOM     17  C   UNL     1      -1.758  -5.838  -1.491  0.00  0.00    +0.199 A 
ATOM     18  C   UNL     1      -1.553  -4.516  -0.874  0.00  0.00    +0.283 C 
ATOM     19  O   UNL     1      -1.542  -4.301   0.322  0.00  0.00    -0.267 OA
ENDROOT
BRANCH   2  20
ATOM     20  C   UNL     1      -2.595  -3.677  -3.949  0.00  0.00    -0.015 A 
ATOM     21  C   UNL     1      -3.792  -3.369  -3.332  0.00  0.00    +0.055 A 
ATOM     22  C   UNL     1      -4.841  -2.845  -4.072  0.00  0.00    +0.165 A 
ATOM     23  C   UNL     1      -4.686  -2.629  -5.436  0.00  0.00    +0.204 A 
ATOM     24  C   UNL     1      -3.480  -2.940  -6.053  0.00  0.00    +0.165 A 
ATOM     25  C   UNL     1      -2.435  -3.459  -5.304  0.00  0.00    +0.055 A 
BRANCH  24  26
ATOM     26  O   UNL     1      -3.324  -2.731  -7.387  0.00  0.00    -0.491 OA
ATOM     27  C   UNL     1      -2.057  -3.073  -7.954  0.00  0.00    +0.277 C 
ENDBRANCH  24  26
BRANCH  23  28
ATOM     28  O   UNL     1      -5.713  -2.115  -6.167  0.00  0.00    -0.488 OA
ATOM     29  C   UNL     1      -5.780  -0.692  -6.280  0.00  0.00    +0.277 C 
ENDBRANCH  23  28
BRANCH  22  30
ATOM     30  O   UNL     1      -6.020  -2.543  -3.464  0.00  0.00    -0.491 OA
ATOM     31  C   UNL     1      -6.108  -2.791  -2.060  0.00  0.00    +0.277 C 
ENDBRANCH  22  30
ENDBRANCH   2  20
BRANCH   1  32
ATOM     32  C   UNL     1      -1.155  -2.151  -1.603  0.00  0.00    +0.090 C 
BRANCH  32  33
ATOM     33  C   UNL     1       0.348  -1.884  -1.496  0.00  0.00    -0.060 C 
BRANCH  33  34
ATOM     34  N   UNL     1       0.576  -0.451  -1.269  0.00  0.00    +0.380 N 
ATOM     35  H   UNL     1       0.124   0.081  -1.998  0.00  0.00    -0.082 HD
BRANCH  34  37
ATOM     36  C   UNL     1       0.128   1.449   0.210  0.00  0.00    -0.017 C 
ATOM     37  C   UNL     1       0.019  -0.067   0.035  0.00  0.00    -0.082 C 
ENDBRANCH  34  37
BRANCH  34  38
ATOM     38  C   UNL     1       2.019  -0.176  -1.285  0.00  0.00    -0.082 C 
ATOM     39  C   UNL     1       2.573  -0.440  -2.687  0.00  0.00    -0.017 C 
ENDBRANCH  34  38
ENDBRANCH  33  34
ENDBRANCH  32  33
ENDBRANCH   1  32
TORSDOF 9
