REMARK  Name = ZINC02540744
REMARK  13 active torsions:
REMARK  status: ('A' for Active; 'I' for Inactive)
REMARK    1  A    between atoms: C_4  and  C_7
REMARK    2  A    between atoms: C_7  and  O_8
REMARK    3  A    between atoms: O_8  and  C_9
REMARK    4  A    between atoms: C_14  and  O_15
REMARK    5  A    between atoms: O_15  and  C_16
REMARK    6  A    between atoms: C_16  and  C_17
REMARK    7  A    between atoms: C_17  and  N_18
REMARK    8  A    between atoms: N_18  and  C_19
REMARK    9  A    between atoms: C_19  and  C_20
REMARK   10  A    between atoms: C_20  and  C_22
REMARK   11  A    between atoms: C_20  and  O_38
REMARK   12  A    between atoms: C_22  and  O_23
REMARK   13  A    between atoms: O_23  and  C_24
REMARK                            x       y       z     vdW  Elec       q    Type
REMARK                         _______ _______ _______ _____ _____    ______ ____
ROOT
ATOM      1  N   UNL     1       4.534   0.271  -6.239  0.00  0.00    +0.383 N 
ATOM      2  H   UNL     1       4.175   0.576  -5.244  0.00  0.00    -0.086 HD
ATOM      3  H   UNL     1       5.540   0.681  -6.407  0.00  0.00    -0.086 HD
ENDROOT
BRANCH   1   4
ATOM      4  C   UNL     1       4.583  -1.195  -6.314  0.00  0.00    -0.041 C 
BRANCH   4   5
ATOM      5  C   UNL     1       5.536  -1.729  -5.242  0.00  0.00    +0.210 C 
BRANCH   5   6
ATOM      6  O   UNL     1       5.010  -1.434  -3.947  0.00  0.00    -0.490 OA
BRANCH   6  12
ATOM      7  C   UNL     1       5.288  -1.590  -1.585  0.00  0.00    +0.162 A 
ATOM      8  C   UNL     1       6.040  -2.003  -0.497  0.00  0.00    +0.049 A 
ATOM      9  C   UNL     1       7.231  -2.676  -0.695  0.00  0.00    +0.004 A 
ATOM     10  C   UNL     1       7.681  -2.928  -1.978  0.00  0.00    +0.004 A 
ATOM     11  C   UNL     1       6.939  -2.513  -3.068  0.00  0.00    +0.049 A 
ATOM     12  C   UNL     1       5.741  -1.843  -2.876  0.00  0.00    +0.162 A 
BRANCH   7  13
ATOM     13  O   UNL     1       4.113  -0.932  -1.391  0.00  0.00    -0.484 OA
BRANCH  13  14
ATOM     14  C   UNL     1       3.711  -0.707  -0.039  0.00  0.00    +0.264 C 
BRANCH  14  18
ATOM     15  C   UNL     1      -0.017   1.378   0.010  0.00  0.00    +0.000 A 
ATOM     16  C   UNL     1       1.171   2.086   0.002  0.00  0.00    +0.000 A 
ATOM     17  C   UNL     1       2.377   1.411  -0.014  0.00  0.00    +0.007 A 
ATOM     18  C   UNL     1       2.396   0.029  -0.022  0.00  0.00    -0.010 A 
ATOM     19  C   UNL     1       1.208  -0.679  -0.014  0.00  0.00    +0.007 A 
ATOM     20  C   UNL     1       0.002  -0.004   0.002  0.00  0.00    +0.000 A 
ENDBRANCH  14  18
ENDBRANCH  13  14
ENDBRANCH   7  13
ENDBRANCH   6  12
ENDBRANCH   5   6
ENDBRANCH   4   5
ENDBRANCH   1   4
BRANCH   1  21
ATOM     21  C   UNL     1       3.626   0.820  -7.255  0.00  0.00    -0.047 C 
BRANCH  21  22
ATOM     22  C   UNL     1       3.601   2.346  -7.146  0.00  0.00    +0.135 C 
BRANCH  22  23
ATOM     23  O   UNL     1       3.144   2.723  -5.846  0.00  0.00    -0.390 OA
ATOM     24  H   UNL     1       3.059   3.787  -5.580  0.00  0.00    +0.210 HD
ENDBRANCH  22  23
BRANCH  22  25
ATOM     25  C   UNL     1       2.656   2.918  -8.204  0.00  0.00    +0.258 C 
BRANCH  25  26
ATOM     26  O   UNL     1       2.721   4.345  -8.180  0.00  0.00    -0.489 OA
BRANCH  26  27
ATOM     27  C   UNL     1       1.936   5.013  -9.065  0.00  0.00    +0.130 A 
ATOM     28  C   UNL     1       1.121   4.314  -9.938  0.00  0.00    +0.046 A 
ATOM     29  C   UNL     1       0.321   4.995 -10.841  0.00  0.00    +0.006 A 
ATOM     30  C   UNL     1       0.324   6.373 -10.882  0.00  0.00    +0.026 A 
ATOM     31  C   UNL     1       1.137   7.096 -10.013  0.00  0.00    +0.051 A 
ATOM     32  C   UNL     1       1.943   6.410  -9.095  0.00  0.00    +0.049 A 
ATOM     33  C   UNL     1       2.676   7.437  -8.332  0.00  0.00    +0.011 A 
ATOM     34  C   UNL     1       3.612   7.380  -7.302  0.00  0.00    +0.011 A 
ATOM     35  C   UNL     1       4.125   8.547  -6.777  0.00  0.00    +0.001 A 
ATOM     36  C   UNL     1       3.713   9.775  -7.272  0.00  0.00    +0.002 A 
ATOM     37  C   UNL     1       2.787   9.845  -8.291  0.00  0.00    +0.026 A 
ATOM     38  C   UNL     1       2.258   8.678  -8.833  0.00  0.00    +0.048 A 
ATOM     39  N   UNL     1       1.335   8.454  -9.839  0.00  0.00    -0.354 N 
ATOM     40  H   UNL     1       0.788   9.175 -10.465  0.00  0.00    +0.166 HD
ENDBRANCH  26  27
ENDBRANCH  25  26
ENDBRANCH  22  25
ENDBRANCH  21  22
ENDBRANCH   1  21
TORSDOF 13
