REMARK  Name = ZINC24872509
REMARK  9 active torsions:
REMARK  status: ('A' for Active; 'I' for Inactive)
REMARK    1  A    between atoms: C_4  and  C_7
REMARK    2  A    between atoms: C_7  and  N_8
REMARK    3  A    between atoms: C_9  and  C_11
REMARK    4  A    between atoms: N_14  and  C_27
REMARK    5  A    between atoms: N_20  and  C_21
REMARK    6  A    between atoms: C_21  and  C_22
REMARK    7  A    between atoms: C_27  and  C_28
REMARK    8  A    between atoms: C_28  and  S_29
REMARK    9  A    between atoms: S_29  and  C_32
REMARK                            x       y       z     vdW  Elec       q    Type
REMARK                         _______ _______ _______ _____ _____    ______ ____
ROOT
ATOM      1  C   UNL     1       2.438   1.211   0.099  0.00  0.00    +0.177 C 
ATOM      2  C   UNL     1       2.505   2.015   1.402  0.00  0.00    +0.116 C 
ATOM      3  N   UNL     1       2.575   3.448   1.086  0.00  0.00    -0.297 NA
ATOM      4  C   UNL     1       1.364   3.900   0.389  0.00  0.00    +0.103 C 
ATOM      5  C   UNL     1       1.254   3.173  -0.961  0.00  0.00    +0.125 C 
ATOM      6  N   UNL     1       1.323   1.725  -0.711  0.00  0.00    -0.272 N 
ATOM      7  C   UNL     1       0.392   0.891  -1.216  0.00  0.00    +0.303 C 
ATOM      8  O   UNL     1       0.514  -0.311  -1.078  0.00  0.00    -0.253 OA
ATOM      9  N   UNL     1      -0.671   1.389  -1.877  0.00  0.00    -0.292 N 
ATOM     10  H   UNL     1      -0.739   2.469  -2.075  0.00  0.00    +0.151 HD
ENDROOT
BRANCH   1  12
ATOM     11  N   UNL     1       3.208  -1.135   0.247  0.00  0.00    -0.310 N 
ATOM     12  C   UNL     1       2.208  -0.246   0.409  0.00  0.00    +0.235 C 
ATOM     13  O   UNL     1       1.124  -0.618   0.805  0.00  0.00    -0.274 OA
ATOM     14  H   UNL     1       4.191  -0.798  -0.113  0.00  0.00    +0.149 HD
BRANCH  11  15
ATOM     15  C   UNL     1       2.984  -2.551   0.549  0.00  0.00    +0.139 C 
BRANCH  15  19
ATOM     16  C   UNL     1       6.570  -4.750  -0.197  0.00  0.00    +0.000 A 
ATOM     17  C   UNL     1       6.339  -4.208   1.053  0.00  0.00    +0.000 A 
ATOM     18  C   UNL     1       5.179  -3.496   1.295  0.00  0.00    +0.005 A 
ATOM     19  C   UNL     1       4.250  -3.327   0.286  0.00  0.00    -0.030 A 
ATOM     20  C   UNL     1       4.478  -3.873  -0.964  0.00  0.00    +0.005 A 
ATOM     21  C   UNL     1       5.641  -4.580  -1.206  0.00  0.00    +0.000 A 
ENDBRANCH  15  19
ENDBRANCH  11  15
ENDBRANCH   1  12
BRANCH   9  22
ATOM     22  C   UNL     1      -1.736   0.492  -2.333  0.00  0.00    +0.180 C 
BRANCH  22  23
ATOM     23  C   UNL     1      -2.799   1.293  -3.040  0.00  0.00    +0.122 A 
ATOM     24  C   UNL     1      -2.831   1.571  -4.356  0.00  0.00    +0.046 A 
ATOM     25  C   UNL     1      -3.994   2.340  -4.584  0.00  0.00    +0.041 A 
ATOM     26  C   UNL     1      -4.604   2.487  -3.394  0.00  0.00    +0.195 A 
ATOM     27  O   UNL     1      -3.879   1.845  -2.463  0.00  0.00    -0.466 OA
ENDBRANCH  22  23
ENDBRANCH   9  22
BRANCH   3  28
ATOM     28  C   UNL     1       2.813   4.243   2.298  0.00  0.00    +0.107 C 
BRANCH  28  29
ATOM     29  C   UNL     1       3.128   5.688   1.906  0.00  0.00    +0.187 C 
BRANCH  29  30
ATOM     30  S   UNL     1       3.422   6.670   3.403  0.00  0.00    -0.002 S 
ATOM     31  O   UNL     1       2.218   6.801   4.146  0.00  0.00    -0.169 OA
ATOM     32  O   UNL     1       4.622   6.248   4.037  0.00  0.00    -0.169 OA
BRANCH  30  33
ATOM     33  C   UNL     1       3.769   8.295   2.818  0.00  0.00    +0.088 A 
ATOM     34  C   UNL     1       5.072   8.666   2.541  0.00  0.00    +0.027 A 
ATOM     35  C   UNL     1       5.344   9.939   2.077  0.00  0.00    +0.002 A 
ATOM     36  C   UNL     1       4.315  10.845   1.900  0.00  0.00    +0.000 A 
ATOM     37  C   UNL     1       3.013  10.476   2.182  0.00  0.00    +0.002 A 
ATOM     38  C   UNL     1       2.740   9.200   2.641  0.00  0.00    +0.027 A 
ENDBRANCH  30  33
ENDBRANCH  29  30
ENDBRANCH  28  29
ENDBRANCH   3  28
TORSDOF 9
