REMARK  Name = ZINC66254559
REMARK  10 active torsions:
REMARK  status: ('A' for Active; 'I' for Inactive)
REMARK    1  A    between atoms: C_1  and  C_2
REMARK    2  A    between atoms: C_3  and  S_23
REMARK    3  A    between atoms: C_5  and  N_7
REMARK    4  A    between atoms: N_7  and  S_8
REMARK    5  A    between atoms: S_8  and  C_11
REMARK    6  A    between atoms: C_14  and  C_16
REMARK    7  A    between atoms: C_16  and  C_18
REMARK    8  A    between atoms: C_16  and  N_19
REMARK    9  A    between atoms: C_20  and  C_22
REMARK   10  A    between atoms: S_23  and  C_24
REMARK                            x       y       z     vdW  Elec       q    Type
REMARK                         _______ _______ _______ _____ _____    ______ ____
ROOT
ATOM      1  S   UNL     1       0.074  -4.499   1.998  0.00  0.00    +0.100 S 
ATOM      2  O   UNL     1      -1.170  -4.835   1.399  0.00  0.00    -0.148 OA
ATOM      3  O   UNL     1       1.320  -4.801   1.387  0.00  0.00    -0.148 OA
ENDROOT
BRANCH   1   4
ATOM      4  C   UNL     1       0.092  -5.264   3.585  0.00  0.00    +0.148 A 
ATOM      5  C   UNL     1      -0.952  -5.655   4.356  0.00  0.00    +0.037 A 
ATOM      6  C   UNL     1      -0.697  -6.243   5.581  0.00  0.00    +0.015 A 
ATOM      7  C   UNL     1       0.589  -6.411   5.974  0.00  0.00    +0.012 A 
ATOM      8  S   UNL     1       1.490  -5.734   4.590  0.00  0.00    -0.071 S 
BRANCH   7   9
ATOM      9  C   UNL     1       1.120  -7.018   7.248  0.00  0.00    +0.107 C 
ATOM     10  C   UNL     1       1.512  -5.902   8.219  0.00  0.00    +0.033 C 
BRANCH   9  11
ATOM     11  N   UNL     1       2.296  -7.838   6.945  0.00  0.00    -0.308 N 
ATOM     12  C   UNL     1       2.641  -8.850   7.765  0.00  0.00    +0.210 C 
ATOM     13  O   UNL     1       1.978  -9.082   8.754  0.00  0.00    -0.276 OA
ATOM     14  C   UNL     1       3.850  -9.693   7.453  0.00  0.00    +0.109 C 
ATOM     15  H   UNL     1       2.826  -7.652   6.154  0.00  0.00    +0.149 HD
ENDBRANCH   9  11
ENDBRANCH   7   9
ENDBRANCH   1   4
BRANCH   1  16
ATOM     16  N   UNL     1       0.052  -2.861   2.245  0.00  0.00    -0.070 NA
BRANCH  16  21
ATOM     17  C   UNL     1      -0.018   1.503   0.010  0.00  0.00    +0.067 C 
ATOM     18  C   UNL     1       0.002  -0.004   0.002  0.00  0.00    +0.061 A 
ATOM     19  C   UNL     1       0.005  -0.682  -1.178  0.00  0.00    +0.069 A 
ATOM     20  S   UNL     1       0.031  -2.370  -0.589  0.00  0.00    -0.043 S 
ATOM     21  C   UNL     1       0.035  -1.995   1.158  0.00  0.00    +0.203 A 
ATOM     22  N   UNL     1       0.022  -0.675   1.141  0.00  0.00    -0.226 NA
BRANCH  19  23
ATOM     23  S   UNL     1      -0.012  -0.066  -2.829  0.00  0.00    -0.120 S 
ATOM     24  C   UNL     1       0.003  -1.562  -3.855  0.00  0.00    +0.090 C 
ENDBRANCH  19  23
ENDBRANCH  16  21
ENDBRANCH   1  16
TORSDOF 6
