REMARK  Name = ZINC16790863
REMARK  8 active torsions:
REMARK  status: ('A' for Active; 'I' for Inactive)
REMARK    1  A    between atoms: C_1  and  C_2
REMARK    2  A    between atoms: C_2  and  C_4
REMARK    3  A    between atoms: C_2  and  S_19
REMARK    4  A    between atoms: C_16  and  C_17
REMARK    5  A    between atoms: C_16  and  C_18
REMARK    6  A    between atoms: S_19  and  C_20
REMARK    7  A    between atoms: C_23  and  C_26
REMARK    8  A    between atoms: N_24  and  N_25
REMARK                            x       y       z     vdW  Elec       q    Type
REMARK                         _______ _______ _______ _____ _____    ______ ____
ROOT
ATOM      1  C   UNL     1       2.319   8.721  -0.144  0.00  0.00    +0.029 C 
ATOM      2  C   UNL     1       3.339   9.082   0.937  0.00  0.00    +0.137 C 
ENDROOT
BRANCH   2   3
ATOM      3  C   UNL     1       4.001  10.389   0.587  0.00  0.00    +0.234 C 
ATOM      4  O   UNL     1       4.904  10.415  -0.223  0.00  0.00    -0.274 OA
ATOM      5  N   UNL     1       3.591  11.531   1.174  0.00  0.00    -0.255 N 
ATOM      6  C   UNL     1       2.548  11.528   2.114  0.00  0.00    +0.059 A 
ATOM      7  C   UNL     1       1.542  10.583   2.066  0.00  0.00    +0.025 A 
ATOM      8  C   UNL     1       0.530  10.607   3.009  0.00  0.00    +0.002 A 
ATOM      9  C   UNL     1       0.526  11.573   3.999  0.00  0.00    +0.002 A 
ATOM     10  C   UNL     1       1.533  12.518   4.058  0.00  0.00    +0.025 A 
ATOM     11  C   UNL     1       2.552  12.500   3.119  0.00  0.00    +0.055 A 
ATOM     12  N   UNL     1       3.583  13.445   3.163  0.00  0.00    -0.282 N 
ATOM     13  C   UNL     1       4.411  13.610   2.114  0.00  0.00    +0.241 C 
ATOM     14  O   UNL     1       5.325  14.404   2.192  0.00  0.00    -0.273 OA
ATOM     15  C   UNL     1       4.216  12.821   0.845  0.00  0.00    +0.113 C 
ATOM     16  C   UNL     1       5.572  12.577   0.181  0.00  0.00    +0.042 C 
ATOM     17  C   UNL     1       3.309  13.601  -0.109  0.00  0.00    +0.042 C 
ATOM     18  H   UNL     1       3.703  13.987   3.959  0.00  0.00    +0.155 HD
ENDBRANCH   2   3
BRANCH   2  19
ATOM     19  S   UNL     1       4.592   7.780   1.043  0.00  0.00    -0.072 S 
BRANCH  19  20
ATOM     20  C   UNL     1       3.594   6.439   1.598  0.00  0.00    +0.209 A 
ATOM     21  N   UNL     1       2.304   6.476   1.840  0.00  0.00    -0.121 NA
ATOM     22  N   UNL     1       1.893   5.323   2.231  0.00  0.00    -0.126 NA
ATOM     23  C   UNL     1       2.898   4.476   2.263  0.00  0.00    +0.188 A 
ATOM     24  N   UNL     1       4.020   5.167   1.863  0.00  0.00    -0.223 N 
BRANCH  23  25
ATOM     25  C   UNL     1       2.836   3.059   2.657  0.00  0.00    +0.058 A 
ATOM     26  C   UNL     1       1.738   2.248   2.799  0.00  0.00    +0.019 A 
ATOM     27  C   UNL     1       1.929   0.938   3.177  0.00  0.00    +0.008 A 
ATOM     28  C   UNL     1       3.192   0.492   3.406  0.00  0.00    +0.046 A 
ATOM     29  S   UNL     1       4.170   1.948   3.073  0.00  0.00    -0.093 S 
ENDBRANCH  23  25
BRANCH  24  30
ATOM     30  N   UNL     1       5.292   4.682   1.753  0.00  0.00    -0.295 N 
ATOM     31  H   UNL     1       5.459   4.312   0.829  0.00  0.00    +0.163 HD
ATOM     32  H   UNL     1       5.971   5.391   1.986  0.00  0.00    +0.163 HD
ENDBRANCH  24  30
ENDBRANCH  19  20
ENDBRANCH   2  19
TORSDOF 5
