REMARK  Name = ZINC08635716
REMARK  10 active torsions:
REMARK  status: ('A' for Active; 'I' for Inactive)
REMARK    1  A    between atoms: C_1  and  N_2
REMARK    2  A    between atoms: N_2  and  C_3
REMARK    3  A    between atoms: N_2  and  C_30
REMARK    4  A    between atoms: C_3  and  C_4
REMARK    5  A    between atoms: C_12  and  C_14
REMARK    6  A    between atoms: C_14  and  N_15
REMARK    7  A    between atoms: N_15  and  C_16
REMARK    8  A    between atoms: C_16  and  N_18
REMARK    9  A    between atoms: N_18  and  C_19
REMARK   10  A    between atoms: C_22  and  N_25
REMARK                            x       y       z     vdW  Elec       q    Type
REMARK                         _______ _______ _______ _____ _____    ______ ____
ROOT
ATOM      1  C   UNL     1      -1.933   5.450  -1.753  0.00  0.00    -0.007 C 
ATOM      2  C   UNL     1      -2.311   3.970  -1.853  0.00  0.00    -0.073 C 
ATOM      3  C   UNL     1      -4.429   4.379  -0.752  0.00  0.00    -0.078 C 
ATOM      4  C   UNL     1      -4.112   5.872  -0.620  0.00  0.00    -0.015 C 
ATOM      5  C   UNL     1      -2.592   6.046  -0.503  0.00  0.00    -0.011 C 
ATOM      6  C   UNL     1      -2.104   5.269   0.726  0.00  0.00    -0.010 C 
ATOM      7  C   UNL     1      -2.477   3.793   0.557  0.00  0.00    -0.051 C 
ATOM      8  N   UNL     1      -3.184   3.582  -0.725  0.00  0.00    +0.383 N 
ATOM      9  H   UNL     1      -3.422   2.588  -0.814  0.00  0.00    -0.081 HD
ENDROOT
BRANCH   1  10
ATOM     10  C   UNL     1      -0.413   5.585  -1.644  0.00  0.00    +0.106 C 
BRANCH  10  12
ATOM     11  C   UNL     1       0.169   7.733  -0.426  0.00  0.00    +0.129 C 
ATOM     12  N   UNL     1      -0.044   7.002  -1.677  0.00  0.00    -0.333 N 
BRANCH  12  13
ATOM     13  C   UNL     1       0.104   7.656  -2.902  0.00  0.00    +0.029 A 
ATOM     14  C   UNL     1      -0.203   6.997  -4.085  0.00  0.00    +0.023 A 
ATOM     15  C   UNL     1      -0.060   7.649  -5.295  0.00  0.00    +0.002 A 
ATOM     16  C   UNL     1       0.400   8.952  -5.329  0.00  0.00    +0.000 A 
ATOM     17  C   UNL     1       0.712   9.610  -4.153  0.00  0.00    +0.002 A 
ATOM     18  C   UNL     1       0.566   8.966  -2.940  0.00  0.00    +0.023 A 
ENDBRANCH  12  13
ENDBRANCH  10  12
ENDBRANCH   1  10
BRANCH   7  19
ATOM     19  C   UNL     1      -1.206   2.941   0.570  0.00  0.00    +0.088 C 
BRANCH  19  20
ATOM     20  N   UNL     1      -1.563   1.530   0.403  0.00  0.00    -0.328 N 
ATOM     21  H   UNL     1      -2.496   1.265   0.380  0.00  0.00    +0.148 HD
BRANCH  20  22
ATOM     22  C   UNL     1      -0.595   0.600   0.282  0.00  0.00    +0.134 C 
ATOM     23  S   UNL     1       1.049   1.049   0.445  0.00  0.00    -0.019 S 
BRANCH  22  24
ATOM     24  N   UNL     1      -0.921  -0.683   0.028  0.00  0.00    -0.297 N 
ATOM     25  H   UNL     1      -1.854  -0.950  -0.003  0.00  0.00    +0.154 HD
BRANCH  24  26
ATOM     26  C   UNL     1       0.085  -1.631  -0.192  0.00  0.00    +0.033 A 
ATOM     27  C   UNL     1      -0.024  -2.526  -1.248  0.00  0.00    +0.025 A 
ATOM     28  C   UNL     1       0.971  -3.458  -1.468  0.00  0.00    +0.029 A 
ATOM     29  C   UNL     1       2.075  -3.506  -0.627  0.00  0.00    +0.065 A 
ATOM     30  C   UNL     1       2.182  -2.614   0.431  0.00  0.00    +0.029 A 
ATOM     31  C   UNL     1       1.190  -1.679   0.648  0.00  0.00    +0.025 A 
BRANCH  29  32
ATOM     32  N   UNL     1       3.084  -4.456  -0.848  0.00  0.00    -0.240 N 
ATOM     33  C   UNL     1       3.106  -5.378  -1.836  0.00  0.00    +0.114 A 
ATOM     34  C   UNL     1       4.244  -6.099  -1.701  0.00  0.00    +0.041 A 
ATOM     35  C   UNL     1       4.940  -5.601  -0.595  0.00  0.00    +0.135 A 
ATOM     36  N   UNL     1       4.249  -4.612  -0.086  0.00  0.00    -0.175 NA
ENDBRANCH  29  32
ENDBRANCH  24  26
ENDBRANCH  22  24
ENDBRANCH  20  22
ENDBRANCH  19  20
ENDBRANCH   7  19
TORSDOF 9
