REMARK  Name = ZINC67558136
REMARK  10 active torsions:
REMARK  status: ('A' for Active; 'I' for Inactive)
REMARK    1  A    between atoms: C_1  and  C_2
REMARK    2  A    between atoms: C_5  and  O_8
REMARK    3  A    between atoms: O_8  and  C_9
REMARK    4  A    between atoms: C_9  and  C_10
REMARK    5  A    between atoms: C_10  and  C_12
REMARK    6  A    between atoms: C_10  and  N_13
REMARK    7  A    between atoms: N_16  and  C_17
REMARK    8  A    between atoms: C_17  and  C_18
REMARK    9  A    between atoms: C_22  and  S_24
REMARK   10  A    between atoms: S_24  and  N_27
REMARK                            x       y       z     vdW  Elec       q    Type
REMARK                         _______ _______ _______ _____ _____    ______ ____
ROOT
ATOM      1  N   UNL     1       1.344  -6.688   0.389  0.00  0.00    -0.294 N 
ATOM      2  C   UNL     1       1.825  -7.937   0.544  0.00  0.00    +0.300 C 
ATOM      3  O   UNL     1       1.220  -8.742   1.225  0.00  0.00    -0.253 OA
ATOM      4  N   UNL     1       2.979  -8.294  -0.055  0.00  0.00    -0.295 N 
ATOM      5  H   UNL     1       1.827  -6.046  -0.154  0.00  0.00    +0.151 HD
ATOM      6  H   UNL     1       3.462  -7.652  -0.598  0.00  0.00    +0.151 HD
ENDROOT
BRANCH   1   7
ATOM      7  C   UNL     1       0.090  -6.300   1.040  0.00  0.00    +0.109 C 
ATOM      8  C   UNL     1      -1.091  -6.708   0.157  0.00  0.00    +0.031 C 
BRANCH   7   9
ATOM      9  C   UNL     1       0.072  -4.785   1.249  0.00  0.00    +0.251 C 
BRANCH   9  10
ATOM     10  O   UNL     1       0.057  -4.129  -0.021  0.00  0.00    -0.490 OA
BRANCH  10  15
ATOM     11  C   UNL     1      -0.018   1.503   0.010  0.00  0.00    +0.044 C 
ATOM     12  C   UNL     1       0.002  -0.004   0.002  0.00  0.00    -0.050 A 
ATOM     13  C   UNL     1       0.006  -0.688  -1.200  0.00  0.00    +0.007 A 
ATOM     14  C   UNL     1       0.024  -2.069  -1.210  0.00  0.00    +0.046 A 
ATOM     15  C   UNL     1       0.039  -2.770  -0.013  0.00  0.00    +0.121 A 
ATOM     16  C   UNL     1       0.036  -2.082   1.191  0.00  0.00    +0.046 A 
ATOM     17  C   UNL     1       0.023  -0.701   1.196  0.00  0.00    +0.007 A 
ENDBRANCH  10  15
ENDBRANCH   9  10
ENDBRANCH   7   9
ENDBRANCH   1   7
BRANCH   4  18
ATOM     18  C   UNL     1       3.502  -9.652   0.114  0.00  0.00    +0.141 C 
BRANCH  18  19
ATOM     19  C   UNL     1       4.793  -9.792  -0.652  0.00  0.00    -0.028 A 
ATOM     20  C   UNL     1       4.772 -10.206  -1.971  0.00  0.00    +0.005 A 
ATOM     21  C   UNL     1       5.955 -10.335  -2.673  0.00  0.00    +0.002 A 
ATOM     22  C   UNL     1       7.160 -10.048  -2.058  0.00  0.00    +0.028 A 
ATOM     23  C   UNL     1       7.180  -9.632  -0.739  0.00  0.00    +0.105 A 
ATOM     24  C   UNL     1       5.996  -9.500  -0.038  0.00  0.00    +0.033 A 
BRANCH  23  25
ATOM     25  S   UNL     1       8.715  -9.267   0.046  0.00  0.00    +0.056 S 
ATOM     26  O   UNL     1       8.504  -9.424   1.442  0.00  0.00    -0.153 OA
ATOM     27  O   UNL     1       9.714  -9.990  -0.660  0.00  0.00    -0.153 OA
BRANCH  25  28
ATOM     28  N   UNL     1       9.025  -7.660  -0.209  0.00  0.00    -0.204 NA
ATOM     29  H   UNL     1       8.398  -7.120  -0.715  0.00  0.00    +0.144 HD
ATOM     30  H   UNL     1       9.833  -7.260   0.148  0.00  0.00    +0.144 HD
ENDBRANCH  25  28
ENDBRANCH  23  25
ENDBRANCH  18  19
ENDBRANCH   4  18
TORSDOF 8
