REMARK  Name = ZINC00663791
REMARK  7 active torsions:
REMARK  status: ('A' for Active; 'I' for Inactive)
REMARK    1  A    between atoms: C_1  and  C_2
REMARK    2  A    between atoms: C_5  and  S_8
REMARK    3  A    between atoms: S_8  and  C_9
REMARK    4  A    between atoms: C_9  and  C_10
REMARK    5  A    between atoms: C_17  and  N_30
REMARK    6  A    between atoms: C_18  and  C_28
REMARK    7  A    between atoms: C_19  and  C_21
REMARK                            x       y       z     vdW  Elec       q    Type
REMARK                         _______ _______ _______ _____ _____    ______ ____
ROOT
ATOM      1  C   UNL     1       0.112  -6.626   1.820  0.00  0.00    +0.080 A 
ATOM      2  C   UNL     1      -1.036  -7.380   2.026  0.00  0.00    +0.046 A 
ATOM      3  C   UNL     1      -0.668  -8.693   2.126  0.00  0.00    +0.222 A 
ATOM      4  N   UNL     1       0.665  -8.753   1.986  0.00  0.00    -0.246 N 
ATOM      5  H   UNL     1       1.207  -9.557   2.012  0.00  0.00    +0.192 HD
ATOM      6  N   UNL     1       1.137  -7.445   1.790  0.00  0.00    -0.175 NA
ATOM      7  O   UNL     1      -1.564  -9.690   2.333  0.00  0.00    -0.423 OA
ATOM      8  C   UNL     1      -2.810  -9.341   2.714  0.00  0.00    +0.200 C 
ATOM      9  C   UNL     1      -3.291  -8.080   2.649  0.00  0.00    +0.094 C 
ATOM     10  C   UNL     1      -2.469  -6.926   2.132  0.00  0.00    +0.078 C 
ENDROOT
BRANCH  10  11
ATOM     11  C   UNL     1      -2.980  -6.504   0.753  0.00  0.00    +0.024 C 
ATOM     12  C   UNL     1      -4.370  -5.880   0.897  0.00  0.00    +0.009 C 
ATOM     13  C   UNL     1      -4.970  -5.704  -0.504  0.00  0.00    +0.005 C 
ATOM     14  C   UNL     1      -5.240  -7.090  -1.092  0.00  0.00    +0.027 C 
ATOM     15  C   UNL     1      -4.024  -7.958  -0.949  0.00  0.00    -0.031 C 
ATOM     16  C   UNL     1      -3.047  -7.706  -0.142  0.00  0.00    -0.027 C 
ENDBRANCH  10  11
BRANCH   8  17
ATOM     17  N   UNL     1      -3.638 -10.325   3.196  0.00  0.00    -0.328 N 
ATOM     18  H   UNL     1      -3.321 -11.240   3.254  0.00  0.00    +0.145 HD
ATOM     19  H   UNL     1      -4.539 -10.105   3.478  0.00  0.00    +0.145 HD
ENDBRANCH   8  17
BRANCH   9  20
ATOM     20  C   UNL     1      -4.632  -7.830   3.087  0.00  0.00    +0.100 C 
ATOM     21  N   UNL     1      -5.695  -7.632   3.434  0.00  0.00    -0.191 NA
ENDBRANCH   9  20
BRANCH   1  22
ATOM     22  C   UNL     1       0.170  -5.130   1.655  0.00  0.00    +0.132 C 
BRANCH  22  23
ATOM     23  S   UNL     1       0.169  -4.716  -0.112  0.00  0.00    -0.119 S 
BRANCH  23  28
ATOM     24  C   UNL     1       0.406   1.315  -0.200  0.00  0.00    +0.044 C 
ATOM     25  C   UNL     1       0.347  -0.191  -0.178  0.00  0.00    -0.050 A 
ATOM     26  C   UNL     1       0.308  -0.897  -1.367  0.00  0.00    +0.004 A 
ATOM     27  C   UNL     1       0.253  -2.277  -1.350  0.00  0.00    +0.015 A 
ATOM     28  C   UNL     1       0.239  -2.956  -0.138  0.00  0.00    +0.008 A 
ATOM     29  C   UNL     1       0.279  -2.243   1.055  0.00  0.00    +0.015 A 
ATOM     30  C   UNL     1       0.339  -0.863   1.030  0.00  0.00    +0.004 A 
ENDBRANCH  23  28
ENDBRANCH  22  23
ENDBRANCH   1  22
TORSDOF 6
