REMARK  Name = ZINC09066423
REMARK  11 active torsions:
REMARK  status: ('A' for Active; 'I' for Inactive)
REMARK    1  A    between atoms: C_1  and  C_2
REMARK    2  A    between atoms: C_2  and  C_3
REMARK    3  A    between atoms: C_3  and  C_5
REMARK    4  A    between atoms: C_3  and  N_6
REMARK    5  A    between atoms: C_9  and  C_15
REMARK    6  A    between atoms: C_10  and  O_14
REMARK    7  A    between atoms: C_12  and  S_13
REMARK    8  A    between atoms: C_19  and  O_27
REMARK    9  A    between atoms: C_20  and  O_25
REMARK   10  A    between atoms: O_25  and  C_26
REMARK   11  A    between atoms: O_27  and  C_28
REMARK                            x       y       z     vdW  Elec       q    Type
REMARK                         _______ _______ _______ _____ _____    ______ ____
ROOT
ATOM      1  C   UNL     1       1.469   0.118   5.943  0.00  0.00    +0.001 C 
ATOM      2  C   UNL     1       1.100   0.539   4.544  0.00  0.00    -0.050 A 
ATOM      3  C   UNL     1       0.006   1.376   4.376  0.00  0.00    +0.052 A 
ATOM      4  C   UNL     1      -0.370   1.790   3.111  0.00  0.00    +0.162 A 
ATOM      5  C   UNL     1       0.348   1.355   2.000  0.00  0.00    +0.162 A 
ATOM      6  C   UNL     1       1.439   0.522   2.173  0.00  0.00    +0.053 A 
ATOM      7  C   UNL     1       1.816   0.116   3.445  0.00  0.00    -0.044 A 
ATOM      8  C   UNL     1       3.019  -0.783   3.583  0.00  0.00    +0.016 C 
ATOM      9  C   UNL     1       3.024  -1.440   4.963  0.00  0.00    -0.077 C 
ATOM     10  N   UNL     1       2.847  -0.391   5.983  0.00  0.00    +0.387 N 
ATOM     11  H   UNL     1       3.037  -0.784   6.913  0.00  0.00    -0.085 HD
ATOM     12  H   UNL     1       3.500   0.379   5.797  0.00  0.00    -0.085 HD
ENDROOT
BRANCH   1  16
ATOM     13  N   UNL     1       2.065   3.453   7.559  0.00  0.00    -0.285 N 
ATOM     14  C   UNL     1       2.198   2.410   6.713  0.00  0.00    +0.260 A 
ATOM     15  O   UNL     1       3.040   2.432   5.829  0.00  0.00    -0.267 OA
ATOM     16  C   UNL     1       1.355   1.304   6.866  0.00  0.00    +0.069 A 
ATOM     17  C   UNL     1       0.409   1.321   7.878  0.00  0.00    +0.222 A 
ATOM     18  N   UNL     1       0.326   2.378   8.690  0.00  0.00    -0.189 NA
ATOM     19  C   UNL     1       1.122   3.418   8.542  0.00  0.00    +0.172 A 
BRANCH  13  20
ATOM     20  C   UNL     1       2.934   4.624   7.421  0.00  0.00    +0.089 C 
ATOM     21  C   UNL     1       2.727   5.253   6.042  0.00  0.00    +0.031 C 
BRANCH  20  23
ATOM     22  C   UNL     1       4.629   3.672   8.991  0.00  0.00    +0.006 C 
ATOM     23  C   UNL     1       4.395   4.195   7.572  0.00  0.00    +0.021 C 
ENDBRANCH  20  23
ENDBRANCH  13  20
BRANCH  19  24
ATOM     24  S   UNL     1       0.964   4.790   9.636  0.00  0.00    -0.105 S 
ATOM     25  H   UNL     1      -0.090   4.331  10.453  0.00  0.00    +0.110 HD
ENDBRANCH  19  24
BRANCH  17  26
ATOM     26  O   UNL     1      -0.424   0.268   8.047  0.00  0.00    -0.492 OA
ATOM     27  H   UNL     1      -1.048   0.373   8.778  0.00  0.00    +0.294 HD
ENDBRANCH  17  26
ENDBRANCH   1  16
BRANCH   5  28
ATOM     28  O   UNL     1      -0.018   1.751   0.752  0.00  0.00    -0.491 OA
ATOM     29  C   UNL     1       0.769   1.269  -0.339  0.00  0.00    +0.277 C 
ENDBRANCH   5  28
BRANCH   4  30
ATOM     30  O   UNL     1      -1.439   2.615   2.952  0.00  0.00    -0.491 OA
ATOM     31  C   UNL     1      -2.127   3.021   4.137  0.00  0.00    +0.277 C 
ENDBRANCH   4  30
TORSDOF 7
