REMARK  Name = ZINC32534229
REMARK  7 active torsions:
REMARK  status: ('A' for Active; 'I' for Inactive)
REMARK    1  A    between atoms: C_1  and  C_2
REMARK    2  A    between atoms: C_3  and  C_28
REMARK    3  A    between atoms: C_7  and  N_17
REMARK    4  A    between atoms: C_9  and  C_11
REMARK    5  A    between atoms: C_11  and  N_12
REMARK    6  A    between atoms: N_17  and  C_18
REMARK    7  A    between atoms: C_18  and  C_19
REMARK                            x       y       z     vdW  Elec       q    Type
REMARK                         _______ _______ _______ _____ _____    ______ ____
ROOT
ATOM      1  C   UNL     1       3.811   1.121  -0.039  0.00  0.00    +0.045 C 
ATOM      2  C   UNL     1       2.311   1.263  -0.024  0.00  0.00    -0.028 A 
ATOM      3  C   UNL     1       1.737   2.435  -0.333  0.00  0.00    -0.008 A 
ATOM      4  S   UNL     1      -0.006   2.100  -0.173  0.00  0.00    -0.074 S 
ATOM      5  C   UNL     1       0.082   0.395   0.305  0.00  0.00    +0.114 A 
ATOM      6  C   UNL     1       1.470   0.132   0.327  0.00  0.00    +0.051 A 
ATOM      7  C   UNL     1       1.833  -1.195   0.687  0.00  0.00    +0.131 A 
ATOM      8  N   UNL     1       0.882  -2.070   0.969  0.00  0.00    -0.219 NA
ATOM      9  C   UNL     1      -0.400  -1.753   0.929  0.00  0.00    +0.116 A 
ATOM     10  N   UNL     1      -0.799  -0.539   0.601  0.00  0.00    -0.227 NA
ATOM     11  C   UNL     1       2.407   3.728  -0.722  0.00  0.00    +0.052 C 
ENDROOT
BRANCH   7  12
ATOM     12  N   UNL     1       3.164  -1.566   0.742  0.00  0.00    -0.321 N 
ATOM     13  H   UNL     1       3.945  -0.866   0.408  0.00  0.00    +0.148 HD
BRANCH  12  14
ATOM     14  C   UNL     1       3.535  -2.891   1.244  0.00  0.00    +0.179 C 
BRANCH  14  15
ATOM     15  C   UNL     1       5.034  -3.044   1.200  0.00  0.00    +0.155 A 
ATOM     16  N   UNL     1       5.871  -2.733   2.155  0.00  0.00    -0.132 NA
ATOM     17  N   UNL     1       7.079  -2.989   1.792  0.00  0.00    -0.129 NA
ATOM     18  C   UNL     1       7.074  -3.484   0.565  0.00  0.00    +0.161 A 
ATOM     19  N   UNL     1       5.763  -3.535   0.161  0.00  0.00    -0.285 N 
ATOM     20  C   UNL     1       5.439  -4.002  -1.079  0.00  0.00    +0.094 A 
ATOM     21  C   UNL     1       6.401  -4.430  -1.923  0.00  0.00    +0.018 A 
ATOM     22  C   UNL     1       7.751  -4.396  -1.536  0.00  0.00    +0.005 A 
ATOM     23  C   UNL     1       8.089  -3.928  -0.305  0.00  0.00    +0.048 A 
ENDBRANCH  14  15
ENDBRANCH  12  14
ENDBRANCH   7  12
BRANCH   9  24
ATOM     24  C   UNL     1      -1.429  -2.802   1.263  0.00  0.00    -0.001 C 
BRANCH  24  25
ATOM     25  N   UNL     1      -1.814  -3.519   0.039  0.00  0.00    +0.384 N 
ATOM     26  C   UNL     1      -0.617  -4.034  -0.674  0.00  0.00    -0.078 C 
ATOM     27  C   UNL     1      -1.196  -5.154  -1.575  0.00  0.00    -0.020 C 
ATOM     28  C   UNL     1      -2.284  -5.790  -0.679  0.00  0.00    -0.020 C 
ATOM     29  C   UNL     1      -2.637  -4.706   0.357  0.00  0.00    -0.078 C 
ATOM     30  H   UNL     1      -2.372  -2.792  -0.570  0.00  0.00    -0.081 HD
ENDBRANCH  24  25
ENDBRANCH   9  24
TORSDOF 5
