REMARK  Name = ZINC39450024
REMARK  5 active torsions:
REMARK  status: ('A' for Active; 'I' for Inactive)
REMARK    1  A    between atoms: C_1  and  S_2
REMARK    2  A    between atoms: S_2  and  C_3
REMARK    3  A    between atoms: C_13  and  S_16
REMARK    4  A    between atoms: S_16  and  O_19
REMARK    5  A    between atoms: O_19  and  C_20
REMARK                            x       y       z     vdW  Elec       q    Type
REMARK                         _______ _______ _______ _____ _____    ______ ____
ROOT
ATOM      1  C   UNL     1       0.902  -0.439   1.516  0.00  0.00    +0.136 C 
ATOM      2  C   UNL     1       0.176  -1.578   2.240  0.00  0.00    +0.114 C 
ATOM      3  C   UNL     1       0.289  -2.840   1.424  0.00  0.00    +0.185 C 
ATOM      4  O   UNL     1      -0.593  -3.673   1.481  0.00  0.00    -0.290 OA
ATOM      5  C   UNL     1       1.411  -3.063   0.593  0.00  0.00    +0.127 A 
ATOM      6  C   UNL     1       2.387  -2.091   0.481  0.00  0.00    +0.083 A 
ATOM      7  C   UNL     1       3.556  -2.326  -0.377  0.00  0.00    +0.099 A 
ATOM      8  C   UNL     1       3.636  -3.550  -1.074  0.00  0.00    +0.070 A 
ATOM      9  C   UNL     1       4.737  -3.796  -1.896  0.00  0.00    +0.047 A 
ATOM     10  C   UNL     1       5.710  -2.816  -1.989  0.00  0.00    +0.147 A 
ATOM     11  C   UNL     1       5.564  -1.636  -1.274  0.00  0.00    +0.142 A 
ATOM     12  N   UNL     1       4.519  -1.421  -0.504  0.00  0.00    -0.251 NA
ATOM     13  C   UNL     1       2.554  -4.532  -0.912  0.00  0.00    +0.276 A 
ATOM     14  O   UNL     1       2.602  -5.594  -1.506  0.00  0.00    -0.266 OA
ATOM     15  N   UNL     1       1.511  -4.258  -0.108  0.00  0.00    -0.213 N 
ATOM     16 CL   UNL     1       0.268  -5.420   0.058  0.00  0.00    +0.022 Cl
ATOM     17  N   UNL     1       2.256  -0.900   1.172  0.00  0.00    -0.328 N 
ATOM     18  H   UNL     1       3.037  -0.382   1.424  0.00  0.00    +0.147 HD
ENDROOT
BRANCH  10  19
ATOM     19  S   UNL     1       7.124  -3.065  -3.009  0.00  0.00    +0.152 S 
ATOM     20  O   UNL     1       8.149  -2.225  -2.496  0.00  0.00    -0.131 OA
ATOM     21  O   UNL     1       7.287  -4.471  -3.142  0.00  0.00    -0.131 OA
BRANCH  19  22
ATOM     22  O   UNL     1       6.780  -2.535  -4.394  0.00  0.00    -0.342 OA
BRANCH  22  23
ATOM     23  C   UNL     1       6.777  -1.179  -4.481  0.00  0.00    +0.157 A 
ATOM     24  C   UNL     1       5.613  -0.469  -4.224  0.00  0.00    +0.048 A 
ATOM     25  C   UNL     1       5.613   0.910  -4.314  0.00  0.00    +0.004 A 
ATOM     26  C   UNL     1       6.771   1.582  -4.659  0.00  0.00    +0.000 A 
ATOM     27  C   UNL     1       7.932   0.876  -4.915  0.00  0.00    +0.004 A 
ATOM     28  C   UNL     1       7.939  -0.502  -4.822  0.00  0.00    +0.048 A 
ENDBRANCH  22  23
ENDBRANCH  19  22
ENDBRANCH  10  19
BRANCH   1  30
ATOM     29  C   UNL     1      -0.022   1.810   0.012  0.00  0.00    +0.086 C 
ATOM     30  S   UNL     1       0.002  -0.004   0.002  0.00  0.00    -0.142 S 
ENDBRANCH   1  30
TORSDOF 4
