REMARK  Name = ZINC23196296
REMARK  7 active torsions:
REMARK  status: ('A' for Active; 'I' for Inactive)
REMARK    1  A    between atoms: C_1  and  C_2
REMARK    2  A    between atoms: C_2  and  C_4
REMARK    3  A    between atoms: C_2  and  N_10
REMARK    4  A    between atoms: C_11  and  C_13
REMARK    5  A    between atoms: C_16  and  N_19
REMARK    6  A    between atoms: N_19  and  S_20
REMARK    7  A    between atoms: S_20  and  C_23
REMARK                            x       y       z     vdW  Elec       q    Type
REMARK                         _______ _______ _______ _____ _____    ______ ____
ROOT
ATOM      1  C   UNL     1      -1.561   5.254   1.465  0.00  0.00    +0.037 A 
ATOM      2  C   UNL     1      -0.675   6.122   0.821  0.00  0.00    +0.015 A 
ATOM      3  C   UNL     1      -0.904   7.479   0.843  0.00  0.00    +0.025 A 
ATOM      4  C   UNL     1      -2.012   7.988   1.515  0.00  0.00    +0.048 A 
ATOM      5  C   UNL     1      -2.894   7.127   2.162  0.00  0.00    +0.025 A 
ATOM      6  C   UNL     1      -2.673   5.769   2.139  0.00  0.00    +0.015 A 
ENDROOT
BRANCH   1   8
ATOM      7  N   UNL     1      -0.249   3.304   0.789  0.00  0.00    -0.306 N 
ATOM      8  C   UNL     1      -1.321   3.799   1.439  0.00  0.00    +0.244 C 
ATOM      9  O   UNL     1      -2.091   3.046   2.003  0.00  0.00    -0.270 OA
ATOM     10  H   UNL     1       0.447   3.986   0.278  0.00  0.00    +0.149 HD
BRANCH   7  12
ATOM     11  C   UNL     1       0.747   1.444   2.026  0.00  0.00    +0.030 C 
ATOM     12  C   UNL     1      -0.011   1.859   0.763  0.00  0.00    +0.099 C 
BRANCH  12  13
ATOM     13  C   UNL     1       0.820   1.502  -0.471  0.00  0.00    +0.138 C 
ATOM     14  C   UNL     1       0.149   2.056  -1.753  0.00  0.00    +0.035 C 
ATOM     15  C   UNL     1       1.374   2.172  -2.700  0.00  0.00    +0.031 C 
ATOM     16  C   UNL     1       2.509   2.550  -1.724  0.00  0.00    +0.160 C 
ATOM     17  O   UNL     1       2.103   2.144  -0.411  0.00  0.00    -0.375 OA
ENDBRANCH  12  13
ENDBRANCH   7  12
ENDBRANCH   1   8
BRANCH   4  18
ATOM     18  N   UNL     1      -2.239   9.360   1.539  0.00  0.00    -0.216 N 
ATOM     19  H   UNL     1      -2.618   9.870   0.642  0.00  0.00    +0.174 HD
BRANCH  18  20
ATOM     20  S   UNL     1      -1.938  10.224   2.919  0.00  0.00    +0.072 S 
ATOM     21  O   UNL     1      -2.210  11.585   2.613  0.00  0.00    -0.150 OA
ATOM     22  O   UNL     1      -2.588   9.537   3.979  0.00  0.00    -0.150 OA
BRANCH  20  23
ATOM     23  C   UNL     1      -0.207  10.115   3.234  0.00  0.00    +0.112 A 
ATOM     24  C   UNL     1       0.294   9.056   3.968  0.00  0.00    +0.032 A 
ATOM     25  C   UNL     1       1.652   8.961   4.215  0.00  0.00    +0.051 A 
ATOM     26  C   UNL     1       2.507   9.938   3.734  0.00  0.00    +0.162 A 
ATOM     27  C   UNL     1       2.003  11.004   3.002  0.00  0.00    +0.164 A 
ATOM     28  C   UNL     1       0.644  11.093   2.752  0.00  0.00    +0.078 A 
ATOM     29  O   UNL     1       2.854  11.961   2.531  0.00  0.00    -0.488 OA
ATOM     30  C   UNL     1       3.467  12.793   3.519  0.00  0.00    +0.232 C 
ATOM     31  C   UNL     1       4.710  12.126   4.089  0.00  0.00    +0.082 C 
ATOM     32  C   UNL     1       4.385  10.851   4.852  0.00  0.00    +0.232 C 
ATOM     33  O   UNL     1       3.848   9.859   3.974  0.00  0.00    -0.488 OA
ENDBRANCH  20  23
ENDBRANCH  18  20
ENDBRANCH   4  18
TORSDOF 6
