REMARK  Name = ZINC40110508
REMARK  13 active torsions:
REMARK  status: ('A' for Active; 'I' for Inactive)
REMARK    1  A    between atoms: C_1  and  N_2
REMARK    2  A    between atoms: N_2  and  C_3
REMARK    3  A    between atoms: N_2  and  S_4
REMARK    4  A    between atoms: S_4  and  C_7
REMARK    5  A    between atoms: C_10  and  C_13
REMARK    6  A    between atoms: C_13  and  C_15
REMARK    7  A    between atoms: N_19  and  C_32
REMARK    8  A    between atoms: C_20  and  C_22
REMARK    9  A    between atoms: C_32  and  C_33
REMARK   10  A    between atoms: C_33  and  O_34
REMARK   11  A    between atoms: O_34  and  C_35
REMARK   12  A    between atoms: C_35  and  C_36
REMARK   13  A    between atoms: C_36  and  O_37
REMARK                            x       y       z     vdW  Elec       q    Type
REMARK                         _______ _______ _______ _____ _____    ______ ____
ROOT
ATOM      1  C   UNL     1       6.485  -2.856  -2.624  0.00  0.00    +0.076 C 
ATOM      2  C   UNL     1       7.795  -3.151  -2.797  0.00  0.00    +0.249 C 
ATOM      3  C   UNL     1       8.084  -4.461  -2.175  0.00  0.00    +0.288 C 
ATOM      4  O   UNL     1       9.172  -5.002  -2.161  0.00  0.00    -0.266 OA
ATOM      5  N   UNL     1       6.964  -4.966  -1.627  0.00  0.00    -0.281 N 
ATOM      6  C   UNL     1       5.877  -4.006  -1.855  0.00  0.00    +0.145 C 
ATOM      7  O   UNL     1       8.697  -2.372  -3.437  0.00  0.00    -0.282 OA
ENDROOT
BRANCH   6   8
ATOM      8  C   UNL     1       4.783  -4.650  -2.666  0.00  0.00    -0.015 A 
ATOM      9  C   UNL     1       5.064  -5.705  -3.479  0.00  0.00    +0.006 A 
ATOM     10  C   UNL     1       4.065  -6.314  -4.236  0.00  0.00    +0.001 A 
ATOM     11  C   UNL     1       2.779  -5.871  -4.185  0.00  0.00    +0.008 A 
ATOM     12  C   UNL     1       2.450  -4.785  -3.357  0.00  0.00    -0.018 A 
ATOM     13  C   UNL     1       3.465  -4.169  -2.582  0.00  0.00    -0.013 A 
ATOM     14  C   UNL     1       3.135  -3.086  -1.750  0.00  0.00    +0.009 A 
ATOM     15  C   UNL     1       1.848  -2.648  -1.694  0.00  0.00    +0.001 A 
ATOM     16  C   UNL     1       0.849  -3.257  -2.451  0.00  0.00    +0.001 A 
ATOM     17  C   UNL     1       1.133  -4.299  -3.279  0.00  0.00    +0.008 A 
ENDBRANCH   6   8
BRANCH   1  18
ATOM     18  C   UNL     1       5.792  -1.651  -3.089  0.00  0.00    +0.195 C 
ATOM     19  O   UNL     1       5.521  -0.764  -2.302  0.00  0.00    -0.287 OA
BRANCH  18  23
ATOM     20  C   UNL     1       4.729  -1.258  -7.183  0.00  0.00    +0.105 A 
ATOM     21  C   UNL     1       4.508  -0.207  -6.310  0.00  0.00    +0.029 A 
ATOM     22  C   UNL     1       4.851  -0.328  -4.979  0.00  0.00    +0.013 A 
ATOM     23  C   UNL     1       5.421  -1.514  -4.514  0.00  0.00    +0.022 A 
ATOM     24  C   UNL     1       5.642  -2.571  -5.400  0.00  0.00    +0.013 A 
ATOM     25  C   UNL     1       5.289  -2.438  -6.727  0.00  0.00    +0.029 A 
BRANCH  20  26
ATOM     26  S   UNL     1       4.288  -1.094  -8.881  0.00  0.00    +0.060 S 
ATOM     27  O   UNL     1       5.171  -1.933  -9.612  0.00  0.00    -0.153 OA
ATOM     28  O   UNL     1       4.172   0.298  -9.138  0.00  0.00    -0.153 OA
BRANCH  26  30
ATOM     29  C   UNL     1       1.592  -0.883  -8.894  0.00  0.00    +0.131 C 
ATOM     30  N   UNL     1       2.772  -1.736  -9.057  0.00  0.00    -0.183 NA
ATOM     31  C   UNL     1       2.610  -3.156  -9.377  0.00  0.00    +0.131 C 
ENDBRANCH  26  30
ENDBRANCH  20  26
ENDBRANCH  18  23
ENDBRANCH   1  18
BRANCH   5  32
ATOM     32  C   UNL     1       6.850  -6.244  -0.921  0.00  0.00    +0.137 C 
BRANCH  32  33
ATOM     33  C   UNL     1       7.122  -6.030   0.570  0.00  0.00    +0.179 C 
BRANCH  33  34
ATOM     34  O   UNL     1       6.101  -5.199   1.125  0.00  0.00    -0.376 OA
BRANCH  34  35
ATOM     35  C   UNL     1       6.261  -4.936   2.521  0.00  0.00    +0.187 C 
BRANCH  35  36
ATOM     36  C   UNL     1       5.118  -4.042   3.006  0.00  0.00    +0.184 C 
BRANCH  36  37
ATOM     37  O   UNL     1       3.881  -4.749   2.895  0.00  0.00    -0.393 OA
ATOM     38  H   UNL     1       3.111  -4.241   3.186  0.00  0.00    +0.209 HD
ENDBRANCH  36  37
ENDBRANCH  35  36
ENDBRANCH  34  35
ENDBRANCH  33  34
ENDBRANCH  32  33
ENDBRANCH   5  32
TORSDOF 11
