REMARK  Name = ZINC66925054
REMARK  4 active torsions:
REMARK  status: ('A' for Active; 'I' for Inactive)
REMARK    1  A    between atoms: C_4  and  C_7
REMARK    2  A    between atoms: C_7  and  C_8
REMARK    3  A    between atoms: N_10  and  C_11
REMARK    4  A    between atoms: N_19  and  C_20
REMARK                            x       y       z     vdW  Elec       q    Type
REMARK                         _______ _______ _______ _____ _____    ______ ____
ROOT
ATOM      1  C   UNL     1       3.729  -4.079  -3.432  0.00  0.00    +0.076 C 
ATOM      2  C   UNL     1       4.976  -4.461  -2.631  0.00  0.00    +0.041 C 
ATOM      3  C   UNL     1       5.083  -5.987  -2.556  0.00  0.00    +0.111 C 
ATOM      4  N   UNL     1       5.052  -6.531  -3.921  0.00  0.00    -0.286 N 
ATOM      5  C   UNL     1       3.942  -6.154  -4.807  0.00  0.00    +0.111 C 
ATOM      6  C   UNL     1       3.848  -4.625  -4.857  0.00  0.00    +0.041 C 
ATOM      7  C   UNL     1       6.023  -7.360  -4.352  0.00  0.00    +0.302 C 
ATOM      8  O   UNL     1       6.985  -7.589  -3.644  0.00  0.00    -0.253 OA
ATOM      9  N   UNL     1       5.928  -7.935  -5.567  0.00  0.00    -0.296 N 
ATOM     10  H   UNL     1       5.199  -7.697  -6.161  0.00  0.00    +0.151 HD
ENDROOT
BRANCH   9  11
ATOM     11  C   UNL     1       6.927  -8.919  -5.992  0.00  0.00    +0.079 C 
ATOM     12  C   UNL     1       8.132  -8.196  -6.602  0.00  0.00    +0.050 C 
ATOM     13  C   UNL     1       9.134  -9.233  -7.114  0.00  0.00    +0.161 C 
ATOM     14  O   UNL     1       8.493 -10.084  -8.067  0.00  0.00    -0.380 OA
ATOM     15  C   UNL     1       7.388 -10.821  -7.540  0.00  0.00    +0.161 C 
ATOM     16  C   UNL     1       6.316  -9.847  -7.046  0.00  0.00    +0.050 C 
ENDBRANCH   9  11
BRANCH   1  19
ATOM     17  C   UNL     1       3.003  -1.962  -2.468  0.00  0.00    +0.214 C 
ATOM     18  O   UNL     1       2.562  -2.579  -1.521  0.00  0.00    -0.276 OA
ATOM     19  N   UNL     1       3.606  -2.620  -3.478  0.00  0.00    -0.312 N 
ATOM     20  H   UNL     1       3.959  -2.127  -4.235  0.00  0.00    +0.149 HD
BRANCH  17  21
ATOM     21  C   UNL     1       2.876  -0.461  -2.515  0.00  0.00    +0.099 C 
BRANCH  21  25
ATOM     22  C   UNL     1      -0.016   1.523   0.020  0.00  0.00    +0.000 C 
ATOM     23  C   UNL     1       1.421   2.050   0.014  0.00  0.00    +0.000 C 
ATOM     24  C   UNL     1       2.139   1.559  -1.244  0.00  0.00    +0.004 C 
ATOM     25  C   UNL     1       2.158   0.030  -1.257  0.00  0.00    -0.002 C 
ATOM     26  C   UNL     1       0.721  -0.498  -1.251  0.00  0.00    +0.004 C 
ATOM     27  C   UNL     1       0.003  -0.007   0.007  0.00  0.00    +0.000 C 
ENDBRANCH  21  25
ENDBRANCH  17  21
ENDBRANCH   1  19
TORSDOF 4
