REMARK  Name = ZINC02273125
REMARK  4 active torsions:
REMARK  status: ('A' for Active; 'I' for Inactive)
REMARK    1  A    between atoms: C_1  and  C_2
REMARK    2  A    between atoms: C_5  and  C_9
REMARK    3  A    between atoms: C_12  and  C_14
REMARK    4  A    between atoms: C_25  and  N_48
REMARK                            x       y       z     vdW  Elec       q    Type
REMARK                         _______ _______ _______ _____ _____    ______ ____
ROOT
ATOM      1  C   UNL     1       1.171   3.381  -0.152  0.00  0.00    +0.227 C 
ATOM      2  N   UNL     1      -0.032   4.017   0.415  0.00  0.00    -0.314 N 
ATOM      3  C   UNL     1      -1.218   3.353   0.237  0.00  0.00    +0.080 A 
ATOM      4  C   UNL     1      -1.289   1.967   0.019  0.00  0.00    +0.068 A 
ATOM      5  C   UNL     1      -2.624   1.424  -0.154  0.00  0.00    -0.027 A 
ATOM      6  C   UNL     1      -3.636   2.320  -0.089  0.00  0.00    -0.021 A 
ATOM      7  S   UNL     1      -2.847   3.879   0.206  0.00  0.00    -0.080 S 
ATOM      8  C   UNL     1      -5.095   2.026  -0.239  0.00  0.00    -0.036 C 
ATOM      9  C   UNL     1      -4.407  -0.292  -0.096  0.00  0.00    -0.074 C 
ATOM     10  C   UNL     1      -2.926  -0.050  -0.402  0.00  0.00    +0.018 C 
ATOM     11  C   UNL     1      -6.646   0.259  -0.839  0.00  0.00    -0.096 C 
ATOM     12  C   UNL     1      -0.014   1.213   0.009  0.00  0.00    +0.248 C 
ATOM     13  O   UNL     1       0.002  -0.004   0.002  0.00  0.00    -0.270 OA
ATOM     14  N   UNL     1       1.128   1.931   0.002  0.00  0.00    -0.287 N 
ATOM     15  H   UNL     1       0.013   4.862   0.890  0.00  0.00    +0.149 HD
ATOM     16  H   UNL     1       1.968   1.457   0.104  0.00  0.00    +0.151 HD
ATOM     17  N   UNL     1      -5.228   0.680  -0.847  0.00  0.00    +0.381 N 
ATOM     18  H   UNL     1      -4.896   0.718  -1.818  0.00  0.00    -0.082 HD
ENDROOT
BRANCH   1  22
ATOM     19  C   UNL     1       1.037   4.796  -3.518  0.00  0.00    +0.135 A 
ATOM     20  C   UNL     1       1.705   3.644  -3.789  0.00  0.00    +0.050 A 
ATOM     21  C   UNL     1       1.850   2.961  -2.564  0.00  0.00    +0.049 A 
ATOM     22  C   UNL     1       1.262   3.719  -1.618  0.00  0.00    +0.144 A 
ATOM     23  O   UNL     1       0.774   4.829  -2.198  0.00  0.00    -0.456 OA
BRANCH  19  28
ATOM     24  C   UNL     1      -0.419   8.837  -7.349  0.00  0.00    +0.045 C 
ATOM     25  C   UNL     1      -0.038   7.779  -6.346  0.00  0.00    -0.032 A 
ATOM     26  C   UNL     1      -0.373   7.940  -5.013  0.00  0.00    +0.005 A 
ATOM     27  C   UNL     1      -0.027   6.975  -4.090  0.00  0.00    +0.012 A 
ATOM     28  C   UNL     1       0.663   5.834  -4.502  0.00  0.00    +0.019 A 
ATOM     29  C   UNL     1       1.003   5.679  -5.847  0.00  0.00    +0.031 A 
ATOM     30  C   UNL     1       0.646   6.649  -6.762  0.00  0.00    +0.045 A 
ATOM     31 CL   UNL     1       1.061   6.456  -8.437  0.00  0.00    -0.083 Cl
ENDBRANCH  19  28
ENDBRANCH   1  22
TORSDOF 2
