REMARK  Name = ZINC55142504
REMARK  10 active torsions:
REMARK  status: ('A' for Active; 'I' for Inactive)
REMARK    1  A    between atoms: C_1  and  C_2
REMARK    2  A    between atoms: C_3  and  C_19
REMARK    3  A    between atoms: C_4  and  C_12
REMARK    4  A    between atoms: C_6  and  C_10
REMARK    5  A    between atoms: C_7  and  N_9
REMARK    6  A    between atoms: C_19  and  O_21
REMARK    7  A    between atoms: O_21  and  C_22
REMARK    8  A    between atoms: C_22  and  C_23
REMARK    9  A    between atoms: C_22  and  C_24
REMARK   10  A    between atoms: C_22  and  C_25
REMARK                            x       y       z     vdW  Elec       q    Type
REMARK                         _______ _______ _______ _____ _____    ______ ____
ROOT
ATOM      1  C   UNL     1      -0.018   1.503   0.010  0.00  0.00    +0.087 C 
ATOM      2  C   UNL     1       0.002  -0.004   0.002  0.00  0.00    +0.115 C 
ATOM      3  C   UNL     1      -1.160  -0.670   0.004  0.00  0.00    +0.087 C 
ATOM      4  C   UNL     1      -1.196  -2.174  -0.004  0.00  0.00    +0.105 C 
ATOM      5  C   UNL     1       0.151  -2.721   0.381  0.00  0.00    +0.098 C 
ATOM      6  C   UNL     1       1.254  -1.933   0.357  0.00  0.00    +0.198 C 
ATOM      7  O   UNL     1       1.184  -0.639  -0.013  0.00  0.00    -0.445 OA
ENDROOT
BRANCH   4   8
ATOM      8  C   UNL     1      -1.555  -2.658  -1.385  0.00  0.00    -0.033 A 
ATOM      9  C   UNL     1      -0.746  -2.341  -2.461  0.00  0.00    +0.004 A 
ATOM     10  C   UNL     1      -1.075  -2.784  -3.728  0.00  0.00    +0.001 A 
ATOM     11  C   UNL     1      -2.212  -3.546  -3.921  0.00  0.00    +0.015 A 
ATOM     12  C   UNL     1      -3.021  -3.864  -2.845  0.00  0.00    +0.018 A 
ATOM     13  C   UNL     1      -2.689  -3.424  -1.576  0.00  0.00    +0.020 A 
ATOM     14 BR   UNL     1      -4.578  -4.905  -3.107  0.00  0.00    -0.050 Br
ENDBRANCH   4   8
BRANCH   6  15
ATOM     15  N   UNL     1       2.467  -2.465   0.715  0.00  0.00    -0.328 N 
ATOM     16  H   UNL     1       2.529  -3.396   0.980  0.00  0.00    +0.145 HD
ATOM     17  H   UNL     1       3.263  -1.911   0.702  0.00  0.00    +0.145 HD
ENDBRANCH   6  15
BRANCH   5  18
ATOM     18  C   UNL     1       0.271  -4.092   0.777  0.00  0.00    +0.101 C 
ATOM     19  N   UNL     1       0.365  -5.180   1.091  0.00  0.00    -0.191 NA
ENDBRANCH   5  18
BRANCH   3  20
ATOM     20  C   UNL     1      -2.377   0.055   0.015  0.00  0.00    +0.340 C 
ATOM     21  O   UNL     1      -2.361   1.271   0.022  0.00  0.00    -0.245 OA
BRANCH  20  22
ATOM     22  O   UNL     1      -3.554  -0.604   0.017  0.00  0.00    -0.456 OA
BRANCH  22  23
ATOM     23  C   UNL     1      -4.742   0.191   0.028  0.00  0.00    +0.106 C 
ATOM     24  C   UNL     1      -4.772   1.081  -1.216  0.00  0.00    +0.055 C 
ATOM     25  C   UNL     1      -5.968  -0.725   0.028  0.00  0.00    +0.055 C 
ATOM     26  C   UNL     1      -4.759   1.066   1.282  0.00  0.00    +0.055 C 
ENDBRANCH  22  23
ENDBRANCH  20  22
ENDBRANCH   3  20
TORSDOF 6
