REMARK  Name = ZINC13474011
REMARK  7 active torsions:
REMARK  status: ('A' for Active; 'I' for Inactive)
REMARK    1  A    between atoms: C_1  and  C_2
REMARK    2  A    between atoms: C_4  and  O_19
REMARK    3  A    between atoms: C_6  and  O_9
REMARK    4  A    between atoms: O_9  and  C_10
REMARK    5  A    between atoms: C_14  and  N_16
REMARK    6  A    between atoms: O_19  and  C_20
REMARK    7  A    between atoms: C_24  and  C_26
REMARK                            x       y       z     vdW  Elec       q    Type
REMARK                         _______ _______ _______ _____ _____    ______ ____
ROOT
ATOM      1  C   UNL     1       5.916   0.469  -0.126  0.00  0.00    +0.050 C 
ATOM      2  C   UNL     1       4.467   0.094  -0.304  0.00  0.00    +0.030 A 
ATOM      3  C   UNL     1       4.093  -0.869  -1.231  0.00  0.00    +0.191 A 
ATOM      4  C   UNL     1       2.748  -1.190  -1.369  0.00  0.00    +0.260 A 
ATOM      5  N   UNL     1       1.830  -0.589  -0.630  0.00  0.00    -0.172 NA
ATOM      6  C   UNL     1       2.152   0.334   0.262  0.00  0.00    +0.260 A 
ATOM      7  C   UNL     1       3.478   0.704   0.453  0.00  0.00    +0.191 A 
ATOM      8  F   UNL     1       3.800   1.647   1.365  0.00  0.00    -0.200 F 
ATOM      9  F   UNL     1       5.025  -1.487  -1.989  0.00  0.00    -0.200 F 
ENDROOT
BRANCH   6  10
ATOM     10  O   UNL     1       1.177   0.929   0.994  0.00  0.00    -0.436 OA
BRANCH  10  11
ATOM     11  C   UNL     1      -0.006   0.275   1.133  0.00  0.00    +0.133 A 
ATOM     12  C   UNL     1      -0.121  -1.047   0.726  0.00  0.00    +0.046 A 
ATOM     13  C   UNL     1      -1.325  -1.709   0.868  0.00  0.00    +0.006 A 
ATOM     14  C   UNL     1      -2.414  -1.057   1.415  0.00  0.00    +0.033 A 
ATOM     15  C   UNL     1      -2.302   0.260   1.822  0.00  0.00    +0.130 A 
ATOM     16  C   UNL     1      -1.099   0.926   1.687  0.00  0.00    +0.079 A 
BRANCH  15  17
ATOM     17  N   UNL     1      -3.471   0.955   2.407  0.00  0.00    +0.057 N 
ATOM     18  O   UNL     1      -4.530   0.367   2.531  0.00  0.00    -0.126 OA
ATOM     19  O   UNL     1      -3.373   2.115   2.765  0.00  0.00    -0.126 OA
ENDBRANCH  15  17
ENDBRANCH  10  11
ENDBRANCH   6  10
BRANCH   4  20
ATOM     20  O   UNL     1       2.373  -2.131  -2.273  0.00  0.00    -0.436 OA
BRANCH  20  21
ATOM     21  C   UNL     1       1.072  -2.155  -2.665  0.00  0.00    +0.131 A 
ATOM     22  C   UNL     1       0.214  -1.129  -2.290  0.00  0.00    +0.046 A 
ATOM     23  C   UNL     1      -1.109  -1.149  -2.687  0.00  0.00    +0.004 A 
ATOM     24  C   UNL     1      -1.587  -2.189  -3.459  0.00  0.00    +0.011 A 
ATOM     25  C   UNL     1      -0.734  -3.224  -3.840  0.00  0.00    +0.016 A 
ATOM     26  C   UNL     1       0.603  -3.200  -3.444  0.00  0.00    +0.057 A 
BRANCH  25  27
ATOM     27  C   UNL     1      -1.243  -4.341  -4.668  0.00  0.00    +0.094 C 
ATOM     28  N   UNL     1      -2.563  -4.359  -5.064  0.00  0.00    -0.345 N 
ATOM     29  H   UNL     1      -0.684  -6.080  -5.565  0.00  0.00    +0.157 HD
ATOM     30  H   UNL     1      -3.158  -3.640  -4.799  0.00  0.00    +0.144 HD
ATOM     31  H   UNL     1      -2.897  -5.090  -5.606  0.00  0.00    +0.144 HD
ATOM     32  N   UNL     1      -0.381  -5.290  -4.996  0.00  0.00    -0.387 N 
ATOM     33  H   UNL     1       0.593  -5.231  -4.676  0.00  0.00    +0.157 HD
ENDBRANCH  25  27
ENDBRANCH  20  21
ENDBRANCH   4  20
TORSDOF 6
