REMARK  Name = ZINC32639232
REMARK  6 active torsions:
REMARK  status: ('A' for Active; 'I' for Inactive)
REMARK    1  A    between atoms: C_4  and  N_8
REMARK    2  A    between atoms: N_20  and  C_21
REMARK    3  A    between atoms: C_21  and  C_23
REMARK    4  A    between atoms: C_23  and  O_24
REMARK    5  A    between atoms: O_24  and  C_25
REMARK    6  A    between atoms: C_25  and  C_26
REMARK                            x       y       z     vdW  Elec       q    Type
REMARK                         _______ _______ _______ _____ _____    ______ ____
ROOT
ATOM      1  N   UNL     1      -4.987  -5.247   0.016  0.00  0.00    -0.275 N 
ATOM      2  C   UNL     1      -6.418  -5.471   0.088  0.00  0.00    +0.116 C 
ATOM      3  C   UNL     1      -6.723  -6.348   1.325  0.00  0.00    +0.190 C 
ATOM      4  S   UNL     1      -8.363  -5.692   1.858  0.00  0.00    -0.028 S 
ATOM      5  O   UNL     1      -9.387  -6.301   1.084  0.00  0.00    -0.174 OA
ATOM      6  O   UNL     1      -8.441  -5.717   3.276  0.00  0.00    -0.174 OA
ATOM      7  C   UNL     1      -8.144  -3.949   1.268  0.00  0.00    +0.182 C 
ATOM      8  C   UNL     1      -7.234  -4.174   0.045  0.00  0.00    +0.097 C 
ATOM      9  S   UNL     1      -5.910  -2.908   0.042  0.00  0.00    -0.086 S 
ATOM     10  C   UNL     1      -4.489  -3.982   0.024  0.00  0.00    +0.154 C 
ATOM     11  N   UNL     1      -3.211  -3.623   0.013  0.00  0.00    -0.157 NA
ENDROOT
BRANCH   1  15
ATOM     12  C   UNL     1      -2.388  -8.497  -0.201  0.00  0.00    +0.021 A 
ATOM     13  C   UNL     1      -2.878  -7.928  -1.362  0.00  0.00    +0.023 A 
ATOM     14  C   UNL     1      -3.744  -6.853  -1.294  0.00  0.00    +0.062 A 
ATOM     15  C   UNL     1      -4.114  -6.338  -0.056  0.00  0.00    +0.055 A 
ATOM     16  C   UNL     1      -3.620  -6.912   1.107  0.00  0.00    +0.045 A 
ATOM     17  C   UNL     1      -2.758  -7.990   1.032  0.00  0.00    +0.043 A 
ATOM     18 CL   UNL     1      -2.139  -8.709   2.486  0.00  0.00    -0.083 Cl
ATOM     19 CL   UNL     1      -4.365  -6.143  -2.751  0.00  0.00    -0.082 Cl
ENDBRANCH   1  15
BRANCH  11  20
ATOM     20  C   UNL     1      -2.883  -2.333   0.017  0.00  0.00    +0.264 C 
ATOM     21  O   UNL     1      -3.753  -1.484   0.030  0.00  0.00    -0.271 OA
BRANCH  20  22
ATOM     22  C   UNL     1      -1.432  -1.925   0.005  0.00  0.00    +0.258 C 
BRANCH  22  23
ATOM     23  O   UNL     1      -1.339  -0.499   0.012  0.00  0.00    -0.359 OA
BRANCH  23  24
ATOM     24  C   UNL     1       0.002  -0.004   0.002  0.00  0.00    +0.285 C 
BRANCH  24  25
ATOM     25  C   UNL     1      -0.018   1.503   0.010  0.00  0.00    +0.381 C 
ATOM     26  O   UNL     1      -1.073   2.093   0.018  0.00  0.00    -0.244 OA
ATOM     27  O   UNL     1       1.135   2.190   0.003  0.00  0.00    -0.244 OA
ENDBRANCH  24  25
ENDBRANCH  23  24
ENDBRANCH  22  23
ENDBRANCH  20  22
ENDBRANCH  11  20
TORSDOF 6
