REMARK  Name = ZINC64044125
REMARK  7 active torsions:
REMARK  status: ('A' for Active; 'I' for Inactive)
REMARK    1  A    between atoms: C_1  and  N_2
REMARK    2  A    between atoms: N_2  and  C_3
REMARK    3  A    between atoms: C_3  and  C_4
REMARK    4  A    between atoms: C_4  and  C_5
REMARK    5  A    between atoms: C_11  and  O_15
REMARK    6  A    between atoms: O_15  and  C_16
REMARK    7  A    between atoms: C_19  and  C_23
REMARK                            x       y       z     vdW  Elec       q    Type
REMARK                         _______ _______ _______ _____ _____    ______ ____
ROOT
ATOM      1  C   UNL     1      -0.018   1.461   0.010  0.00  0.00    +0.132 C 
ATOM      2  N   UNL     1       0.002  -0.004   0.002  0.00  0.00    -0.301 N 
ATOM      3  C   UNL     1       0.000  -0.690  -1.201  0.00  0.00    +0.238 A 
ATOM      4  N   UNL     1      -0.015  -0.012  -2.340  0.00  0.00    -0.208 NA
ATOM      5  C   UNL     1      -0.016  -0.679  -3.496  0.00  0.00    +0.129 A 
ATOM      6  C   UNL     1      -0.002  -2.080  -3.461  0.00  0.00    +0.166 A 
ATOM      7  N   UNL     1       0.012  -2.693  -2.293  0.00  0.00    -0.152 NA
ATOM      8  N   UNL     1       0.018  -2.017  -1.198  0.00  0.00    -0.113 NA
ENDROOT
BRANCH   5   9
ATOM      9  C   UNL     1      -0.032   0.043  -4.784  0.00  0.00    +0.156 A 
ATOM     10  C   UNL     1      -0.137  -0.539  -6.003  0.00  0.00    +0.060 A 
ATOM     11  C   UNL     1      -0.111   0.552  -6.978  0.00  0.00    +0.021 A 
ATOM     12  C   UNL     1      -0.180   0.615  -8.371  0.00  0.00    +0.011 A 
ATOM     13  C   UNL     1      -0.127   1.829  -8.998  0.00  0.00    +0.001 A 
ATOM     14  C   UNL     1      -0.005   2.997  -8.258  0.00  0.00    +0.004 A 
ATOM     15  C   UNL     1       0.064   2.956  -6.882  0.00  0.00    +0.047 A 
ATOM     16  C   UNL     1       0.011   1.733  -6.223  0.00  0.00    +0.136 A 
ATOM     17  O   UNL     1       0.049   1.382  -4.923  0.00  0.00    -0.453 OA
ENDBRANCH   5   9
BRANCH   2  18
ATOM     18  C   UNL     1       0.024  -0.743   1.267  0.00  0.00    +0.111 C 
BRANCH  18  19
ATOM     19  C   UNL     1      -1.411  -1.020   1.720  0.00  0.00    +0.065 C 
BRANCH  19  20
ATOM     20  C   UNL     1      -1.387  -1.792   3.041  0.00  0.00    +0.175 C 
ATOM     21  N   UNL     1      -0.854  -0.942   4.112  0.00  0.00    -0.363 N 
ATOM     22  C   UNL     1      -1.784  -0.820   5.016  0.00  0.00    +0.060 A 
ATOM     23  C   UNL     1      -1.830  -0.098   6.296  0.00  0.00    +0.031 A 
ATOM     24  C   UNL     1      -2.945  -0.142   7.049  0.00  0.00    +0.048 A 
ATOM     25  C   UNL     1      -4.124  -0.891   6.635  0.00  0.00    +0.122 A 
ATOM     26  C   UNL     1      -4.160  -1.582   5.469  0.00  0.00    +0.073 A 
ATOM     27  C   UNL     1      -2.987  -1.585   4.591  0.00  0.00    +0.064 A 
ATOM     28  N   UNL     1      -2.754  -2.153   3.438  0.00  0.00    -0.363 N 
ATOM     29  H   UNL     1       0.030  -0.544   4.142  0.00  0.00    +0.162 HD
ATOM     30  H   UNL     1      -3.370  -2.709   2.936  0.00  0.00    +0.162 HD
BRANCH  25  31
ATOM     31  O   UNL     1      -5.217  -0.898   7.438  0.00  0.00    -0.495 OA
ATOM     32  C   UNL     1      -5.131  -0.155   8.656  0.00  0.00    +0.277 C 
ENDBRANCH  25  31
ENDBRANCH  19  20
ENDBRANCH  18  19
ENDBRANCH   2  18
TORSDOF 5
