REMARK  Name = ZINC35455558
REMARK  6 active torsions:
REMARK  status: ('A' for Active; 'I' for Inactive)
REMARK    1  A    between atoms: C_4  and  C_7
REMARK    2  A    between atoms: C_7  and  N_8
REMARK    3  A    between atoms: C_12  and  C_13
REMARK    4  A    between atoms: C_14  and  C_28
REMARK    5  A    between atoms: N_16  and  C_19
REMARK    6  A    between atoms: C_22  and  N_25
REMARK                            x       y       z     vdW  Elec       q    Type
REMARK                         _______ _______ _______ _____ _____    ______ ____
ROOT
ATOM      1  C   UNL     1       5.921  -1.002   5.626  0.00  0.00    +0.071 A 
ATOM      2  C   UNL     1       7.146  -1.323   6.370  0.00  0.00    +0.104 A 
ATOM      3  N   UNL     1       6.788  -2.022   7.423  0.00  0.00    -0.162 NA
ATOM      4  N   UNL     1       5.400  -2.185   7.421  0.00  0.00    -0.196 N 
ATOM      5  C   UNL     1       4.871  -1.567   6.344  0.00  0.00    +0.281 A 
ATOM      6  O   UNL     1       3.558  -1.511   6.019  0.00  0.00    -0.265 OA
ENDROOT
BRANCH   1  11
ATOM      7  N   UNL     1       4.152  -0.952   1.338  0.00  0.00    -0.216 N 
ATOM      8  C   UNL     1       4.918  -0.119   2.068  0.00  0.00    +0.269 C 
ATOM      9  O   UNL     1       5.362   0.957   1.709  0.00  0.00    -0.268 OA
ATOM     10  C   UNL     1       5.111  -0.731   3.334  0.00  0.00    +0.099 C 
ATOM     11  C   UNL     1       5.824  -0.237   4.384  0.00  0.00    +0.044 C 
ATOM     12  N   UNL     1       4.415  -1.950   3.283  0.00  0.00    -0.265 N 
ATOM     13  C   UNL     1       3.848  -2.040   2.066  0.00  0.00    +0.313 C 
ATOM     14  O   UNL     1       3.165  -2.970   1.680  0.00  0.00    -0.252 OA
ATOM     15  H   UNL     1       4.352  -2.605   3.996  0.00  0.00    +0.157 HD
BRANCH   7  16
ATOM     16  C   UNL     1       3.711  -0.707  -0.038  0.00  0.00    +0.153 C 
BRANCH  16  20
ATOM     17  C   UNL     1      -0.017   1.378   0.010  0.00  0.00    +0.000 A 
ATOM     18  C   UNL     1       1.171   2.086   0.002  0.00  0.00    +0.000 A 
ATOM     19  C   UNL     1       2.377   1.411  -0.013  0.00  0.00    +0.005 A 
ATOM     20  C   UNL     1       2.396   0.029  -0.020  0.00  0.00    -0.030 A 
ATOM     21  C   UNL     1       1.208  -0.679  -0.012  0.00  0.00    +0.005 A 
ATOM     22  C   UNL     1       0.002  -0.004   0.002  0.00  0.00    +0.000 A 
ENDBRANCH  16  20
ENDBRANCH   7  16
ENDBRANCH   1  11
BRANCH   4  23
ATOM     23  C   UNL     1       4.668  -2.879   8.394  0.00  0.00    +0.069 A 
ATOM     24  C   UNL     1       3.400  -2.442   8.754  0.00  0.00    +0.030 A 
ATOM     25  C   UNL     1       2.681  -3.128   9.713  0.00  0.00    +0.035 A 
ATOM     26  C   UNL     1       3.223  -4.249  10.314  0.00  0.00    +0.126 A 
ATOM     27  C   UNL     1       4.486  -4.686   9.959  0.00  0.00    +0.035 A 
ATOM     28  C   UNL     1       5.207  -4.008   8.996  0.00  0.00    +0.030 A 
BRANCH  26  29
ATOM     29  N   UNL     1       2.450  -4.983  11.342  0.00  0.00    +0.056 N 
ATOM     30  O   UNL     1       1.346  -4.601  11.654  0.00  0.00    -0.126 OA
ATOM     31  O   UNL     1       2.922  -5.963  11.869  0.00  0.00    -0.126 OA
ENDBRANCH  26  29
ENDBRANCH   4  23
BRANCH   2  32
ATOM     32  C   UNL     1       8.527  -0.931   6.003  0.00  0.00    +0.003 A 
ATOM     33  C   UNL     1       8.902  -0.864   4.662  0.00  0.00    +0.010 A 
ATOM     34  C   UNL     1      10.189  -0.498   4.325  0.00  0.00    +0.001 A 
ATOM     35  C   UNL     1      11.107  -0.199   5.316  0.00  0.00    +0.000 A 
ATOM     36  C   UNL     1      10.741  -0.264   6.648  0.00  0.00    +0.001 A 
ATOM     37  C   UNL     1       9.455  -0.623   6.997  0.00  0.00    +0.010 A 
ENDBRANCH   2  32
TORSDOF 6
