REMARK  Name = ZINC39710314
REMARK  13 active torsions:
REMARK  status: ('A' for Active; 'I' for Inactive)
REMARK    1  A    between atoms: C_1  and  C_2
REMARK    2  A    between atoms: C_2  and  C_3
REMARK    3  A    between atoms: C_3  and  C_4
REMARK    4  A    between atoms: C_3  and  C_5
REMARK    5  A    between atoms: C_3  and  N_6
REMARK    6  A    between atoms: C_7  and  C_12
REMARK    7  A    between atoms: C_12  and  C_14
REMARK    8  A    between atoms: C_12  and  N_27
REMARK    9  A    between atoms: C_19  and  C_26
REMARK   10  A    between atoms: N_27  and  C_28
REMARK   11  A    between atoms: N_27  and  C_36
REMARK   12  A    between atoms: C_28  and  C_29
REMARK   13  A    between atoms: C_36  and  C_37
REMARK                            x       y       z     vdW  Elec       q    Type
REMARK                         _______ _______ _______ _____ _____    ______ ____
ROOT
ATOM      1  C   UNL     1      -4.130  -2.880   0.995  0.00  0.00    -0.008 C 
ENDROOT
BRANCH   1   2
ATOM      2  C   UNL     1      -4.124  -1.596   1.827  0.00  0.00    +0.088 C 
ATOM      3  C   UNL     1      -2.694  -1.324   2.252  0.00  0.00    -0.006 C 
ATOM      4  C   UNL     1      -2.445  -1.236   3.589  0.00  0.00    -0.007 A 
ATOM      5  C   UNL     1      -1.093  -0.977   4.085  0.00  0.00    +0.012 A 
ATOM      6  C   UNL     1      -0.892  -0.897   5.426  0.00  0.00    -0.050 A 
ATOM      7  C   UNL     1      -1.943  -1.057   6.329  0.00  0.00    +0.005 A 
ATOM      8  C   UNL     1      -3.220  -1.300   5.933  0.00  0.00    +0.024 A 
ATOM      9  C   UNL     1      -3.535  -1.401   4.565  0.00  0.00    +0.040 A 
ATOM     10  N   UNL     1      -4.792  -1.639   4.188  0.00  0.00    -0.285 N 
ATOM     11  C   UNL     1      -5.156  -1.747   2.922  0.00  0.00    +0.223 C 
ATOM     12  O   UNL     1      -6.319  -1.966   2.638  0.00  0.00    -0.275 OA
ATOM     13  C   UNL     1       0.496  -0.631   5.950  0.00  0.00    +0.044 C 
ATOM     14  H   UNL     1      -5.470  -1.738   4.874  0.00  0.00    +0.155 HD
ENDBRANCH   1   2
BRANCH   1  16
ATOM     15  N   UNL     1      -1.960  -2.163   0.056  0.00  0.00    -0.182 NA
ATOM     16  C   UNL     1      -3.309  -2.667  -0.278  0.00  0.00    +0.205 C 
ATOM     17  N   UNL     1      -3.067  -3.948  -0.955  0.00  0.00    -0.152 NA
ATOM     18  N   UNL     1      -1.851  -4.149  -1.005  0.00  0.00    -0.070 NA
ATOM     19  N   UNL     1      -1.108  -3.125  -0.420  0.00  0.00    -0.179 N 
ATOM     20  H   UNL     1      -0.140  -3.097  -0.359  0.00  0.00    +0.191 HD
BRANCH  15  21
ATOM     21  C   UNL     1      -1.707  -0.868  -0.589  0.00  0.00    +0.037 C 
ATOM     22  C   UNL     1      -2.825   0.111  -0.224  0.00  0.00    +0.029 C 
ATOM     23  C   UNL     1      -1.667  -1.054  -2.107  0.00  0.00    +0.029 C 
BRANCH  21  25
ATOM     24  C   UNL     1      -0.101   1.036  -0.780  0.00  0.00    +0.006 C 
ATOM     25  C   UNL     1      -0.365  -0.313  -0.108  0.00  0.00    +0.020 C 
ENDBRANCH  21  25
ENDBRANCH  15  21
ENDBRANCH   1  16
BRANCH   1  26
ATOM     26  N   UNL     1      -5.513  -3.222   0.634  0.00  0.00    +0.392 N 
ATOM     27  H   UNL     1      -6.059  -3.343   1.474  0.00  0.00    -0.080 HD
BRANCH  26  28
ATOM     28  C   UNL     1      -6.090  -2.140  -0.174  0.00  0.00    -0.042 C 
BRANCH  28  29
ATOM     29  C   UNL     1      -7.547  -2.427  -0.431  0.00  0.00    -0.064 A 
ATOM     30  C   UNL     1      -7.922  -3.154  -1.545  0.00  0.00    +0.003 A 
ATOM     31  C   UNL     1      -9.258  -3.418  -1.781  0.00  0.00    +0.020 A 
ATOM     32  C   UNL     1     -10.220  -2.954  -0.902  0.00  0.00    +0.041 A 
ATOM     33  C   UNL     1      -9.845  -2.227   0.213  0.00  0.00    +0.020 A 
ATOM     34  C   UNL     1      -8.508  -1.968   0.451  0.00  0.00    +0.003 A 
ATOM     35 CL   UNL     1     -11.899  -3.285  -1.198  0.00  0.00    -0.084 Cl
ENDBRANCH  28  29
ENDBRANCH  26  28
BRANCH  26  36
ATOM     36  C   UNL     1      -5.522  -4.470  -0.140  0.00  0.00    -0.002 C 
BRANCH  36  37
ATOM     37  C   UNL     1      -4.980  -5.592   0.708  0.00  0.00    +0.089 A 
ATOM     38  C   UNL     1      -5.713  -6.441   1.451  0.00  0.00    +0.042 A 
ATOM     39  C   UNL     1      -4.805  -7.325   2.078  0.00  0.00    +0.041 A 
ATOM     40  C   UNL     1      -3.572  -6.964   1.679  0.00  0.00    +0.195 A 
ATOM     41  O   UNL     1      -3.684  -5.917   0.846  0.00  0.00    -0.470 OA
ENDBRANCH  36  37
ENDBRANCH  26  36
ENDBRANCH   1  26
TORSDOF 9
