REMARK  Name = ZINC05522851
REMARK  3 active torsions:
REMARK  status: ('A' for Active; 'I' for Inactive)
REMARK    1  A    between atoms: C_4  and  C_7
REMARK    2  A    between atoms: C_7  and  N_8
REMARK    3  A    between atoms: C_12  and  C_15
REMARK                            x       y       z     vdW  Elec       q    Type
REMARK                         _______ _______ _______ _____ _____    ______ ____
ROOT
ATOM      1  N   UNL     1       4.080  -1.050   1.339  0.00  0.00    -0.307 N 
ATOM      2  C   UNL     1       4.817  -0.160   2.067  0.00  0.00    +0.029 A 
ATOM      3  C   UNL     1       5.191  -0.449   3.329  0.00  0.00    +0.020 A 
ATOM      4  C   UNL     1       4.830  -1.688   3.900  0.00  0.00    +0.201 A 
ATOM      5  C   UNL     1       4.079  -2.601   3.150  0.00  0.00    +0.148 A 
ATOM      6  C   UNL     1       3.701  -2.239   1.834  0.00  0.00    +0.268 A 
ATOM      7  O   UNL     1       3.040  -3.004   1.153  0.00  0.00    -0.267 OA
ATOM      8  O   UNL     1       5.206  -1.992   5.163  0.00  0.00    -0.287 OA
ATOM      9  C   UNL     1       5.982   0.501   4.189  0.00  0.00    +0.041 C 
ATOM     10  C   UNL     1       6.658   1.571   3.335  0.00  0.00    +0.005 C 
ATOM     11  C   UNL     1       5.597   2.188   2.414  0.00  0.00    +0.006 C 
ATOM     12  C   UNL     1       5.186   1.135   1.387  0.00  0.00    +0.054 C 
ENDROOT
BRANCH   5  13
ATOM     13  C   UNL     1       3.690  -3.898   3.713  0.00  0.00    +0.259 C 
ATOM     14  O   UNL     1       3.924  -4.149   4.881  0.00  0.00    -0.269 OA
ATOM     15  N   UNL     1       3.074  -4.812   2.938  0.00  0.00    -0.260 N 
ATOM     16  C   UNL     1       2.801  -6.078   3.441  0.00  0.00    +0.165 A 
ATOM     17  N   UNL     1       3.063  -6.556   4.638  0.00  0.00    -0.233 NA
ATOM     18  C   UNL     1       2.737  -7.793   4.965  0.00  0.00    +0.120 A 
ATOM     19  C   UNL     1       2.124  -8.541   4.014  0.00  0.00    +0.068 A 
ATOM     20  S   UNL     1       2.049  -7.370   2.668  0.00  0.00    -0.061 S 
ATOM     21  H   UNL     1       2.821  -4.586   2.030  0.00  0.00    +0.157 HD
ENDBRANCH   5  13
BRANCH   1  22
ATOM     22  C   UNL     1       3.685  -0.694  -0.026  0.00  0.00    +0.160 C 
BRANCH  22  26
ATOM     23  C   UNL     1       6.519  -2.289  -2.795  0.00  0.00    +0.000 A 
ATOM     24  C   UNL     1       5.479  -3.077  -2.340  0.00  0.00    +0.000 A 
ATOM     25  C   UNL     1       4.562  -2.561  -1.443  0.00  0.00    +0.005 A 
ATOM     26  C   UNL     1       4.685  -1.257  -1.002  0.00  0.00    -0.028 A 
ATOM     27  C   UNL     1       5.726  -0.469  -1.457  0.00  0.00    +0.005 A 
ATOM     28  C   UNL     1       6.643  -0.985  -2.354  0.00  0.00    +0.000 A 
ENDBRANCH  22  26
ENDBRANCH   1  22
TORSDOF 3
