REMARK  Name = ZINC64518498
REMARK  10 active torsions:
REMARK  status: ('A' for Active; 'I' for Inactive)
REMARK    1  A    between atoms: C_1  and  O_2
REMARK    2  A    between atoms: O_2  and  C_3
REMARK    3  A    between atoms: C_9  and  C_12
REMARK    4  A    between atoms: C_12  and  C_13
REMARK    5  A    between atoms: C_13  and  N_14
REMARK    6  A    between atoms: C_15  and  C_17
REMARK    7  A    between atoms: C_17  and  C_18
REMARK    8  A    between atoms: C_24  and  C_26
REMARK    9  A    between atoms: C_31  and  O_36
REMARK   10  A    between atoms: O_36  and  C_37
REMARK                            x       y       z     vdW  Elec       q    Type
REMARK                         _______ _______ _______ _____ _____    ______ ____
ROOT
ATOM      1  C   UNL     1      -0.268 -10.001   3.296  0.00  0.00    +0.001 C 
ATOM      2  C   UNL     1      -1.275 -10.229   4.426  0.00  0.00    +0.023 C 
ATOM      3  C   UNL     1      -0.537 -10.237   5.768  0.00  0.00    +0.108 C 
ATOM      4  N   UNL     1       0.541 -11.234   5.710  0.00  0.00    -0.296 N 
ATOM      5  C   UNL     1       1.512 -11.160   4.609  0.00  0.00    +0.108 C 
ATOM      6  C   UNL     1       0.751 -11.142   3.280  0.00  0.00    +0.023 C 
ATOM      7  C   UNL     1       0.637 -12.197   6.647  0.00  0.00    +0.263 C 
ATOM      8  O   UNL     1      -0.171 -12.245   7.556  0.00  0.00    -0.268 OA
ENDROOT
BRANCH   7   9
ATOM      9  C   UNL     1       1.718 -13.190   6.572  0.00  0.00    +0.103 A 
ATOM     10  C   UNL     1       1.644 -14.471   7.021  0.00  0.00    +0.040 A 
ATOM     11  C   UNL     1       2.889 -15.092   6.761  0.00  0.00    +0.001 A 
ATOM     12  C   UNL     1       3.388 -16.380   6.999  0.00  0.00    +0.013 A 
ATOM     13  C   UNL     1       4.662 -16.694   6.629  0.00  0.00    +0.046 A 
ATOM     14  C   UNL     1       5.477 -15.743   6.015  0.00  0.00    +0.122 A 
ATOM     15  C   UNL     1       5.005 -14.467   5.770  0.00  0.00    +0.071 A 
ATOM     16  C   UNL     1       3.708 -14.128   6.140  0.00  0.00    +0.050 A 
ATOM     17  N   UNL     1       2.971 -12.972   6.029  0.00  0.00    -0.350 N 
ATOM     18  H   UNL     1       3.280 -12.141   5.636  0.00  0.00    +0.166 HD
BRANCH  14  19
ATOM     19  O   UNL     1       6.744 -16.074   5.654  0.00  0.00    -0.495 OA
ATOM     20  C   UNL     1       7.171 -17.409   5.934  0.00  0.00    +0.277 C 
ENDBRANCH  14  19
ENDBRANCH   7   9
BRANCH   1  21
ATOM     21  C   UNL     1      -1.007  -9.958   1.957  0.00  0.00    +0.099 C 
BRANCH  21  23
ATOM     22  N   UNL     1      -2.678  -8.519   0.836  0.00  0.00    -0.315 N 
ATOM     23  C   UNL     1      -1.922  -8.761   1.926  0.00  0.00    +0.213 C 
ATOM     24  O   UNL     1      -1.978  -8.016   2.881  0.00  0.00    -0.276 OA
ATOM     25  H   UNL     1      -2.633  -9.115   0.072  0.00  0.00    +0.149 HD
BRANCH  22  26
ATOM     26  C   UNL     1      -3.568  -7.356   0.806  0.00  0.00    +0.108 C 
BRANCH  26  27
ATOM     27  C   UNL     1      -4.306  -7.313  -0.533  0.00  0.00    +0.052 C 
BRANCH  27  34
ATOM     28  C   UNL     1      -3.786  -3.058  -2.183  0.00  0.00    +0.121 A 
ATOM     29  C   UNL     1      -4.904  -2.224  -2.009  0.00  0.00    +0.047 A 
ATOM     30  C   UNL     1      -6.037  -2.644  -1.405  0.00  0.00    +0.029 A 
ATOM     31  C   UNL     1      -6.128  -4.019  -0.904  0.00  0.00    +0.043 A 
ATOM     32  N   UNL     1      -7.088  -4.667  -0.293  0.00  0.00    -0.380 N 
ATOM     33  C   UNL     1      -6.629  -6.033  -0.018  0.00  0.00    +0.144 C 
ATOM     34  C   UNL     1      -5.221  -6.116  -0.564  0.00  0.00    -0.040 C 
ATOM     35  C   UNL     1      -4.950  -4.899  -1.087  0.00  0.00    +0.002 A 
ATOM     36  C   UNL     1      -3.770  -4.345  -1.760  0.00  0.00    +0.055 A 
ATOM     37  H   UNL     1      -7.957  -4.304  -0.060  0.00  0.00    +0.160 HD
BRANCH  28  39
ATOM     38  C   UNL     1      -2.744  -1.195  -3.230  0.00  0.00    +0.277 C 
ATOM     39  O   UNL     1      -2.684  -2.557  -2.801  0.00  0.00    -0.495 OA
ENDBRANCH  28  39
ENDBRANCH  27  34
ENDBRANCH  26  27
ENDBRANCH  22  26
ENDBRANCH  21  23
ENDBRANCH   1  21
TORSDOF 8
