REMARK  Name = ZINC32830076
REMARK  7 active torsions:
REMARK  status: ('A' for Active; 'I' for Inactive)
REMARK    1  A    between atoms: C_6  and  C_7
REMARK    2  A    between atoms: C_10  and  C_12
REMARK    3  A    between atoms: C_12  and  O_13
REMARK    4  A    between atoms: O_13  and  C_14
REMARK    5  A    between atoms: C_14  and  C_16
REMARK    6  A    between atoms: C_19  and  O_35
REMARK    7  A    between atoms: C_23  and  C_25
REMARK                            x       y       z     vdW  Elec       q    Type
REMARK                         _______ _______ _______ _____ _____    ______ ____
ROOT
ATOM      1  C   UNL     1      -1.199   2.181   0.271  0.00  0.00    +0.187 C 
ATOM      2  C   UNL     1      -0.720   3.621   0.549  0.00  0.00    +0.066 C 
ATOM      3  C   UNL     1       0.760   3.589   0.087  0.00  0.00    +0.134 C 
ATOM      4  C   UNL     1       1.183   2.156   0.498  0.00  0.00    +0.140 C 
ATOM      5  N   UNL     1      -0.005   1.323   0.237  0.00  0.00    -0.285 N 
ATOM      6  C   UNL     1       0.002  -0.004   0.002  0.00  0.00    +0.223 C 
ATOM      7  O   UNL     1      -1.045  -0.607  -0.105  0.00  0.00    -0.275 OA
ENDROOT
BRANCH   6   8
ATOM      8  C   UNL     1       1.311  -0.739  -0.128  0.00  0.00    +0.048 C 
ATOM      9  C   UNL     1       2.176  -0.461   1.103  0.00  0.00    +0.019 C 
ATOM     10  C   UNL     1       3.505  -1.208   0.972  0.00  0.00    -0.009 C 
ATOM     11  C   UNL     1       3.238  -2.710   0.865  0.00  0.00    +0.007 C 
ATOM     12  C   UNL     1       2.373  -2.988  -0.366  0.00  0.00    -0.009 C 
ATOM     13  C   UNL     1       1.044  -2.242  -0.234  0.00  0.00    +0.019 C 
ATOM     14  C   UNL     1       3.104  -2.510  -1.622  0.00  0.00    +0.007 C 
ATOM     15  C   UNL     1       3.372  -1.007  -1.515  0.00  0.00    -0.009 C 
ATOM     16  C   UNL     1       4.237  -0.729  -0.284  0.00  0.00    +0.007 C 
ATOM     17  C   UNL     1       2.043  -0.261  -1.383  0.00  0.00    +0.019 C 
ENDBRANCH   6   8
BRANCH   1  18
ATOM     18  C   UNL     1      -2.124   1.729   1.371  0.00  0.00    +0.328 C 
ATOM     19  O   UNL     1      -1.824   0.785   2.063  0.00  0.00    -0.249 OA
BRANCH  18  20
ATOM     20  O   UNL     1      -3.281   2.375   1.583  0.00  0.00    -0.454 OA
BRANCH  20  21
ATOM     21  C   UNL     1      -4.123   1.885   2.660  0.00  0.00    +0.327 C 
BRANCH  21  28
ATOM     22  C   UNL     1      -8.740   2.338   3.720  0.00  0.00    +0.032 C 
ATOM     23  C   UNL     1      -7.524   3.268   3.776  0.00  0.00    +0.108 C 
ATOM     24  N   UNL     1      -6.303   2.455   3.680  0.00  0.00    -0.299 N 
ATOM     25  C   UNL     1      -6.122   1.337   4.616  0.00  0.00    +0.108 C 
ATOM     26  C   UNL     1      -7.352   0.433   4.554  0.00  0.00    +0.032 C 
ATOM     27  C   UNL     1      -8.609   1.268   4.806  0.00  0.00    +0.078 C 
ATOM     28  C   UNL     1      -5.370   2.727   2.746  0.00  0.00    +0.253 C 
ATOM     29  O   UNL     1      -5.533   3.650   1.976  0.00  0.00    -0.272 OA
BRANCH  27  30
ATOM     30  C   UNL     1      -9.821   0.372   4.776  0.00  0.00    +0.214 C 
ATOM     31  O   UNL     1     -10.701   0.570   3.966  0.00  0.00    -0.276 OA
ATOM     32  N   UNL     1      -9.925  -0.650   5.650  0.00  0.00    -0.329 N 
ATOM     33  H   UNL     1     -10.809  -1.304   5.628  0.00  0.00    +0.145 HD
ATOM     34  H   UNL     1      -9.127  -0.829   6.384  0.00  0.00    +0.145 HD
ENDBRANCH  27  30
ENDBRANCH  21  28
ENDBRANCH  20  21
ENDBRANCH  18  20
ENDBRANCH   1  18
BRANCH   3  35
ATOM     35  O   UNL     1       0.861   3.767  -1.327  0.00  0.00    -0.390 OA
ATOM     36  H   UNL     1       1.847   3.769  -1.813  0.00  0.00    +0.210 HD
ENDBRANCH   3  35
TORSDOF 7
