REMARK  Name = ZINC15004930
REMARK  5 active torsions:
REMARK  status: ('A' for Active; 'I' for Inactive)
REMARK    1  A    between atoms: C_4  and  O_28
REMARK    2  A    between atoms: C_5  and  C_7
REMARK    3  A    between atoms: C_7  and  N_8
REMARK    4  A    between atoms: C_12  and  C_15
REMARK    5  A    between atoms: C_16  and  C_21
REMARK                            x       y       z     vdW  Elec       q    Type
REMARK                         _______ _______ _______ _____ _____    ______ ____
ROOT
ATOM      1  N   UNL     1       1.488  -2.681   1.337  0.00  0.00    +0.383 N 
ATOM      2  C   UNL     1       0.374  -2.304   2.215  0.00  0.00    -0.078 C 
ATOM      3  C   UNL     1       0.677  -2.745   3.648  0.00  0.00    -0.018 C 
ATOM      4  C   UNL     1       0.863  -4.265   3.680  0.00  0.00    +0.006 C 
ATOM      5  C   UNL     1       1.977  -4.654   2.705  0.00  0.00    +0.023 C 
ATOM      6  C   UNL     1       1.625  -4.142   1.306  0.00  0.00    -0.069 C 
ATOM      7  H   UNL     1       2.341  -2.271   1.685  0.00  0.00    -0.081 HD
ENDROOT
BRANCH   5   8
ATOM      8  C   UNL     1       2.116  -6.154   2.672  0.00  0.00    +0.072 A 
ATOM      9  C   UNL     1       3.271  -6.885   3.013  0.00  0.00    +0.023 A 
ATOM     10  C   UNL     1       2.983  -8.209   2.850  0.00  0.00    +0.113 A 
ATOM     11  N   UNL     1       1.706  -8.299   2.426  0.00  0.00    -0.284 N 
ATOM     12  N   UNL     1       1.185  -7.004   2.328  0.00  0.00    -0.178 NA
ATOM     13  H   UNL     1       1.230  -9.121   2.227  0.00  0.00    +0.188 HD
BRANCH   9  14
ATOM     14  C   UNL     1       4.566  -6.318   3.467  0.00  0.00    -0.015 A 
ATOM     15  C   UNL     1       5.168  -5.288   2.748  0.00  0.00    +0.010 A 
ATOM     16  C   UNL     1       6.372  -4.764   3.174  0.00  0.00    +0.020 A 
ATOM     17  C   UNL     1       6.981  -5.261   4.313  0.00  0.00    +0.041 A 
ATOM     18  C   UNL     1       6.387  -6.286   5.030  0.00  0.00    +0.020 A 
ATOM     19  C   UNL     1       5.180  -6.811   4.615  0.00  0.00    +0.010 A 
ATOM     20 CL   UNL     1       8.495  -4.599   4.843  0.00  0.00    -0.084 Cl
ENDBRANCH   9  14
ENDBRANCH   5   8
BRANCH   1  21
ATOM     21  C   UNL     1       1.227  -2.187  -0.022  0.00  0.00    -0.039 C 
BRANCH  21  26
ATOM     22  C   UNL     1      -0.017   1.378   0.010  0.00  0.00    +0.000 A 
ATOM     23  C   UNL     1       1.170   2.088   0.002  0.00  0.00    +0.004 A 
ATOM     24  C   UNL     1       2.377   1.417  -0.013  0.00  0.00    +0.045 A 
ATOM     25  C   UNL     1       2.399   0.030  -0.021  0.00  0.00    +0.118 A 
ATOM     26  C   UNL     1       1.207  -0.680  -0.013  0.00  0.00    -0.022 A 
ATOM     27  C   UNL     1       0.002  -0.004   0.002  0.00  0.00    +0.005 A 
BRANCH  25  28
ATOM     28  O   UNL     1       3.586  -0.632  -0.037  0.00  0.00    -0.507 OA
ATOM     29  H   UNL     1       3.938  -0.829   0.842  0.00  0.00    +0.292 HD
ENDBRANCH  25  28
ENDBRANCH  21  26
ENDBRANCH   1  21
TORSDOF 5
