REMARK  Name = ZINC08606616
REMARK  9 active torsions:
REMARK  status: ('A' for Active; 'I' for Inactive)
REMARK    1  A    between atoms: C_1  and  C_2
REMARK    2  A    between atoms: C_2  and  O_3
REMARK    3  A    between atoms: O_3  and  C_4
REMARK    4  A    between atoms: C_8  and  C_10
REMARK    5  A    between atoms: C_13  and  C_27
REMARK    6  A    between atoms: N_20  and  C_21
REMARK    7  A    between atoms: C_21  and  C_22
REMARK    8  A    between atoms: C_29  and  C_34
REMARK    9  A    between atoms: C_32  and  O_33
REMARK                            x       y       z     vdW  Elec       q    Type
REMARK                         _______ _______ _______ _____ _____    ______ ____
ROOT
ATOM      1  C   UNL     1       2.335  -4.269   3.898  0.00  0.00    +0.142 C 
ATOM      2  C   UNL     1       3.648  -4.820   3.413  0.00  0.00    +0.035 A 
ATOM      3  C   UNL     1       4.884  -4.564   2.810  0.00  0.00    +0.102 A 
ATOM      4  N   UNL     1       5.531  -5.710   2.734  0.00  0.00    -0.173 NA
ATOM      5  N   UNL     1       4.826  -6.665   3.229  0.00  0.00    -0.272 N 
ATOM      6  H   UNL     1       5.102  -7.593   3.280  0.00  0.00    +0.189 HD
ATOM      7  C   UNL     1       3.630  -6.177   3.675  0.00  0.00    +0.126 A 
ATOM      8  C   UNL     1       2.352  -6.513   4.311  0.00  0.00    +0.266 C 
ATOM      9  O   UNL     1       2.026  -7.629   4.667  0.00  0.00    -0.268 OA
ATOM     10  N   UNL     1       1.591  -5.410   4.447  0.00  0.00    -0.278 N 
ENDROOT
BRANCH   3  11
ATOM     11  C   UNL     1       5.376  -3.245   2.341  0.00  0.00    +0.044 A 
ATOM     12  C   UNL     1       5.260  -2.124   3.159  0.00  0.00    +0.017 A 
ATOM     13  C   UNL     1       5.719  -0.899   2.719  0.00  0.00    -0.050 A 
ATOM     14  C   UNL     1       6.295  -0.780   1.467  0.00  0.00    +0.007 A 
ATOM     15  C   UNL     1       6.415  -1.886   0.647  0.00  0.00    +0.046 A 
ATOM     16  C   UNL     1       5.964  -3.123   1.079  0.00  0.00    +0.126 A 
ATOM     17  C   UNL     1       5.592   0.313   3.605  0.00  0.00    +0.044 C 
BRANCH  16  18
ATOM     18  O   UNL     1       6.087  -4.212   0.276  0.00  0.00    -0.506 OA
ATOM     19  H   UNL     1       5.367  -4.314  -0.361  0.00  0.00    +0.292 HD
ENDBRANCH  16  18
ENDBRANCH   3  11
BRANCH   1  24
ATOM     20  C   UNL     1       0.679  -1.726   1.647  0.00  0.00    +0.121 A 
ATOM     21  C   UNL     1       0.173  -2.537   0.642  0.00  0.00    +0.045 A 
ATOM     22  C   UNL     1       0.369  -3.904   0.695  0.00  0.00    +0.004 A 
ATOM     23  C   UNL     1       1.069  -4.463   1.748  0.00  0.00    +0.006 A 
ATOM     24  C   UNL     1       1.573  -3.656   2.752  0.00  0.00    -0.019 A 
ATOM     25  C   UNL     1       1.385  -2.288   2.700  0.00  0.00    +0.051 A 
BRANCH  20  26
ATOM     26  O   UNL     1       0.487  -0.381   1.598  0.00  0.00    -0.492 OA
BRANCH  26  28
ATOM     27  C   UNL     1      -0.361   1.650   0.600  0.00  0.00    +0.048 C 
ATOM     28  C   UNL     1      -0.249   0.129   0.484  0.00  0.00    +0.225 C 
ENDBRANCH  26  28
ENDBRANCH  20  26
ENDBRANCH   1  24
BRANCH  10  29
ATOM     29  C   UNL     1       0.252  -5.357   5.039  0.00  0.00    +0.183 C 
BRANCH  29  30
ATOM     30  C   UNL     1      -0.781  -5.578   3.965  0.00  0.00    +0.122 A 
ATOM     31  C   UNL     1      -1.286  -6.768   3.592  0.00  0.00    +0.046 A 
ATOM     32  C   UNL     1      -2.218  -6.512   2.560  0.00  0.00    +0.041 A 
ATOM     33  C   UNL     1      -2.227  -5.182   2.364  0.00  0.00    +0.195 A 
ATOM     34  O   UNL     1      -1.359  -4.620   3.222  0.00  0.00    -0.466 OA
ENDBRANCH  29  30
ENDBRANCH  10  29
TORSDOF 7
