REMARK  Name = ZINC02120450
REMARK  4 active torsions:
REMARK  status: ('A' for Active; 'I' for Inactive)
REMARK    1  A    between atoms: C_7  and  C_11
REMARK    2  A    between atoms: C_18  and  O_22
REMARK    3  A    between atoms: O_22  and  C_23
REMARK    4  A    between atoms: C_23  and  C_24
REMARK                            x       y       z     vdW  Elec       q    Type
REMARK                         _______ _______ _______ _____ _____    ______ ____
ROOT
ATOM      1  C   UNL     1       1.763  -1.835  -0.024  0.00  0.00    +0.060 C 
ATOM      2  C   UNL     1       0.854  -2.850  -0.021  0.00  0.00    +0.176 C 
ATOM      3  C   UNL     1       1.160  -4.237  -0.037  0.00  0.00    +0.231 C 
ATOM      4  O   UNL     1       2.265  -4.752  -0.055  0.00  0.00    -0.283 OA
ATOM      5  C   UNL     1      -0.146  -4.919  -0.022  0.00  0.00    +0.068 A 
ATOM      6  C   UNL     1      -0.529  -6.261  -0.025  0.00  0.00    +0.019 A 
ATOM      7  C   UNL     1      -1.855  -6.590  -0.014  0.00  0.00    +0.046 A 
ATOM      8  C   UNL     1      -2.825  -5.591  -0.000  0.00  0.00    +0.125 A 
ATOM      9  C   UNL     1      -2.459  -4.254   0.003  0.00  0.00    +0.092 A 
ATOM     10  C   UNL     1      -1.116  -3.904  -0.009  0.00  0.00    +0.143 A 
ATOM     11  O   UNL     1      -0.492  -2.706  -0.008  0.00  0.00    -0.451 OA
ENDROOT
BRANCH   1  18
ATOM     12  C   UNL     1       4.018   2.267  -0.024  0.00  0.00    +0.001 A 
ATOM     13  C   UNL     1       3.146   3.346  -0.010  0.00  0.00    +0.002 A 
ATOM     14  C   UNL     1       1.782   3.147   0.002  0.00  0.00    +0.026 A 
ATOM     15  C   UNL     1       1.269   1.854  -0.000  0.00  0.00    +0.047 A 
ATOM     16  C   UNL     1       2.153   0.763  -0.014  0.00  0.00    +0.007 A 
ATOM     17  C   UNL     1       3.529   0.979  -0.027  0.00  0.00    +0.010 A 
ATOM     18  C   UNL     1       1.308  -0.446  -0.013  0.00  0.00    +0.004 A 
ATOM     19  C   UNL     1       0.002  -0.004   0.002  0.00  0.00    +0.091 A 
ATOM     20  N   UNL     1      -0.016   1.352   0.009  0.00  0.00    -0.360 N 
ATOM     21  H   UNL     1      -0.821   1.893   0.016  0.00  0.00    +0.165 HD
ENDBRANCH   1  18
BRANCH   8  22
ATOM     22  O   UNL     1      -4.139  -5.929   0.011  0.00  0.00    -0.483 OA
BRANCH  22  23
ATOM     23  C   UNL     1      -4.450  -7.324   0.007  0.00  0.00    +0.324 C 
BRANCH  23  24
ATOM     24  C   UNL     1      -5.946  -7.505   0.021  0.00  0.00    +0.248 C 
ATOM     25  O   UNL     1      -6.675  -6.535   0.032  0.00  0.00    -0.272 OA
ATOM     26  N   UNL     1      -6.475  -8.745   0.020  0.00  0.00    -0.327 N 
ATOM     27  H   UNL     1      -5.893  -9.520   0.011  0.00  0.00    +0.145 HD
ATOM     28  H   UNL     1      -7.438  -8.861   0.028  0.00  0.00    +0.145 HD
ENDBRANCH  23  24
ENDBRANCH  22  23
ENDBRANCH   8  22
TORSDOF 4
