REMARK  Name = ZINC13068461
REMARK  5 active torsions:
REMARK  status: ('A' for Active; 'I' for Inactive)
REMARK    1  A    between atoms: C_3  and  O_12
REMARK    2  A    between atoms: C_6  and  N_7
REMARK    3  A    between atoms: O_12  and  S_13
REMARK    4  A    between atoms: S_13  and  C_16
REMARK    5  A    between atoms: C_20  and  C_22
REMARK                            x       y       z     vdW  Elec       q    Type
REMARK                         _______ _______ _______ _____ _____    ______ ____
ROOT
ATOM      1  S   UNL     1       0.024  -0.630   1.389  0.00  0.00    +0.151 S 
ATOM      2  O   UNL     1       0.251  -2.021   1.203  0.00  0.00    -0.131 OA
ATOM      3  O   UNL     1       0.875   0.180   2.188  0.00  0.00    -0.131 OA
ENDROOT
BRANCH   1   4
ATOM      4  C   UNL     1      -1.598  -0.470   2.058  0.00  0.00    +0.129 A 
ATOM      5  C   UNL     1      -1.931   0.650   2.800  0.00  0.00    +0.031 A 
ATOM      6  C   UNL     1      -3.203   0.788   3.324  0.00  0.00    +0.018 A 
ATOM      7  C   UNL     1      -4.147  -0.199   3.121  0.00  0.00    +0.032 A 
ATOM      8  C   UNL     1      -3.816  -1.335   2.378  0.00  0.00    +0.079 A 
ATOM      9  C   UNL     1      -2.531  -1.464   1.847  0.00  0.00    +0.046 A 
ATOM     10 BR   UNL     1      -5.885  -0.013   3.845  0.00  0.00    -0.049 Br
BRANCH   8  11
ATOM     11  C   UNL     1      -4.820  -2.395   2.156  0.00  0.00    +0.388 C 
ATOM     12  O   UNL     1      -5.937  -2.281   2.619  0.00  0.00    -0.241 OA
ATOM     13  O   UNL     1      -4.497  -3.489   1.439  0.00  0.00    -0.241 OA
ENDBRANCH   8  11
ENDBRANCH   1   4
BRANCH   1  14
ATOM     14  O   UNL     1       0.002  -0.004   0.002  0.00  0.00    -0.342 OA
BRANCH  14  17
ATOM     15  C   UNL     1       1.157   3.445   0.009  0.00  0.00    +0.031 A 
ATOM     16  C   UNL     1       1.176   2.065   0.002  0.00  0.00    +0.051 A 
ATOM     17  C   UNL     1      -0.016   1.355   0.009  0.00  0.00    +0.157 A 
ATOM     18  C   UNL     1      -1.227   2.032   0.019  0.00  0.00    +0.051 A 
ATOM     19  C   UNL     1      -1.246   3.413   0.032  0.00  0.00    +0.031 A 
ATOM     20  C   UNL     1      -0.054   4.123   0.024  0.00  0.00    +0.069 A 
BRANCH  20  21
ATOM     21  N   UNL     1      -0.073   5.527   0.032  0.00  0.00    -0.200 N 
ATOM     22  C   UNL     1      -1.157   6.332   0.047  0.00  0.00    +0.250 A 
ATOM     23  N   UNL     1      -0.724   7.566   0.049  0.00  0.00    -0.116 NA
ATOM     24  N   UNL     1       0.560   7.595   0.037  0.00  0.00    -0.023 NA
ATOM     25  N   UNL     1       1.033   6.395   0.032  0.00  0.00    -0.039 NA
ENDBRANCH  20  21
ENDBRANCH  14  17
ENDBRANCH   1  14
TORSDOF 5
