REMARK  Name = ZINC13576427
REMARK  5 active torsions:
REMARK  status: ('A' for Active; 'I' for Inactive)
REMARK    1  A    between atoms: C_4  and  C_7
REMARK    2  A    between atoms: C_13  and  C_15
REMARK    3  A    between atoms: C_15  and  C_16
REMARK    4  A    between atoms: N_18  and  N_19
REMARK    5  A    between atoms: C_20  and  C_21
REMARK                            x       y       z     vdW  Elec       q    Type
REMARK                         _______ _______ _______ _____ _____    ______ ____
ROOT
ATOM      1  C   UNL     1      -1.891  -3.817   0.152  0.00  0.00    +0.162 C 
ENDROOT
BRANCH   1   8
ATOM      2  C   UNL     1       0.627   2.106  -0.295  0.00  0.00    +0.250 C 
ATOM      3  O   UNL     1       1.495   1.415  -0.793  0.00  0.00    -0.270 OA
ATOM      4  N   UNL     1      -0.503   1.537   0.169  0.00  0.00    -0.259 N 
ATOM      5  C   UNL     1      -0.676   0.161   0.078  0.00  0.00    +0.188 A 
ATOM      6  N   UNL     1       0.127  -0.769  -0.419  0.00  0.00    -0.126 NA
ATOM      7  N   UNL     1      -0.191  -1.990  -0.422  0.00  0.00    -0.144 NA
ATOM      8  C   UNL     1      -1.337  -2.418   0.067  0.00  0.00    +0.112 A 
ATOM      9  S   UNL     1      -2.046  -0.865   0.606  0.00  0.00    -0.035 S 
ATOM     10  H   UNL     1      -1.197   2.088   0.563  0.00  0.00    +0.157 HD
BRANCH   2  14
ATOM     11  C   UNL     1       1.157   6.311  -0.019  0.00  0.00    +0.000 A 
ATOM     12  C   UNL     1       2.147   5.528  -0.586  0.00  0.00    +0.001 A 
ATOM     13  C   UNL     1       1.982   4.161  -0.679  0.00  0.00    +0.013 A 
ATOM     14  C   UNL     1       0.812   3.569  -0.199  0.00  0.00    +0.037 A 
ATOM     15  C   UNL     1      -0.185   4.365   0.367  0.00  0.00    +0.013 A 
ATOM     16  C   UNL     1      -0.004   5.730   0.459  0.00  0.00    +0.001 A 
ENDBRANCH   2  14
ENDBRANCH   1   8
BRANCH   1  17
ATOM     17  C   UNL     1      -1.472  -4.444   1.457  0.00  0.00    +0.239 C 
ATOM     18  O   UNL     1      -0.791  -3.817   2.240  0.00  0.00    -0.274 OA
ATOM     19  N   UNL     1      -1.855  -5.702   1.754  0.00  0.00    -0.207 N 
ATOM     20  H   UNL     1      -2.400  -6.204   1.127  0.00  0.00    +0.177 HD
BRANCH  19  21
ATOM     21  N   UNL     1      -1.466  -6.285   2.967  0.00  0.00    -0.188 NA
ATOM     22  C   UNL     1      -1.732  -7.533   3.202  0.00  0.00    +0.138 C 
BRANCH  22  23
ATOM     23  C   UNL     1      -1.995  -8.455   2.081  0.00  0.00    -0.001 A 
ATOM     24  C   UNL     1      -1.687  -8.072   0.773  0.00  0.00    +0.059 A 
ATOM     25  C   UNL     1      -1.935  -8.939  -0.275  0.00  0.00    +0.168 A 
ATOM     26  C   UNL     1      -2.492 -10.193  -0.025  0.00  0.00    +0.180 A 
ATOM     27  C   UNL     1      -2.798 -10.572   1.274  0.00  0.00    +0.064 A 
ATOM     28  C   UNL     1      -2.548  -9.714   2.325  0.00  0.00    +0.028 A 
ATOM     29 BR   UNL     1      -3.552 -12.274   1.607  0.00  0.00    -0.046 Br
ATOM     30  O   UNL     1      -2.635 -10.850  -1.214  0.00  0.00    -0.451 OA
ATOM     31  C   UNL     1      -1.786 -10.152  -2.144  0.00  0.00    +0.466 C 
ATOM     32  O   UNL     1      -1.731  -8.812  -1.619  0.00  0.00    -0.453 OA
ENDBRANCH  22  23
ENDBRANCH  19  21
ENDBRANCH   1  17
TORSDOF 5
