REMARK  Name = ZINC02490653
REMARK  9 active torsions:
REMARK  status: ('A' for Active; 'I' for Inactive)
REMARK    1  A    between atoms: C_1  and  C_2
REMARK    2  A    between atoms: C_2  and  C_3
REMARK    3  A    between atoms: C_3  and  C_4
REMARK    4  A    between atoms: C_4  and  O_5
REMARK    5  A    between atoms: O_5  and  C_6
REMARK    6  A    between atoms: C_9  and  C_12
REMARK    7  A    between atoms: C_17  and  O_26
REMARK    8  A    between atoms: C_21  and  N_25
REMARK    9  A    between atoms: C_22  and  C_23
REMARK                            x       y       z     vdW  Elec       q    Type
REMARK                         _______ _______ _______ _____ _____    ______ ____
ROOT
ATOM      1  C   UNL     1      -3.700   1.604   0.028  0.00  0.00    +0.098 C 
ATOM      2  C   UNL     1      -3.550   3.042   0.448  0.00  0.00    +0.008 A 
ATOM      3  C   UNL     1      -4.666   3.751   0.859  0.00  0.00    +0.012 A 
ATOM      4  C   UNL     1      -4.547   5.071   1.247  0.00  0.00    +0.046 A 
ATOM      5  C   UNL     1      -3.306   5.691   1.226  0.00  0.00    +0.120 A 
ATOM      6  C   UNL     1      -2.188   4.985   0.814  0.00  0.00    +0.092 A 
ATOM      7  C   UNL     1      -2.309   3.657   0.423  0.00  0.00    +0.138 A 
ATOM      8  O   UNL     1      -1.204   2.979   0.029  0.00  0.00    -0.441 OA
ATOM      9  C   UNL     1      -1.209   1.636   0.017  0.00  0.00    +0.199 C 
ATOM     10  C   UNL     1      -2.360   0.923   0.018  0.00  0.00    +0.098 C 
ENDROOT
BRANCH   1  14
ATOM     11  C   UNL     1      -5.401   1.441  -3.889  0.00  0.00    +0.121 A 
ATOM     12  C   UNL     1      -6.065   0.860  -2.818  0.00  0.00    +0.046 A 
ATOM     13  C   UNL     1      -5.513   0.913  -1.553  0.00  0.00    +0.008 A 
ATOM     14  C   UNL     1      -4.300   1.546  -1.353  0.00  0.00    -0.034 A 
ATOM     15  C   UNL     1      -3.639   2.131  -2.417  0.00  0.00    +0.008 A 
ATOM     16  C   UNL     1      -4.184   2.074  -3.686  0.00  0.00    +0.046 A 
BRANCH  11  17
ATOM     17  O   UNL     1      -5.942   1.389  -5.134  0.00  0.00    -0.492 OA
BRANCH  17  18
ATOM     18  C   UNL     1      -5.203   2.009  -6.189  0.00  0.00    +0.229 C 
BRANCH  18  19
ATOM     19  C   UNL     1      -5.964   1.850  -7.506  0.00  0.00    +0.041 C 
BRANCH  19  21
ATOM     20  C   UNL     1      -5.934   2.355  -9.953  0.00  0.00    +0.004 C 
ATOM     21  C   UNL     1      -5.173   2.513  -8.636  0.00  0.00    -0.000 C 
ENDBRANCH  19  21
ENDBRANCH  18  19
ENDBRANCH  17  18
ENDBRANCH  11  17
ENDBRANCH   1  14
BRANCH   9  22
ATOM     22  N   UNL     1      -0.011   0.966   0.007  0.00  0.00    -0.328 N 
ATOM     23  H   UNL     1       0.002  -0.004   0.002  0.00  0.00    +0.145 HD
ATOM     24  H   UNL     1       0.822   1.462   0.002  0.00  0.00    +0.145 HD
ENDBRANCH   9  22
BRANCH  10  25
ATOM     25  C   UNL     1      -2.300  -0.507   0.011  0.00  0.00    +0.101 C 
ATOM     26  N   UNL     1      -2.252  -1.642   0.004  0.00  0.00    -0.191 NA
ENDBRANCH  10  25
BRANCH   5  27
ATOM     27  O   UNL     1      -3.187   6.990   1.608  0.00  0.00    -0.507 OA
ATOM     28  H   UNL     1      -3.009   7.107   2.551  0.00  0.00    +0.292 HD
ENDBRANCH   5  27
TORSDOF 8
