REMARK  Name = ZINC42027041
REMARK  4 active torsions:
REMARK  status: ('A' for Active; 'I' for Inactive)
REMARK    1  A    between atoms: C_1  and  C_2
REMARK    2  A    between atoms: C_5  and  N_8
REMARK    3  A    between atoms: C_9  and  C_13
REMARK    4  A    between atoms: C_18  and  N_19
REMARK                            x       y       z     vdW  Elec       q    Type
REMARK                         _______ _______ _______ _____ _____    ______ ____
ROOT
ATOM      1  N   UNL     1       1.502  -4.000   0.002  0.00  0.00    -0.222 N 
ATOM      2  C   UNL     1       2.583  -4.808  -0.137  0.00  0.00    +0.184 A 
ATOM      3  N   UNL     1       2.140  -6.048  -0.136  0.00  0.00    -0.108 NA
ATOM      4  N   UNL     1       0.862  -6.069  -0.007  0.00  0.00    -0.023 NA
ATOM      5  N   UNL     1       0.401  -4.869   0.089  0.00  0.00    -0.043 NA
ENDROOT
BRANCH   1  10
ATOM      6  C   UNL     1       0.031   1.516   0.497  0.00  0.00    +0.007 C 
ATOM      7  C   UNL     1       0.047  -0.013   0.440  0.00  0.00    -0.014 C 
ATOM      8  C   UNL     1       0.509  -0.467  -0.947  0.00  0.00    +0.005 C 
ATOM      9  C   UNL     1       0.525  -1.996  -1.003  0.00  0.00    +0.027 C 
ATOM     10  C   UNL     1       1.487  -2.536   0.057  0.00  0.00    +0.111 C 
ATOM     11  C   UNL     1       1.025  -2.082   1.443  0.00  0.00    +0.027 C 
ATOM     12  C   UNL     1       1.009  -0.553   1.500  0.00  0.00    +0.005 C 
ENDBRANCH   1  10
BRANCH   2  13
ATOM     13  C   UNL     1       3.992  -4.378  -0.265  0.00  0.00    +0.044 A 
ATOM     14  C   UNL     1       4.522  -3.440   0.621  0.00  0.00    +0.051 A 
ATOM     15  C   UNL     1       5.838  -3.042   0.497  0.00  0.00    +0.124 A 
ATOM     16  C   UNL     1       6.636  -3.570  -0.507  0.00  0.00    +0.040 A 
ATOM     17  C   UNL     1       6.122  -4.499  -1.390  0.00  0.00    +0.026 A 
ATOM     18  C   UNL     1       4.803  -4.914  -1.274  0.00  0.00    +0.036 A 
ATOM     19  F   UNL     1       6.351  -2.134   1.356  0.00  0.00    -0.205 F 
BRANCH  18  20
ATOM     20  N   UNL     1       4.285  -5.857  -2.161  0.00  0.00    -0.357 N 
ATOM     21  H   UNL     1       3.361  -6.142  -2.081  0.00  0.00    +0.142 HD
ATOM     22  H   UNL     1       4.848  -6.227  -2.859  0.00  0.00    +0.142 HD
ENDBRANCH  18  20
ENDBRANCH   2  13
TORSDOF 3
