REMARK  Name = ZINC03877122
REMARK  3 active torsions:
REMARK  status: ('A' for Active; 'I' for Inactive)
REMARK    1  A    between atoms: C_8  and  C_13
REMARK    2  A    between atoms: C_13  and  C_14
REMARK    3  A    between atoms: N_16  and  C_17
REMARK                            x       y       z     vdW  Elec       q    Type
REMARK                         _______ _______ _______ _____ _____    ______ ____
ROOT
ATOM      1  C   UNL     1      -0.009   1.379   0.025  0.00  0.00    +0.001 A 
ATOM      2  C   UNL     1       1.181   2.094   0.009  0.00  0.00    +0.002 A 
ATOM      3  C   UNL     1       2.393   1.441  -0.015  0.00  0.00    +0.026 A 
ATOM      4  C   UNL     1       2.431   0.050  -0.022  0.00  0.00    +0.053 A 
ATOM      5  C   UNL     1       1.226  -0.673  -0.006  0.00  0.00    +0.045 A 
ATOM      6  C   UNL     1       0.007   0.002   0.018  0.00  0.00    +0.014 A 
ATOM      7  C   UNL     1       1.287  -2.147  -0.014  0.00  0.00    +0.197 A 
ATOM      8  C   UNL     1       2.556  -2.754  -0.038  0.00  0.00    +0.073 A 
ATOM      9  C   UNL     1       3.680  -1.986  -0.053  0.00  0.00    +0.257 A 
ATOM     10  O   UNL     1       4.885  -2.596  -0.077  0.00  0.00    -0.267 OA
ATOM     11  N   UNL     1       3.631  -0.629  -0.046  0.00  0.00    -0.322 N 
ATOM     12  H   UNL     1       4.460  -0.125  -0.058  0.00  0.00    +0.169 HD
ATOM     13  O   UNL     1       0.268  -2.819   0.000  0.00  0.00    -0.287 OA
ENDROOT
BRANCH   8  14
ATOM     14  C   UNL     1       2.670  -4.257  -0.047  0.00  0.00    +0.140 C 
BRANCH  14  15
ATOM     15  C   UNL     1       2.609  -4.774   1.367  0.00  0.00    +0.222 C 
ATOM     16  O   UNL     1       2.485  -3.998   2.291  0.00  0.00    -0.275 OA
ATOM     17  N   UNL     1       2.693  -6.098   1.605  0.00  0.00    -0.285 N 
ATOM     18  H   UNL     1       2.725  -6.723   0.863  0.00  0.00    +0.155 HD
BRANCH  17  19
ATOM     19  C   UNL     1       2.733  -6.571   2.921  0.00  0.00    +0.033 A 
ATOM     20  C   UNL     1       3.502  -7.684   3.237  0.00  0.00    +0.024 A 
ATOM     21  C   UNL     1       3.540  -8.149   4.537  0.00  0.00    +0.017 A 
ATOM     22  C   UNL     1       2.815  -7.506   5.524  0.00  0.00    +0.018 A 
ATOM     23  C   UNL     1       2.049  -6.397   5.213  0.00  0.00    +0.017 A 
ATOM     24  C   UNL     1       2.010  -5.925   3.915  0.00  0.00    +0.024 A 
ATOM     25 BR   UNL     1       2.870  -8.146   7.303  0.00  0.00    -0.050 Br
ENDBRANCH  17  19
ENDBRANCH  14  15
ENDBRANCH   8  14
TORSDOF 3
