REMARK  Name = ZINC02396947
REMARK  7 active torsions:
REMARK  status: ('A' for Active; 'I' for Inactive)
REMARK    1  A    between atoms: C_1  and  O_2
REMARK    2  A    between atoms: O_2  and  C_3
REMARK    3  A    between atoms: N_15  and  N_18
REMARK    4  A    between atoms: C_19  and  C_20
REMARK    5  A    between atoms: C_24  and  C_27
REMARK    6  A    between atoms: C_25  and  O_26
REMARK    7  A    between atoms: C_27  and  C_28
REMARK                            x       y       z     vdW  Elec       q    Type
REMARK                         _______ _______ _______ _____ _____    ______ ____
ROOT
ATOM      1  C   UNL     1       0.636  -0.618   1.035  0.00  0.00    +0.122 A 
ATOM      2  C   UNL     1       1.206   0.148   2.049  0.00  0.00    +0.046 A 
ATOM      3  C   UNL     1       1.833  -0.455   3.101  0.00  0.00    +0.016 A 
ATOM      4  C   UNL     1       1.905  -1.849   3.165  0.00  0.00    +0.026 A 
ATOM      5  C   UNL     1       1.332  -2.630   2.145  0.00  0.00    +0.053 A 
ATOM      6  C   UNL     1       0.692  -1.999   1.082  0.00  0.00    +0.072 A 
ATOM      7  N   UNL     1       1.542  -3.958   2.449  0.00  0.00    -0.349 N 
ATOM      8  H   UNL     1       1.246  -4.706   1.907  0.00  0.00    +0.166 HD
ATOM      9  C   UNL     1       2.237  -4.068   3.640  0.00  0.00    +0.133 A 
ATOM     10  C   UNL     1       2.489  -2.788   4.131  0.00  0.00    +0.103 A 
ATOM     11  N   UNL     1       3.158  -2.636   5.287  0.00  0.00    -0.233 NA
ATOM     12  C   UNL     1       3.578  -3.668   5.964  0.00  0.00    +0.227 A 
ATOM     13  N   UNL     1       3.363  -4.941   5.539  0.00  0.00    -0.184 N 
ATOM     14  C   UNL     1       2.698  -5.174   4.387  0.00  0.00    +0.298 A 
ATOM     15  O   UNL     1       2.501  -6.314   4.000  0.00  0.00    -0.263 OA
ENDROOT
BRANCH   1  17
ATOM     16  C   UNL     1      -0.007   1.425   0.004  0.00  0.00    +0.277 C 
ATOM     17  O   UNL     1       0.016  -0.004  -0.006  0.00  0.00    -0.495 OA
ENDBRANCH   1  17
BRANCH  13  18
ATOM     18  N   UNL     1       3.834  -6.018   6.301  0.00  0.00    -0.170 NA
ATOM     19  C   UNL     1       4.563  -5.799   7.354  0.00  0.00    +0.145 C 
BRANCH  19  20
ATOM     20  C   UNL     1       5.150  -6.931   8.091  0.00  0.00    +0.036 A 
ATOM     21  C   UNL     1       5.930  -6.700   9.228  0.00  0.00    +0.013 A 
ATOM     22  C   UNL     1       6.476  -7.764   9.913  0.00  0.00    +0.001 A 
ATOM     23  C   UNL     1       6.257  -9.061   9.480  0.00  0.00    +0.007 A 
ATOM     24  C   UNL     1       5.489  -9.302   8.358  0.00  0.00    -0.002 A 
ATOM     25  C   UNL     1       4.926  -8.246   7.660  0.00  0.00    +0.129 A 
BRANCH  25  26
ATOM     26  O   UNL     1       4.167  -8.482   6.559  0.00  0.00    -0.506 OA
ATOM     27  H   UNL     1       4.668  -8.507   5.733  0.00  0.00    +0.292 HD
ENDBRANCH  25  26
BRANCH  24  28
ATOM     28  C   UNL     1       5.256 -10.718   7.895  0.00  0.00    +0.065 C 
BRANCH  28  29
ATOM     29  C   UNL     1       6.269 -11.073   6.838  0.00  0.00    -0.030 C 
ATOM     30  C   UNL     1       7.027 -12.132   6.986  0.00  0.00    +0.004 C 
ENDBRANCH  28  29
ENDBRANCH  24  28
ENDBRANCH  19  20
ENDBRANCH  13  18
TORSDOF 6
