REMARK  Name = ZINC20991612
REMARK  7 active torsions:
REMARK  status: ('A' for Active; 'I' for Inactive)
REMARK    1  A    between atoms: C_1  and  C_2
REMARK    2  A    between atoms: C_2  and  C_3
REMARK    3  A    between atoms: C_2  and  C_4
REMARK    4  A    between atoms: C_2  and  C_5
REMARK    5  A    between atoms: C_5  and  O_7
REMARK    6  A    between atoms: O_7  and  C_8
REMARK    7  A    between atoms: C_8  and  C_9
REMARK                            x       y       z     vdW  Elec       q    Type
REMARK                         _______ _______ _______ _____ _____    ______ ____
ROOT
ATOM      1  C   UNL     1       1.051   3.506   0.011  0.00  0.00    +0.087 A 
ATOM      2  C   UNL     1       1.451   4.266   1.089  0.00  0.00    +0.097 A 
ATOM      3  C   UNL     1       1.246   5.646   1.078  0.00  0.00    +0.259 A 
ATOM      4  O   UNL     1       1.603   6.325   2.028  0.00  0.00    -0.267 OA
ATOM      5  N   UNL     1       0.639   6.236   0.005  0.00  0.00    -0.259 N 
ATOM      6  C   UNL     1       0.370   7.591  -0.127  0.00  0.00    +0.039 A 
ATOM      7  C   UNL     1      -0.232   8.014  -1.245  0.00  0.00    +0.013 A 
ATOM      8  S   UNL     1      -0.463   6.530  -2.189  0.00  0.00    -0.054 S 
ATOM      9  C   UNL     1       0.271   5.407  -1.018  0.00  0.00    +0.181 A 
ATOM     10  N   UNL     1       0.464   4.112  -1.018  0.00  0.00    -0.224 NA
ATOM     11  C   UNL     1      -0.619   9.412  -1.610  0.00  0.00    +0.044 C 
ATOM     12  C   UNL     1      -0.552  10.278  -0.344  0.00  0.00    +0.006 C 
ATOM     13  C   UNL     1       0.771   9.994   0.373  0.00  0.00    +0.006 C 
ATOM     14  C   UNL     1       0.747   8.586   0.970  0.00  0.00    +0.055 C 
ENDROOT
BRANCH   1  15
ATOM     15  C   UNL     1       1.268   2.015   0.001  0.00  0.00    +0.287 C 
BRANCH  15  16
ATOM     16  O   UNL     1      -0.016   1.338   0.009  0.00  0.00    -0.458 OA
BRANCH  16  17
ATOM     17  C   UNL     1       0.002  -0.004   0.002  0.00  0.00    +0.313 C 
ATOM     18  O   UNL     1       1.056  -0.594  -0.011  0.00  0.00    -0.250 OA
BRANCH  17  20
ATOM     19  C   UNL     1      -0.993  -2.276  -0.001  0.00  0.00    +0.022 C 
ATOM     20  C   UNL     1      -1.293  -0.775   0.010  0.00  0.00    +0.059 C 
ATOM     21  C   UNL     1      -2.088  -0.423   1.269  0.00  0.00    +0.022 C 
ATOM     22  C   UNL     1      -2.112  -0.410  -1.229  0.00  0.00    +0.022 C 
ENDBRANCH  17  20
ENDBRANCH  16  17
ENDBRANCH  15  16
ENDBRANCH   1  15
TORSDOF 4
