REMARK  Name = ZINC02926952
REMARK  10 active torsions:
REMARK  status: ('A' for Active; 'I' for Inactive)
REMARK    1  A    between atoms: C_1  and  C_2
REMARK    2  A    between atoms: C_2  and  C_3
REMARK    3  A    between atoms: C_3  and  C_5
REMARK    4  A    between atoms: C_3  and  S_14
REMARK    5  A    between atoms: N_7  and  C_8
REMARK    6  A    between atoms: C_8  and  C_9
REMARK    7  A    between atoms: S_14  and  C_15
REMARK    8  A    between atoms: C_19  and  C_23
REMARK    9  A    between atoms: N_26  and  C_27
REMARK   10  A    between atoms: C_32  and  C_33
REMARK                            x       y       z     vdW  Elec       q    Type
REMARK                         _______ _______ _______ _____ _____    ______ ____
ROOT
ATOM      1  C   UNL     1       1.321  -2.800  -1.200  0.00  0.00    +0.178 A 
ATOM      2  N   UNL     1       1.241  -4.106  -1.284  0.00  0.00    -0.201 NA
ATOM      3  C   UNL     1       1.227  -4.896  -0.201  0.00  0.00    +0.187 A 
ATOM      4  C   UNL     1       1.300  -4.324   1.076  0.00  0.00    +0.082 A 
ATOM      5  C   UNL     1       1.266  -5.375   2.010  0.00  0.00    +0.046 A 
ATOM      6  N   UNL     1       1.179  -6.502   1.357  0.00  0.00    -0.279 N 
ATOM      7  N   UNL     1       1.153  -6.243  -0.019  0.00  0.00    -0.153 NA
ATOM      8  H   UNL     1       1.139  -7.454   1.907  0.00  0.00    +0.189 HD
ATOM      9  C   UNL     1       1.314  -5.224   3.509  0.00  0.00    +0.066 C 
ATOM     10  C   UNL     1       1.390  -2.861   1.180  0.00  0.00    +0.124 A 
ATOM     11  N   UNL     1       1.459  -2.263   2.344  0.00  0.00    -0.384 N 
ATOM     12  N   UNL     1       1.397  -2.139  -0.004  0.00  0.00    -0.274 N 
ATOM     13  H   UNL     1       1.526  -1.167   2.396  0.00  0.00    +0.157 HD
ATOM     14  H   UNL     1       1.451  -2.858   3.269  0.00  0.00    +0.157 HD
ENDROOT
BRANCH  12  15
ATOM     15  C   UNL     1       1.480  -0.742   0.025  0.00  0.00    +0.055 A 
ATOM     16  C   UNL     1       0.323   0.024   0.075  0.00  0.00    +0.046 A 
ATOM     17  C   UNL     1       0.409   1.403   0.104  0.00  0.00    +0.043 A 
ATOM     18  C   UNL     1       1.647   2.020   0.082  0.00  0.00    +0.020 A 
ATOM     19  C   UNL     1       2.801   1.260   0.032  0.00  0.00    +0.007 A 
ATOM     20  C   UNL     1       2.721  -0.119   0.003  0.00  0.00    -0.026 A 
ATOM     21  C   UNL     1       3.979  -0.946  -0.052  0.00  0.00    +0.046 C 
ATOM     22 CL   UNL     1      -1.038   2.361   0.159  0.00  0.00    -0.083 Cl
ENDBRANCH  12  15
BRANCH   1  23
ATOM     23  S   UNL     1       1.333  -1.856  -2.688  0.00  0.00    -0.075 S 
BRANCH  23  24
ATOM     24  C   UNL     1       1.358  -3.193  -3.908  0.00  0.00    +0.140 C 
BRANCH  24  25
ATOM     25  C   UNL     1       0.035  -3.914  -3.891  0.00  0.00    +0.227 C 
ATOM     26  O   UNL     1      -0.963  -3.341  -3.508  0.00  0.00    -0.275 OA
ATOM     27  N   UNL     1      -0.040  -5.196  -4.301  0.00  0.00    -0.307 N 
ATOM     28  H   UNL     1       0.865  -5.716  -4.647  0.00  0.00    +0.149 HD
BRANCH  27  29
ATOM     29  C   UNL     1      -1.326  -5.896  -4.284  0.00  0.00    +0.178 C 
BRANCH  29  30
ATOM     30  C   UNL     1      -1.138  -7.305  -4.787  0.00  0.00    +0.122 A 
ATOM     31  C   UNL     1      -0.843  -8.377  -4.030  0.00  0.00    +0.046 A 
ATOM     32  C   UNL     1      -0.758  -9.485  -4.905  0.00  0.00    +0.041 A 
ATOM     33  C   UNL     1      -1.007  -9.023  -6.144  0.00  0.00    +0.195 A 
ATOM     34  O   UNL     1      -1.242  -7.703  -6.065  0.00  0.00    -0.466 OA
ENDBRANCH  29  30
ENDBRANCH  27  29
ENDBRANCH  24  25
BRANCH  24  36
ATOM     35  C   UNL     1       3.005  -1.999  -5.358  0.00  0.00    +0.005 C 
ATOM     36  C   UNL     1       1.602  -2.608  -5.300  0.00  0.00    +0.020 C 
ENDBRANCH  24  36
ENDBRANCH  23  24
ENDBRANCH   1  23
TORSDOF 7
