REMARK  Name = ZINC40941065
REMARK  3 active torsions:
REMARK  status: ('A' for Active; 'I' for Inactive)
REMARK    1  A    between atoms: C_6  and  C_7
REMARK    2  A    between atoms: C_7  and  C_9
REMARK    3  A    between atoms: C_7  and  O_17
REMARK                            x       y       z     vdW  Elec       q    Type
REMARK                         _______ _______ _______ _____ _____    ______ ____
ROOT
ATOM      1  C   UNL     1      -1.294  -0.774   0.010  0.00  0.00    +0.176 C 
ENDROOT
BRANCH   1   7
ATOM      2  C   UNL     1      -0.017   1.378   0.010  0.00  0.00    +0.010 A 
ATOM      3  C   UNL     1       1.170   2.088   0.002  0.00  0.00    +0.050 A 
ATOM      4  C   UNL     1       2.380   1.416  -0.013  0.00  0.00    +0.166 A 
ATOM      5  C   UNL     1       2.399   0.023  -0.021  0.00  0.00    +0.167 A 
ATOM      6  C   UNL     1       1.207  -0.682  -0.014  0.00  0.00    +0.056 A 
ATOM      7  C   UNL     1       0.002  -0.004   0.002  0.00  0.00    -0.011 A 
ATOM      8  O   UNL     1       3.698  -0.395  -0.036  0.00  0.00    -0.453 OA
ATOM      9  C   UNL     1       4.466   0.750  -0.450  0.00  0.00    +0.466 C 
ATOM     10  O   UNL     1       3.668   1.870  -0.024  0.00  0.00    -0.453 OA
ENDBRANCH   1   7
BRANCH   1  11
ATOM     11  C   UNL     1      -1.802  -0.916  -1.401  0.00  0.00    +0.004 A 
ATOM     12  C   UNL     1      -2.720  -0.010  -1.900  0.00  0.00    +0.009 A 
ATOM     13  C   UNL     1      -3.186  -0.140  -3.194  0.00  0.00    +0.020 A 
ATOM     14  C   UNL     1      -2.736  -1.177  -3.992  0.00  0.00    +0.042 A 
ATOM     15  C   UNL     1      -1.817  -2.084  -3.494  0.00  0.00    +0.040 A 
ATOM     16  C   UNL     1      -1.347  -1.950  -2.199  0.00  0.00    +0.048 A 
ATOM     17 CL   UNL     1      -0.190  -3.084  -1.575  0.00  0.00    -0.083 Cl
ATOM     18 CL   UNL     1      -3.322  -1.341  -5.617  0.00  0.00    -0.083 Cl
ENDBRANCH   1  11
BRANCH   1  19
ATOM     19  O   UNL     1      -2.259  -0.072   0.796  0.00  0.00    -0.382 OA
ATOM     20  H   UNL     1      -2.458   0.817   0.473  0.00  0.00    +0.211 HD
ENDBRANCH   1  19
TORSDOF 3
