REMARK  Name = ZINC36072060
REMARK  9 active torsions:
REMARK  status: ('A' for Active; 'I' for Inactive)
REMARK    1  A    between atoms: C_1  and  C_2
REMARK    2  A    between atoms: C_3  and  C_30
REMARK    3  A    between atoms: C_4  and  C_23
REMARK    4  A    between atoms: C_7  and  C_12
REMARK    5  A    between atoms: C_13  and  N_15
REMARK    6  A    between atoms: N_15  and  C_16
REMARK    7  A    between atoms: C_16  and  C_17
REMARK    8  A    between atoms: N_32  and  C_33
REMARK    9  A    between atoms: N_32  and  C_34
REMARK                            x       y       z     vdW  Elec       q    Type
REMARK                         _______ _______ _______ _____ _____    ______ ____
ROOT
ATOM      1  C   UNL     1       0.035   1.890   0.285  0.00  0.00    +0.066 C 
ATOM      2  C   UNL     1       0.048   0.384   0.332  0.00  0.00    +0.051 C 
ATOM      3  C   UNL     1      -1.124  -0.317   0.135  0.00  0.00    +0.060 C 
ATOM      4  C   UNL     1      -1.061  -1.827   0.191  0.00  0.00    +0.148 C 
ATOM      5  N   UNL     1       0.269  -2.439   0.455  0.00  0.00    -0.267 N 
ATOM      6  C   UNL     1       0.560  -3.786   0.548  0.00  0.00    +0.048 C 
ATOM      7  C   UNL     1       1.842  -4.134   0.796  0.00  0.00    +0.072 C 
ATOM      8  S   UNL     1       2.643  -2.545   0.898  0.00  0.00    -0.060 S 
ATOM      9  C   UNL     1       1.307  -1.566   0.622  0.00  0.00    +0.166 C 
ATOM     10  N   UNL     1       1.184  -0.257   0.555  0.00  0.00    -0.230 NA
ENDROOT
BRANCH   4  11
ATOM     11  C   UNL     1      -1.563  -2.362  -1.125  0.00  0.00    -0.022 A 
ATOM     12  C   UNL     1      -0.707  -2.452  -2.207  0.00  0.00    +0.007 A 
ATOM     13  C   UNL     1      -1.167  -2.942  -3.414  0.00  0.00    +0.020 A 
ATOM     14  C   UNL     1      -2.486  -3.343  -3.541  0.00  0.00    +0.041 A 
ATOM     15  C   UNL     1      -3.342  -3.252  -2.458  0.00  0.00    +0.020 A 
ATOM     16  C   UNL     1      -2.879  -2.767  -1.249  0.00  0.00    +0.007 A 
ATOM     17 CL   UNL     1      -3.065  -3.958  -5.057  0.00  0.00    -0.084 Cl
ENDBRANCH   4  11
BRANCH   3  18
ATOM     18  C   UNL     1      -2.335   0.349  -0.109  0.00  0.00    +0.246 C 
ATOM     19  O   UNL     1      -2.742   0.476  -1.251  0.00  0.00    -0.270 OA
ATOM     20  N   UNL     1      -3.048   0.848   0.920  0.00  0.00    -0.304 N 
ATOM     21  C   UNL     1      -4.356   1.462   0.675  0.00  0.00    +0.132 C 
ATOM     22  C   UNL     1      -2.517   0.776   2.283  0.00  0.00    +0.132 C 
ENDBRANCH   3  18
BRANCH   6  23
ATOM     23  C   UNL     1      -0.487  -4.804   0.385  0.00  0.00    +0.091 C 
ATOM     24  C   UNL     1      -0.204  -6.102   0.606  0.00  0.00    +0.239 C 
ATOM     25  O   UNL     1       1.070  -6.483   0.869  0.00  0.00    -0.271 OA
BRANCH  24  26
ATOM     26  N   UNL     1      -1.215  -7.048   0.566  0.00  0.00    -0.309 N 
ATOM     27  H   UNL     1      -2.113  -6.787   0.306  0.00  0.00    +0.149 HD
BRANCH  26  28
ATOM     28  C   UNL     1      -0.929  -8.442   0.915  0.00  0.00    +0.136 C 
BRANCH  28  29
ATOM     29  C   UNL     1      -2.175  -9.295   0.671  0.00  0.00    +0.135 C 
ATOM     30  C   UNL     1      -1.905 -10.768   1.067  0.00  0.00    +0.035 C 
ATOM     31  C   UNL     1      -3.346 -11.262   1.366  0.00  0.00    +0.031 C 
ATOM     32  C   UNL     1      -4.009 -10.000   1.960  0.00  0.00    +0.160 C 
ATOM     33  O   UNL     1      -3.248  -8.866   1.524  0.00  0.00    -0.375 OA
ENDBRANCH  28  29
ENDBRANCH  26  28
ENDBRANCH  24  26
ENDBRANCH   6  23
TORSDOF 6
