REMARK  Name = ZINC09189943
REMARK  7 active torsions:
REMARK  status: ('A' for Active; 'I' for Inactive)
REMARK    1  A    between atoms: C_1  and  C_2
REMARK    2  A    between atoms: N_8  and  C_9
REMARK    3  A    between atoms: C_9  and  C_10
REMARK    4  A    between atoms: C_26  and  C_30
REMARK    5  A    between atoms: C_27  and  N_29
REMARK    6  A    between atoms: C_30  and  O_32
REMARK    7  A    between atoms: O_32  and  C_33
REMARK                            x       y       z     vdW  Elec       q    Type
REMARK                         _______ _______ _______ _____ _____    ______ ____
ROOT
ATOM      1  C   UNL     1      -0.755  -6.233  -1.489  0.00  0.00    +0.064 C 
ATOM      2  C   UNL     1      -0.853  -4.794  -1.052  0.00  0.00    +0.023 A 
ATOM      3  C   UNL     1       0.275  -4.097  -0.796  0.00  0.00    +0.068 A 
ATOM      4  C   UNL     1       0.190  -2.751  -0.388  0.00  0.00    +0.142 A 
ATOM      5  C   UNL     1      -1.055  -2.170  -0.257  0.00  0.00    +0.083 A 
ATOM      6  C   UNL     1      -2.197  -2.932  -0.532  0.00  0.00    +0.260 A 
ATOM      7  O   UNL     1      -3.306  -2.432  -0.420  0.00  0.00    -0.267 OA
ATOM      8  N   UNL     1      -2.075  -4.215  -0.920  0.00  0.00    -0.310 N 
ATOM      9  C   UNL     1      -1.188  -0.738   0.175  0.00  0.00    +0.143 C 
ATOM     10  C   UNL     1      -1.712  -0.649   1.575  0.00  0.00    -0.002 A 
ATOM     11  C   UNL     1      -1.200  -1.100   2.772  0.00  0.00    +0.007 A 
ATOM     12  C   UNL     1      -1.953  -0.853   3.914  0.00  0.00    +0.000 A 
ATOM     13  C   UNL     1      -3.159  -0.185   3.849  0.00  0.00    +0.002 A 
ATOM     14  C   UNL     1      -3.680   0.273   2.650  0.00  0.00    +0.023 A 
ATOM     15  C   UNL     1      -2.934   0.031   1.495  0.00  0.00    +0.038 A 
ATOM     16  N   UNL     1      -3.210   0.370   0.183  0.00  0.00    -0.284 N 
ATOM     17  C   UNL     1      -2.242  -0.042  -0.662  0.00  0.00    +0.237 C 
ATOM     18  O   UNL     1      -2.220   0.116  -1.864  0.00  0.00    -0.274 OA
ATOM     19  C   UNL     1       0.124  -0.021   0.045  0.00  0.00    +0.117 C 
ATOM     20  C   UNL     1       1.286  -0.709  -0.106  0.00  0.00    +0.196 C 
ATOM     21  O   UNL     1       1.316  -2.052  -0.130  0.00  0.00    -0.441 OA
ATOM     22  H   UNL     1      -4.007   0.848  -0.097  0.00  0.00    +0.155 HD
ENDROOT
BRANCH  20  23
ATOM     23  N   UNL     1       2.459  -0.015  -0.230  0.00  0.00    -0.329 N 
ATOM     24  H   UNL     1       3.276  -0.371   0.154  0.00  0.00    +0.145 HD
ATOM     25  H   UNL     1       2.474   0.832  -0.702  0.00  0.00    +0.145 HD
ENDBRANCH  20  23
BRANCH  19  26
ATOM     26  C   UNL     1       0.151   1.382   0.073  0.00  0.00    +0.341 C 
ATOM     27  O   UNL     1       1.218   1.970   0.077  0.00  0.00    -0.245 OA
BRANCH  26  28
ATOM     28  O   UNL     1      -1.005   2.079   0.090  0.00  0.00    -0.465 OA
ATOM     29  C   UNL     1      -0.903   3.504   0.118  0.00  0.00    +0.280 C 
ENDBRANCH  26  28
ENDBRANCH  19  26
BRANCH   8  30
ATOM     30  C   UNL     1      -3.279  -5.000  -1.205  0.00  0.00    +0.156 C 
BRANCH  30  31
ATOM     31  C   UNL     1      -3.566  -4.966  -2.708  0.00  0.00    +0.138 C 
ATOM     32  C   UNL     1      -4.875  -5.732  -3.023  0.00  0.00    +0.035 C 
ATOM     33  C   UNL     1      -5.300  -5.054  -4.354  0.00  0.00    +0.031 C 
ATOM     34  C   UNL     1      -4.822  -3.600  -4.149  0.00  0.00    +0.160 C 
ATOM     35  O   UNL     1      -3.806  -3.617  -3.139  0.00  0.00    -0.375 OA
ENDBRANCH  30  31
ENDBRANCH   8  30
TORSDOF 5
