REMARK  Name = ZINC09353121
REMARK  8 active torsions:
REMARK  status: ('A' for Active; 'I' for Inactive)
REMARK    1  A    between atoms: C_1  and  C_2
REMARK    2  A    between atoms: C_2  and  C_34
REMARK    3  A    between atoms: C_5  and  C_26
REMARK    4  A    between atoms: C_9  and  C_20
REMARK    5  A    between atoms: N_12  and  C_19
REMARK    6  A    between atoms: N_15  and  C_18
REMARK    7  A    between atoms: C_29  and  O_33
REMARK    8  A    between atoms: C_30  and  O_32
REMARK                            x       y       z     vdW  Elec       q    Type
REMARK                         _______ _______ _______ _____ _____    ______ ____
ROOT
ATOM      1  C   UNL     1       0.120   0.182   0.583  0.00  0.00    +0.036 C 
ATOM      2  C   UNL     1       0.120   1.710   0.505  0.00  0.00    +0.064 C 
ATOM      3  C   UNL     1      -0.192   2.155  -0.929  0.00  0.00    +0.189 C 
ATOM      4  O   UNL     1      -0.451   3.561  -0.951  0.00  0.00    -0.364 OA
ATOM      5  C   UNL     1      -1.695   3.935  -0.346  0.00  0.00    +0.197 C 
ATOM      6  C   UNL     1      -1.767   3.277   1.015  0.00  0.00    +0.078 A 
ATOM      7  N   UNL     1      -0.918   2.252   1.392  0.00  0.00    -0.331 N 
ATOM      8  C   UNL     1      -1.199   1.849   2.662  0.00  0.00    +0.064 A 
ATOM      9  C   UNL     1      -2.240   2.615   3.119  0.00  0.00    +0.089 A 
ATOM     10  C   UNL     1      -2.595   3.544   2.018  0.00  0.00    +0.083 A 
ATOM     11  N   UNL     1      -3.643   4.456   2.212  0.00  0.00    -0.294 N 
ATOM     12  C   UNL     1      -4.272   4.429   3.407  0.00  0.00    +0.332 A 
ATOM     13  O   UNL     1      -5.182   5.218   3.575  0.00  0.00    -0.246 OA
ATOM     14  N   UNL     1      -3.980   3.608   4.420  0.00  0.00    -0.263 N 
ATOM     15  C   UNL     1      -2.993   2.676   4.377  0.00  0.00    +0.266 A 
ATOM     16  O   UNL     1      -2.751   1.942   5.316  0.00  0.00    -0.267 OA
ATOM     17  C   UNL     1      -4.770   3.719   5.649  0.00  0.00    +0.157 C 
ATOM     18  C   UNL     1      -4.039   5.398   1.162  0.00  0.00    +0.154 C 
ATOM     19  C   UNL     1       1.490   2.248   0.925  0.00  0.00    +0.036 C 
ENDROOT
BRANCH   8  20
ATOM     20  C   UNL     1      -0.507   0.782   3.411  0.00  0.00    -0.001 A 
ATOM     21  C   UNL     1      -1.185  -0.393   3.746  0.00  0.00    +0.010 A 
ATOM     22  C   UNL     1      -0.531  -1.389   4.440  0.00  0.00    +0.001 A 
ATOM     23  C   UNL     1       0.790  -1.222   4.816  0.00  0.00    +0.000 A 
ATOM     24  C   UNL     1       1.466  -0.058   4.493  0.00  0.00    +0.001 A 
ATOM     25  C   UNL     1       0.826   0.944   3.793  0.00  0.00    +0.010 A 
ENDBRANCH   8  20
BRANCH   5  26
ATOM     26  C   UNL     1      -1.758   5.433  -0.193  0.00  0.00    -0.009 A 
ATOM     27  C   UNL     1      -2.651   6.166  -0.951  0.00  0.00    +0.010 A 
ATOM     28  C   UNL     1      -2.717   7.540  -0.810  0.00  0.00    +0.049 A 
ATOM     29  C   UNL     1      -1.878   8.186   0.084  0.00  0.00    +0.158 A 
ATOM     30  C   UNL     1      -0.976   7.448   0.844  0.00  0.00    +0.159 A 
ATOM     31  C   UNL     1      -0.919   6.071   0.702  0.00  0.00    +0.055 A 
BRANCH  30  32
ATOM     32  O   UNL     1      -0.151   8.077   1.723  0.00  0.00    -0.503 OA
ATOM     33  H   UNL     1       0.696   8.349   1.343  0.00  0.00    +0.292 HD
ENDBRANCH  30  32
BRANCH  29  34
ATOM     34  O   UNL     1      -1.938   9.537   0.220  0.00  0.00    -0.503 OA
ATOM     35  H   UNL     1      -1.347  10.019  -0.376  0.00  0.00    +0.292 HD
ENDBRANCH  29  34
ENDBRANCH   5  26
TORSDOF 4
