REMARK  Name = ZINC44430252
REMARK  3 active torsions:
REMARK  status: ('A' for Active; 'I' for Inactive)
REMARK    1  A    between atoms: C_9  and  N_11
REMARK    2  A    between atoms: C_13  and  C_18
REMARK    3  A    between atoms: C_20  and  C_23
REMARK                            x       y       z     vdW  Elec       q    Type
REMARK                         _______ _______ _______ _____ _____    ______ ____
ROOT
ATOM      1  N   UNL     1       4.147  -1.058   1.302  0.00  0.00    -0.294 N 
ATOM      2  C   UNL     1       5.544  -0.746   1.627  0.00  0.00    +0.120 C 
ATOM      3  C   UNL     1       5.807  -1.414   2.994  0.00  0.00    +0.086 C 
ATOM      4  C   UNL     1       4.384  -1.472   3.596  0.00  0.00    +0.109 C 
ATOM      5  C   UNL     1       3.469  -1.457   2.392  0.00  0.00    +0.217 C 
ATOM      6  O   UNL     1       2.296  -1.763   2.407  0.00  0.00    -0.276 OA
ENDROOT
BRANCH   1  15
ATOM      7  C   UNL     1      -0.017   1.377   0.010  0.00  0.00    +0.000 A 
ATOM      8  C   UNL     1       1.172   2.083   0.002  0.00  0.00    +0.000 A 
ATOM      9  C   UNL     1       2.376   1.406  -0.013  0.00  0.00    +0.006 A 
ATOM     10  C   UNL     1       2.396   0.021  -0.021  0.00  0.00    -0.024 A 
ATOM     11  C   UNL     1       1.208  -0.685  -0.013  0.00  0.00    -0.042 A 
ATOM     12  C   UNL     1       0.002  -0.004   0.002  0.00  0.00    +0.004 A 
ATOM     13  C   UNL     1       1.496  -2.171  -0.025  0.00  0.00    +0.037 C 
ATOM     14  C   UNL     1       2.966  -2.294  -0.480  0.00  0.00    +0.032 C 
ATOM     15  C   UNL     1       3.564  -0.942  -0.037  0.00  0.00    +0.107 C 
ENDBRANCH   1  15
BRANCH   3  16
ATOM     16  C   UNL     1       6.718  -0.565   3.843  0.00  0.00    +0.177 A 
ATOM     17  N   UNL     1       7.910  -0.938   4.311  0.00  0.00    -0.190 NA
ATOM     18  C   UNL     1       8.444   0.038   5.014  0.00  0.00    +0.279 A 
ATOM     19  O   UNL     1       7.584   1.073   5.005  0.00  0.00    -0.331 OA
ATOM     20  N   UNL     1       6.470   0.654   4.231  0.00  0.00    -0.060 NA
BRANCH  18  21
ATOM     21  C   UNL     1       9.753   0.004   5.691  0.00  0.00    +0.157 A 
ATOM     22  C   UNL     1      10.350   1.088   6.481  0.00  0.00    +0.032 A 
ATOM     23  C   UNL     1       9.938   2.377   6.826  0.00  0.00    +0.012 A 
ATOM     24  C   UNL     1      10.746   3.162   7.596  0.00  0.00    +0.001 A 
ATOM     25  C   UNL     1      11.975   2.691   8.039  0.00  0.00    +0.002 A 
ATOM     26  C   UNL     1      12.400   1.433   7.715  0.00  0.00    +0.028 A 
ATOM     27  C   UNL     1      11.594   0.611   6.930  0.00  0.00    +0.067 A 
ATOM     28  N   UNL     1      11.732  -0.665   6.445  0.00  0.00    -0.276 N 
ATOM     29  H   UNL     1      12.496  -1.244   6.597  0.00  0.00    +0.189 HD
ATOM     30  N   UNL     1      10.596  -1.004   5.703  0.00  0.00    -0.168 NA
ENDBRANCH  18  21
ENDBRANCH   3  16
TORSDOF 3
