REMARK  Name = ZINC43123187
REMARK  9 active torsions:
REMARK  status: ('A' for Active; 'I' for Inactive)
REMARK    1  A    between atoms: C_1  and  C_2
REMARK    2  A    between atoms: C_5  and  C_11
REMARK    3  A    between atoms: C_6  and  C_10
REMARK    4  A    between atoms: C_7  and  O_8
REMARK    5  A    between atoms: O_8  and  C_9
REMARK    6  A    between atoms: C_11  and  N_12
REMARK    7  A    between atoms: C_24  and  C_26
REMARK    8  A    between atoms: C_26  and  C_27
REMARK    9  A    between atoms: C_26  and  C_28
REMARK                            x       y       z     vdW  Elec       q    Type
REMARK                         _______ _______ _______ _____ _____    ______ ____
ROOT
ATOM      1  N   UNL     1      -1.375  -4.691  -0.432  0.00  0.00    -0.296 N 
ATOM      2  C   UNL     1      -1.859  -5.071   0.813  0.00  0.00    +0.150 A 
ATOM      3  C   UNL     1      -3.233  -4.960   1.063  0.00  0.00    +0.111 A 
ATOM      4  C   UNL     1      -3.713  -5.345   2.302  0.00  0.00    +0.157 A 
ATOM      5  N   UNL     1      -2.854  -5.801   3.207  0.00  0.00    -0.201 NA
ATOM      6  C   UNL     1      -1.560  -5.890   2.939  0.00  0.00    +0.216 A 
ATOM      7  N   UNL     1      -1.061  -5.533   1.762  0.00  0.00    -0.198 NA
ATOM      8  N   UNL     1      -0.702  -6.370   3.916  0.00  0.00    -0.327 N 
ATOM      9 CL   UNL     1      -5.407  -5.233   2.668  0.00  0.00    -0.060 Cl
ATOM     10  N   UNL     1      -4.083  -4.461   0.068  0.00  0.00    -0.279 N 
ATOM     11  C   UNL     1      -3.651  -4.351  -1.205  0.00  0.00    +0.238 C 
ATOM     12  O   UNL     1      -4.380  -3.872  -2.047  0.00  0.00    -0.273 OA
ATOM     13  C   UNL     1      -2.273  -4.813  -1.590  0.00  0.00    +0.164 C 
ATOM     14  H   UNL     1      -1.052  -6.635   4.781  0.00  0.00    +0.145 HD
ATOM     15  H   UNL     1       0.248  -6.441   3.734  0.00  0.00    +0.145 HD
ATOM     16  H   UNL     1      -4.987  -4.194   0.295  0.00  0.00    +0.155 HD
ENDROOT
BRANCH  13  17
ATOM     17  C   UNL     1      -2.335  -6.275  -2.036  0.00  0.00    +0.012 C 
ATOM     18  C   UNL     1      -3.269  -6.401  -3.241  0.00  0.00    +0.009 C 
ATOM     19  C   UNL     1      -0.933  -6.749  -2.426  0.00  0.00    +0.009 C 
ENDBRANCH  13  17
BRANCH   1  20
ATOM     20  C   UNL     1      -0.011  -4.178  -0.586  0.00  0.00    +0.160 C 
BRANCH  20  25
ATOM     21  C   UNL     1      -0.043   1.429   0.628  0.00  0.00    +0.049 C 
ATOM     22  C   UNL     1       0.005  -0.042   0.304  0.00  0.00    +0.007 A 
ATOM     23  C   UNL     1      -1.152  -0.795   0.299  0.00  0.00    +0.089 A 
ATOM     24  N   UNL     1      -1.118  -2.084   0.017  0.00  0.00    -0.362 N 
ATOM     25  C   UNL     1       0.010  -2.705  -0.271  0.00  0.00    +0.040 A 
ATOM     26  C   UNL     1       1.209  -2.022  -0.287  0.00  0.00    +0.012 A 
ATOM     27  C   UNL     1       1.216  -0.659   0.000  0.00  0.00    +0.129 A 
ATOM     28  C   UNL     1       2.492  -2.740  -0.617  0.00  0.00    +0.049 C 
ATOM     29  H   UNL     1      -1.946  -2.589   0.021  0.00  0.00    +0.165 HD
BRANCH  27  30
ATOM     30  O   UNL     1       2.374   0.049  -0.010  0.00  0.00    -0.494 OA
ATOM     31  C   UNL     1       3.101   0.121   1.217  0.00  0.00    +0.277 C 
ENDBRANCH  27  30
ENDBRANCH  20  25
ENDBRANCH   1  20
TORSDOF 4
