REMARK  Name = ZINC39685908
REMARK  11 active torsions:
REMARK  status: ('A' for Active; 'I' for Inactive)
REMARK    1  A    between atoms: C_1  and  C_2
REMARK    2  A    between atoms: C_2  and  C_3
REMARK    3  A    between atoms: C_2  and  C_4
REMARK    4  A    between atoms: C_4  and  C_6
REMARK    5  A    between atoms: C_4  and  N_13
REMARK    6  A    between atoms: N_8  and  C_9
REMARK    7  A    between atoms: C_9  and  C_10
REMARK    8  A    between atoms: C_9  and  C_11
REMARK    9  A    between atoms: C_9  and  C_12
REMARK   10  A    between atoms: C_14  and  C_16
REMARK   11  A    between atoms: C_27  and  C_29
REMARK                            x       y       z     vdW  Elec       q    Type
REMARK                         _______ _______ _______ _____ _____    ______ ____
ROOT
ATOM      1  C   UNL     1      -0.441  -3.956   1.571  0.00  0.00    +0.100 C 
ATOM      2  C   UNL     1      -1.546  -4.868   0.993  0.00  0.00    +0.121 C 
ATOM      3  N   UNL     1      -1.582  -6.036   1.904  0.00  0.00    -0.300 N 
ATOM      4  C   UNL     1      -1.395  -5.455   3.255  0.00  0.00    +0.115 C 
ATOM      5  C   UNL     1      -0.345  -4.343   3.056  0.00  0.00    -0.004 C 
ATOM      6  C   UNL     1       1.050  -4.872   3.375  0.00  0.00    -0.010 C 
ATOM      7  C   UNL     1       1.139  -5.198   4.868  0.00  0.00    -0.082 C 
ATOM      8  N   UNL     1       0.861  -3.988   5.652  0.00  0.00    +0.379 N 
ATOM      9  C   UNL     1      -0.515  -3.539   5.409  0.00  0.00    -0.082 C 
ATOM     10  C   UNL     1      -0.673  -3.143   3.938  0.00  0.00    -0.010 C 
ATOM     11  C   UNL     1      -1.748  -7.333   1.579  0.00  0.00    +0.219 C 
ATOM     12  O   UNL     1      -1.755  -8.180   2.447  0.00  0.00    -0.275 OA
ATOM     13  H   UNL     1       0.979  -4.190   6.633  0.00  0.00    -0.086 HD
ATOM     14  H   UNL     1       1.504  -3.259   5.381  0.00  0.00    -0.086 HD
ENDROOT
BRANCH  11  15
ATOM     15  C   UNL     1      -1.925  -7.731   0.136  0.00  0.00    +0.079 C 
ATOM     16  C   UNL     1      -3.175  -7.054  -0.433  0.00  0.00    +0.041 C 
ATOM     17  C   UNL     1      -3.390  -7.525  -1.874  0.00  0.00    +0.160 C 
ATOM     18  O   UNL     1      -3.508  -8.949  -1.895  0.00  0.00    -0.380 OA
ATOM     19  C   UNL     1      -2.349  -9.637  -1.418  0.00  0.00    +0.160 C 
ATOM     20  C   UNL     1      -2.092  -9.251   0.041  0.00  0.00    +0.041 C 
ENDBRANCH  11  15
BRANCH   1  22
ATOM     21  N   UNL     1      -2.060  -2.100   1.804  0.00  0.00    -0.303 N 
ATOM     22  C   UNL     1      -0.830  -2.506   1.431  0.00  0.00    +0.219 C 
ATOM     23  O   UNL     1      -0.037  -1.706   0.983  0.00  0.00    -0.275 OA
ATOM     24  H   UNL     1      -2.669  -2.725   2.227  0.00  0.00    +0.149 HD
BRANCH  21  25
ATOM     25  C   UNL     1      -2.476  -0.715   1.569  0.00  0.00    +0.161 C 
BRANCH  25  26
ATOM     26  C   UNL     1      -3.550  -0.339   2.557  0.00  0.00    +0.234 C 
ATOM     27  O   UNL     1      -4.151  -1.204   3.158  0.00  0.00    -0.274 OA
ATOM     28  N   UNL     1      -3.841   0.959   2.774  0.00  0.00    -0.309 N 
ATOM     29  H   UNL     1      -3.312   1.652   2.350  0.00  0.00    +0.149 HD
BRANCH  28  30
ATOM     30  C   UNL     1      -4.957   1.322   3.650  0.00  0.00    +0.026 C 
ATOM     31  C   UNL     1      -4.710   0.760   5.051  0.00  0.00    +0.031 C 
ATOM     32  C   UNL     1      -5.072   2.846   3.725  0.00  0.00    +0.031 C 
ATOM     33  C   UNL     1      -6.257   0.740   3.090  0.00  0.00    +0.031 C 
ENDBRANCH  28  30
ENDBRANCH  25  26
BRANCH  25  35
ATOM     34  C   UNL     1      -1.916  -0.905  -0.859  0.00  0.00    +0.009 C 
ATOM     35  C   UNL     1      -3.023  -0.582   0.146  0.00  0.00    +0.012 C 
ATOM     36  C   UNL     1      -4.187  -1.556  -0.047  0.00  0.00    +0.009 C 
ENDBRANCH  25  35
ENDBRANCH  21  25
ENDBRANCH   1  22
TORSDOF 6
