REMARK  Name = ZINC64664933
REMARK  10 active torsions:
REMARK  status: ('A' for Active; 'I' for Inactive)
REMARK    1  A    between atoms: C_1  and  C_2
REMARK    2  A    between atoms: C_2  and  C_3
REMARK    3  A    between atoms: C_3  and  C_4
REMARK    4  A    between atoms: C_3  and  C_5
REMARK    5  A    between atoms: C_5  and  C_6
REMARK    6  A    between atoms: C_5  and  N_22
REMARK    7  A    between atoms: N_8  and  C_9
REMARK    8  A    between atoms: C_9  and  C_10
REMARK    9  A    between atoms: N_14  and  C_16
REMARK   10  A    between atoms: C_16  and  C_17
REMARK                            x       y       z     vdW  Elec       q    Type
REMARK                         _______ _______ _______ _____ _____    ______ ____
ROOT
ATOM      1  C   UNL     1       2.408   1.335   1.415  0.00  0.00    +0.234 C 
ATOM      2  O   UNL     1       3.136   1.784   2.275  0.00  0.00    -0.274 OA
ATOM      3  N   UNL     1       1.920   2.145   0.455  0.00  0.00    -0.314 N 
ATOM      4  H   UNL     1       1.286   1.800  -0.194  0.00  0.00    +0.149 HD
ENDROOT
BRANCH   1   5
ATOM      5  C   UNL     1       2.048  -0.129   1.421  0.00  0.00    +0.163 C 
BRANCH   5   6
ATOM      6  N   UNL     1       3.026  -0.868   2.224  0.00  0.00    -0.288 N 
ATOM      7  C   UNL     1       3.236  -2.179   1.990  0.00  0.00    +0.298 C 
ATOM      8  O   UNL     1       2.613  -2.748   1.114  0.00  0.00    -0.253 OA
ATOM      9  N   UNL     1       4.135  -2.859   2.729  0.00  0.00    -0.313 N 
ATOM     10  H   UNL     1       3.522  -0.414   2.923  0.00  0.00    +0.151 HD
ATOM     11  H   UNL     1       4.631  -2.406   3.428  0.00  0.00    +0.146 HD
ATOM     12  H   UNL     1       4.286  -3.803   2.561  0.00  0.00    +0.146 HD
ENDBRANCH   5   6
BRANCH   5  13
ATOM     13  C   UNL     1       0.653  -0.309   2.024  0.00  0.00    +0.015 C 
ATOM     14  C   UNL     1       0.680   0.090   3.501  0.00  0.00    +0.010 C 
BRANCH  13  16
ATOM     15  C   UNL     1       0.054  -2.129   0.420  0.00  0.00    +0.004 C 
ATOM     16  C   UNL     1       0.229  -1.773   1.898  0.00  0.00    +0.002 C 
ENDBRANCH  13  16
ENDBRANCH   5  13
ENDBRANCH   1   5
BRANCH   3  17
ATOM     17  C   UNL     1       2.347   3.545   0.390  0.00  0.00    +0.106 C 
BRANCH  17  18
ATOM     18  C   UNL     1       1.554   4.270  -0.699  0.00  0.00    -0.011 C 
ATOM     19  C   UNL     1       0.067   4.268  -0.336  0.00  0.00    +0.001 C 
ATOM     20  C   UNL     1      -0.707   5.063  -1.392  0.00  0.00    -0.018 C 
ATOM     21  C   UNL     1      -0.133   6.479  -1.479  0.00  0.00    -0.078 C 
ATOM     22  N   UNL     1       1.284   6.414  -1.855  0.00  0.00    +0.383 N 
ATOM     23  C   UNL     1       2.045   5.715  -0.811  0.00  0.00    -0.073 C 
ATOM     24  H   UNL     1       1.377   5.916  -2.727  0.00  0.00    -0.081 HD
BRANCH  22  25
ATOM     25  C   UNL     1       1.811   7.776  -2.012  0.00  0.00    -0.036 C 
BRANCH  25  26
ATOM     26  C   UNL     1       1.121   8.450  -3.170  0.00  0.00    -0.027 A 
ATOM     27  C   UNL     1      -0.009   9.199  -3.172  0.00  0.00    +0.009 A 
ATOM     28  C   UNL     1      -0.463   9.724  -4.367  0.00  0.00    +0.008 A 
ATOM     29  C   UNL     1       0.236   9.476  -5.502  0.00  0.00    +0.045 A 
ATOM     30  S   UNL     1       1.584   8.476  -4.894  0.00  0.00    -0.103 S 
ENDBRANCH  25  26
ENDBRANCH  22  25
ENDBRANCH  17  18
ENDBRANCH   3  17
TORSDOF 8
