REMARK  Name = ZINC20908297
REMARK  10 active torsions:
REMARK  status: ('A' for Active; 'I' for Inactive)
REMARK    1  A    between atoms: C_1  and  C_2
REMARK    2  A    between atoms: C_5  and  C_8
REMARK    3  A    between atoms: N_9  and  N_10
REMARK    4  A    between atoms: C_13  and  S_16
REMARK    5  A    between atoms: S_16  and  C_17
REMARK    6  A    between atoms: C_17  and  C_18
REMARK    7  A    between atoms: N_20  and  C_21
REMARK    8  A    between atoms: C_24  and  S_27
REMARK    9  A    between atoms: S_27  and  N_30
REMARK   10  A    between atoms: N_30  and  C_31
REMARK                            x       y       z     vdW  Elec       q    Type
REMARK                         _______ _______ _______ _____ _____    ______ ____
ROOT
ATOM      1  C   UNL     1     -12.107   3.528   0.075  0.00  0.00    +0.227 C 
ATOM      2  O   UNL     1     -12.694   2.466   0.063  0.00  0.00    -0.275 OA
ATOM      3  N   UNL     1     -12.803   4.682   0.087  0.00  0.00    -0.285 N 
ATOM      4  H   UNL     1     -12.274   5.642   0.174  0.00  0.00    +0.155 HD
ENDROOT
BRANCH   3   5
ATOM      5  C   UNL     1     -14.198   4.659  -0.013  0.00  0.00    +0.034 A 
ATOM      6  C   UNL     1     -14.864   5.668  -0.696  0.00  0.00    +0.025 A 
ATOM      7  C   UNL     1     -16.241   5.639  -0.797  0.00  0.00    +0.030 A 
ATOM      8  C   UNL     1     -16.958   4.612  -0.210  0.00  0.00    +0.105 A 
ATOM      9  C   UNL     1     -16.298   3.609   0.476  0.00  0.00    +0.030 A 
ATOM     10  C   UNL     1     -14.921   3.629   0.576  0.00  0.00    +0.025 A 
BRANCH   8  11
ATOM     11  S   UNL     1     -18.715   4.583  -0.336  0.00  0.00    +0.059 S 
ATOM     12  O   UNL     1     -19.052   5.338  -1.491  0.00  0.00    -0.153 OA
ATOM     13  O   UNL     1     -19.111   3.228  -0.169  0.00  0.00    -0.153 OA
BRANCH  11  14
ATOM     14  N   UNL     1     -19.313   5.415   0.965  0.00  0.00    -0.187 NA
ATOM     15  H   UNL     1     -19.762   4.857   1.800  0.00  0.00    +0.148 HD
BRANCH  14  16
ATOM     16  C   UNL     1     -19.051   6.850   1.100  0.00  0.00    +0.077 C 
ATOM     17  C   UNL     1     -17.825   7.062   1.991  0.00  0.00    +0.020 C 
ATOM     18  C   UNL     1     -17.551   8.561   2.132  0.00  0.00    +0.002 C 
ATOM     19  C   UNL     1     -18.765   9.244   2.764  0.00  0.00    +0.000 C 
ATOM     20  C   UNL     1     -19.991   9.032   1.873  0.00  0.00    +0.002 C 
ATOM     21  C   UNL     1     -20.265   7.533   1.732  0.00  0.00    +0.020 C 
ENDBRANCH  14  16
ENDBRANCH  11  14
ENDBRANCH   8  11
ENDBRANCH   3   5
BRANCH   1  22
ATOM     22  C   UNL     1     -10.600   3.556   0.077  0.00  0.00    +0.173 C 
BRANCH  22  23
ATOM     23  S   UNL     1      -9.964   1.858   0.059  0.00  0.00    -0.075 S 
BRANCH  23  27
ATOM     24  N   UNL     1      -4.838   0.938   0.055  0.00  0.00    -0.205 N 
ATOM     25  C   UNL     1      -6.046   1.620   0.061  0.00  0.00    +0.232 A 
ATOM     26  N   UNL     1      -7.290   1.052   0.054  0.00  0.00    -0.186 NA
ATOM     27  C   UNL     1      -8.213   2.059   0.064  0.00  0.00    +0.211 A 
ATOM     28  N   UNL     1      -7.568   3.201   0.076  0.00  0.00    -0.144 NA
ATOM     29  N   UNL     1      -6.195   2.923   0.081  0.00  0.00    -0.245 N 
ATOM     30  H   UNL     1      -4.827  -0.162   0.043  0.00  0.00    +0.177 HD
ATOM     31  H   UNL     1      -5.311   3.577   0.097  0.00  0.00    +0.192 HD
BRANCH  24  33
ATOM     32  C   UNL     1      -2.500   1.011   0.059  0.00  0.00    +0.138 C 
ATOM     33  N   UNL     1      -3.631   1.650   0.064  0.00  0.00    -0.188 NA
BRANCH  32  38
ATOM     34  C   UNL     1       2.453   3.934   0.081  0.00  0.00    +0.044 C 
ATOM     35  C   UNL     1       1.155   3.168   0.078  0.00  0.00    -0.050 A 
ATOM     36  C   UNL     1       1.172   1.784   0.065  0.00  0.00    +0.004 A 
ATOM     37  C   UNL     1      -0.012   1.077   0.062  0.00  0.00    +0.010 A 
ATOM     38  C   UNL     1      -1.230   1.760   0.068  0.00  0.00    -0.005 A 
ATOM     39  C   UNL     1      -1.240   3.158   0.088  0.00  0.00    +0.010 A 
ATOM     40  C   UNL     1      -0.048   3.852   0.090  0.00  0.00    +0.004 A 
ENDBRANCH  32  38
ENDBRANCH  24  33
ENDBRANCH  23  27
ENDBRANCH  22  23
ENDBRANCH   1  22
TORSDOF 9
