REMARK  Name = ZINC22060367
REMARK  9 active torsions:
REMARK  status: ('A' for Active; 'I' for Inactive)
REMARK    1  A    between atoms: C_1  and  C_2
REMARK    2  A    between atoms: C_2  and  C_4
REMARK    3  A    between atoms: C_2  and  N_11
REMARK    4  A    between atoms: N_11  and  C_12
REMARK    5  A    between atoms: C_13  and  C_15
REMARK    6  A    between atoms: C_15  and  S_16
REMARK    7  A    between atoms: S_16  and  C_17
REMARK    8  A    between atoms: C_20  and  C_23
REMARK    9  A    between atoms: N_21  and  N_22
REMARK                            x       y       z     vdW  Elec       q    Type
REMARK                         _______ _______ _______ _____ _____    ______ ____
ROOT
ATOM      1  C   UNL     1       0.024  -1.096  -1.118  0.00  0.00    +0.209 A 
ATOM      2  N   UNL     1       0.179  -2.342  -0.733  0.00  0.00    -0.121 NA
ATOM      3  N   UNL     1       0.229  -2.404   0.550  0.00  0.00    -0.127 NA
ATOM      4  C   UNL     1       0.115  -1.201   1.062  0.00  0.00    +0.183 A 
ATOM      5  N   UNL     1      -0.017  -0.325   0.009  0.00  0.00    -0.224 N 
ENDROOT
BRANCH   4   6
ATOM      6  C   UNL     1       0.126  -0.852   2.498  0.00  0.00    +0.039 A 
ATOM      7  C   UNL     1       0.000   0.479   2.897  0.00  0.00    +0.014 A 
ATOM      8  C   UNL     1       0.006   0.798   4.239  0.00  0.00    +0.021 A 
ATOM      9  C   UNL     1       0.147  -0.199   5.190  0.00  0.00    +0.042 A 
ATOM     10  C   UNL     1       0.277  -1.521   4.802  0.00  0.00    +0.040 A 
ATOM     11  C   UNL     1       0.268  -1.854   3.462  0.00  0.00    +0.053 A 
ATOM     12 CL   UNL     1       0.433  -3.512   2.975  0.00  0.00    -0.083 Cl
ATOM     13 CL   UNL     1       0.160   0.212   6.877  0.00  0.00    -0.083 Cl
ENDBRANCH   4   6
BRANCH   5  14
ATOM     14  N   UNL     1      -0.164   1.031   0.077  0.00  0.00    -0.295 N 
ATOM     15  H   UNL     1      -0.181   1.534   1.055  0.00  0.00    +0.163 HD
ATOM     16  H   UNL     1      -0.265   1.620  -0.847  0.00  0.00    +0.163 HD
ENDBRANCH   5  14
BRANCH   1  17
ATOM     17  S   UNL     1      -0.104  -0.524  -2.780  0.00  0.00    -0.075 S 
BRANCH  17  18
ATOM     18  C   UNL     1       0.035  -2.097  -3.665  0.00  0.00    +0.173 C 
BRANCH  18  21
ATOM     19  N   UNL     1       0.030  -2.880  -6.011  0.00  0.00    -0.297 N 
ATOM     20  C   UNL     1       0.201  -4.245  -5.506  0.00  0.00    +0.132 C 
ATOM     21  C   UNL     1      -0.050  -1.848  -5.149  0.00  0.00    +0.226 C 
ATOM     22  O   UNL     1      -0.191  -0.718  -5.567  0.00  0.00    -0.275 OA
BRANCH  19  24
ATOM     23  C   UNL     1      -1.159  -3.508  -8.054  0.00  0.00    +0.033 C 
ATOM     24  C   UNL     1      -0.053  -2.638  -7.454  0.00  0.00    +0.103 C 
BRANCH  24  25
ATOM     25  C   UNL     1       1.265  -2.985  -8.098  0.00  0.00    -0.027 A 
ATOM     26  C   UNL     1       2.443  -2.814  -7.396  0.00  0.00    +0.008 A 
ATOM     27  C   UNL     1       3.652  -3.137  -7.984  0.00  0.00    +0.038 A 
ATOM     28  C   UNL     1       3.682  -3.621  -9.280  0.00  0.00    +0.123 A 
ATOM     29  C   UNL     1       2.502  -3.787  -9.985  0.00  0.00    +0.038 A 
ATOM     30  C   UNL     1       1.294  -3.469  -9.393  0.00  0.00    +0.008 A 
ATOM     31  F   UNL     1       4.864  -3.932  -9.858  0.00  0.00    -0.205 F 
ENDBRANCH  24  25
ENDBRANCH  19  24
ENDBRANCH  18  21
ENDBRANCH  17  18
ENDBRANCH   1  17
TORSDOF 7
