REMARK  Name = ZINC35456548
REMARK  9 active torsions:
REMARK  status: ('A' for Active; 'I' for Inactive)
REMARK    1  A    between atoms: C_4  and  C_7
REMARK    2  A    between atoms: C_7  and  O_8
REMARK    3  A    between atoms: O_8  and  C_9
REMARK    4  A    between atoms: C_9  and  C_11
REMARK    5  A    between atoms: C_11  and  N_12
REMARK    6  A    between atoms: C_16  and  C_17
REMARK    7  A    between atoms: C_18  and  C_29
REMARK    8  A    between atoms: N_20  and  C_23
REMARK    9  A    between atoms: C_29  and  C_30
REMARK                            x       y       z     vdW  Elec       q    Type
REMARK                         _______ _______ _______ _____ _____    ______ ____
ROOT
ATOM      1  N   UNL     1       7.097  -2.599   2.757  0.00  0.00    -0.210 N 
ATOM      2  C   UNL     1       7.235  -3.938   2.703  0.00  0.00    +0.269 C 
ATOM      3  O   UNL     1       6.337  -4.760   2.722  0.00  0.00    -0.268 OA
ATOM      4  C   UNL     1       8.627  -4.210   2.618  0.00  0.00    +0.099 C 
ATOM      5  C   UNL     1       9.219  -5.433   2.542  0.00  0.00    +0.043 C 
ATOM      6  N   UNL     1       9.266  -2.960   2.627  0.00  0.00    -0.265 N 
ATOM      7  C   UNL     1       8.307  -2.018   2.706  0.00  0.00    +0.314 C 
ATOM      8  O   UNL     1       8.508  -0.818   2.731  0.00  0.00    -0.252 OA
ATOM      9  H   UNL     1      10.222  -2.804   2.580  0.00  0.00    +0.157 HD
ENDROOT
BRANCH   5  10
ATOM     10  C   UNL     1      10.677  -5.536   2.460  0.00  0.00    +0.066 A 
ATOM     11  C   UNL     1      11.511  -6.359   3.256  0.00  0.00    +0.079 A 
ATOM     12  N   UNL     1      12.745  -6.171   2.882  0.00  0.00    -0.167 NA
ATOM     13  N   UNL     1      12.775  -5.234   1.845  0.00  0.00    -0.196 N 
ATOM     14  C   UNL     1      11.508  -4.847   1.579  0.00  0.00    +0.281 A 
ATOM     15  O   UNL     1      11.120  -3.955   0.638  0.00  0.00    -0.265 OA
BRANCH  13  16
ATOM     16  C   UNL     1      13.925  -4.777   1.187  0.00  0.00    +0.069 A 
ATOM     17  C   UNL     1      13.877  -4.471  -0.167  0.00  0.00    +0.028 A 
ATOM     18  C   UNL     1      15.013  -4.020  -0.812  0.00  0.00    +0.002 A 
ATOM     19  C   UNL     1      16.196  -3.875  -0.112  0.00  0.00    +0.000 A 
ATOM     20  C   UNL     1      16.247  -4.179   1.236  0.00  0.00    +0.002 A 
ATOM     21  C   UNL     1      15.114  -4.623   1.889  0.00  0.00    +0.028 A 
ENDBRANCH  13  16
BRANCH  11  22
ATOM     22  C   UNL     1      11.049  -7.291   4.346  0.00  0.00    +0.100 C 
BRANCH  22  23
ATOM     23  C   UNL     1      10.767  -8.650   3.760  0.00  0.00    -0.004 A 
ATOM     24  C   UNL     1      11.604  -9.707   3.611  0.00  0.00    +0.011 A 
ATOM     25  C   UNL     1      11.121 -10.869   3.040  0.00  0.00    +0.008 A 
ATOM     26  C   UNL     1       9.826 -10.919   2.645  0.00  0.00    +0.045 A 
ATOM     27  S   UNL     1       9.242  -9.290   3.087  0.00  0.00    -0.101 S 
ENDBRANCH  22  23
ENDBRANCH  11  22
ENDBRANCH   5  10
BRANCH   1  28
ATOM     28  C   UNL     1       5.821  -1.885   2.850  0.00  0.00    +0.238 C 
BRANCH  28  29
ATOM     29  C   UNL     1       5.304  -1.597   1.464  0.00  0.00    +0.326 C 
ATOM     30  O   UNL     1       5.936  -1.951   0.498  0.00  0.00    -0.249 OA
BRANCH  29  31
ATOM     31  O   UNL     1       4.141  -0.946   1.304  0.00  0.00    -0.459 OA
BRANCH  31  32
ATOM     32  C   UNL     1       3.711  -0.707  -0.038  0.00  0.00    +0.267 C 
BRANCH  32  36
ATOM     33  C   UNL     1      -0.017   1.378   0.010  0.00  0.00    +0.000 A 
ATOM     34  C   UNL     1       1.171   2.086   0.002  0.00  0.00    +0.000 A 
ATOM     35  C   UNL     1       2.377   1.411  -0.013  0.00  0.00    +0.007 A 
ATOM     36  C   UNL     1       2.396   0.029  -0.020  0.00  0.00    -0.010 A 
ATOM     37  C   UNL     1       1.208  -0.679  -0.012  0.00  0.00    +0.007 A 
ATOM     38  C   UNL     1       0.002  -0.004   0.002  0.00  0.00    +0.000 A 
ENDBRANCH  32  36
ENDBRANCH  31  32
ENDBRANCH  29  31
ENDBRANCH  28  29
ENDBRANCH   1  28
TORSDOF 9
