REMARK  Name = ZINC22831188
REMARK  15 active torsions:
REMARK  status: ('A' for Active; 'I' for Inactive)
REMARK    1  A    between atoms: C_1  and  C_2
REMARK    2  A    between atoms: C_2  and  C_3
REMARK    3  A    between atoms: C_3  and  N_4
REMARK    4  A    between atoms: C_5  and  N_35
REMARK    5  A    between atoms: C_6  and  C_13
REMARK    6  A    between atoms: N_9  and  C_12
REMARK    7  A    between atoms: C_13  and  C_15
REMARK    8  A    between atoms: C_15  and  S_16
REMARK    9  A    between atoms: S_16  and  C_17
REMARK   10  A    between atoms: C_20  and  C_29
REMARK   11  A    between atoms: N_21  and  C_22
REMARK   12  A    between atoms: C_29  and  C_31
REMARK   13  A    between atoms: C_29  and  N_32
REMARK   14  A    between atoms: N_32  and  C_33
REMARK   15  A    between atoms: N_32  and  C_34
REMARK                            x       y       z     vdW  Elec       q    Type
REMARK                         _______ _______ _______ _____ _____    ______ ____
ROOT
ATOM      1  S   UNL     1      -0.019   1.754  -0.070  0.00  0.00    -0.078 S 
ENDROOT
BRANCH   1   2
ATOM      2  C   UNL     1       0.006  -0.007  -0.124  0.00  0.00    +0.196 A 
ATOM      3  N   UNL     1       1.073  -0.772  -0.154  0.00  0.00    -0.122 NA
ATOM      4  N   UNL     1       0.724  -2.008  -0.189  0.00  0.00    -0.135 NA
ATOM      5  C   UNL     1      -0.576  -2.108  -0.182  0.00  0.00    +0.125 A 
ATOM      6  N   UNL     1      -1.082  -0.836  -0.136  0.00  0.00    -0.275 N 
BRANCH   6   7
ATOM      7  C   UNL     1      -2.434  -0.462  -0.108  0.00  0.00    +0.050 A 
ATOM      8  C   UNL     1      -3.227  -0.803   0.979  0.00  0.00    +0.029 A 
ATOM      9  C   UNL     1      -4.556  -0.428   1.007  0.00  0.00    +0.040 A 
ATOM     10  C   UNL     1      -5.101   0.277  -0.054  0.00  0.00    +0.124 A 
ATOM     11  C   UNL     1      -4.312   0.612  -1.142  0.00  0.00    +0.040 A 
ATOM     12  C   UNL     1      -2.981   0.245  -1.170  0.00  0.00    +0.029 A 
ATOM     13  F   UNL     1      -6.402   0.637  -0.028  0.00  0.00    -0.205 F 
ENDBRANCH   6   7
BRANCH   5  14
ATOM     14  C   UNL     1      -1.374  -3.386  -0.215  0.00  0.00    -0.003 C 
ATOM     15  C   UNL     1      -1.317  -4.058   1.159  0.00  0.00    -0.005 C 
BRANCH  14  16
ATOM     16  N   UNL     1      -0.809  -4.290  -1.226  0.00  0.00    +0.382 N 
ATOM     17  C   UNL     1       0.540  -4.730  -0.844  0.00  0.00    -0.096 C 
ATOM     18  C   UNL     1      -1.693  -5.441  -1.455  0.00  0.00    -0.096 C 
ATOM     19  H   UNL     1      -0.728  -3.733  -2.171  0.00  0.00    -0.082 HD
ENDBRANCH  14  16
ENDBRANCH   5  14
ENDBRANCH   1   2
BRANCH   1  20
ATOM     20  C   UNL     1       1.758   2.095  -0.073  0.00  0.00    +0.157 C 
BRANCH  20  21
ATOM     21  C   UNL     1       1.985   3.584  -0.029  0.00  0.00    +0.182 C 
ATOM     22  O   UNL     1       1.036   4.342   0.001  0.00  0.00    -0.291 OA
BRANCH  21  25
ATOM     23  N   UNL     1       4.827   5.930  -0.092  0.00  0.00    -0.281 N 
ATOM     24  C   UNL     1       3.538   5.480  -0.107  0.00  0.00    +0.116 A 
ATOM     25  C   UNL     1       3.299   4.098  -0.023  0.00  0.00    +0.120 A 
ATOM     26  C   UNL     1       4.462   3.205   0.066  0.00  0.00    +0.269 A 
ATOM     27  O   UNL     1       4.315   1.998   0.136  0.00  0.00    -0.267 OA
ATOM     28  N   UNL     1       5.696   3.749   0.068  0.00  0.00    -0.263 N 
ATOM     29  C   UNL     1       5.862   5.080  -0.010  0.00  0.00    +0.333 A 
ATOM     30  O   UNL     1       6.991   5.530  -0.005  0.00  0.00    -0.246 OA
ATOM     31  C   UNL     1       6.870   2.878   0.155  0.00  0.00    +0.157 C 
BRANCH  24  32
ATOM     32  N   UNL     1       2.501   6.357  -0.197  0.00  0.00    -0.344 N 
ATOM     33  H   UNL     1       1.466   5.984  -0.209  0.00  0.00    +0.144 HD
ATOM     34  H   UNL     1       2.697   7.437  -0.259  0.00  0.00    +0.144 HD
ENDBRANCH  24  32
BRANCH  23  35
ATOM     35  C   UNL     1       5.086   7.370  -0.173  0.00  0.00    +0.128 C 
BRANCH  35  37
ATOM     36  C   UNL     1       5.488   9.286  -1.725  0.00  0.00    +0.005 C 
ATOM     37  C   UNL     1       5.218   7.783  -1.640  0.00  0.00    +0.018 C 
ENDBRANCH  35  37
ENDBRANCH  23  35
ENDBRANCH  21  25
ENDBRANCH  20  21
ENDBRANCH   1  20
TORSDOF 10
