REMARK  Name = ZINC63294957
REMARK  8 active torsions:
REMARK  status: ('A' for Active; 'I' for Inactive)
REMARK    1  A    between atoms: C_1  and  C_2
REMARK    2  A    between atoms: C_4  and  C_13
REMARK    3  A    between atoms: C_13  and  C_14
REMARK    4  A    between atoms: C_14  and  N_15
REMARK    5  A    between atoms: C_16  and  C_18
REMARK    6  A    between atoms: C_24  and  C_26
REMARK    7  A    between atoms: C_26  and  C_27
REMARK    8  A    between atoms: C_30  and  C_33
REMARK                            x       y       z     vdW  Elec       q    Type
REMARK                         _______ _______ _______ _____ _____    ______ ____
ROOT
ATOM      1  C   UNL     1      -7.120  -1.149  -2.392  0.00  0.00    +0.078 C 
ATOM      2  C   UNL     1      -7.407   0.350  -2.504  0.00  0.00    +0.032 C 
ATOM      3  C   UNL     1      -8.484   0.582  -3.568  0.00  0.00    +0.108 C 
ATOM      4  N   UNL     1      -9.660  -0.234  -3.235  0.00  0.00    -0.301 N 
ATOM      5  C   UNL     1      -9.481  -1.676  -3.017  0.00  0.00    +0.108 C 
ATOM      6  C   UNL     1      -8.392  -1.883  -1.959  0.00  0.00    +0.032 C 
ATOM      7  C   UNL     1     -10.880   0.329  -3.132  0.00  0.00    +0.220 C 
ATOM      8  O   UNL     1     -11.015   1.521  -3.315  0.00  0.00    -0.275 OA
ENDROOT
BRANCH   1  10
ATOM      9  N   UNL     1      -4.819  -0.826  -1.544  0.00  0.00    -0.315 N 
ATOM     10  C   UNL     1      -6.036  -1.379  -1.371  0.00  0.00    +0.216 C 
ATOM     11  O   UNL     1      -6.258  -2.061  -0.393  0.00  0.00    -0.276 OA
ATOM     12  H   UNL     1      -4.641  -0.280  -2.326  0.00  0.00    +0.149 HD
BRANCH   9  13
ATOM     13  C   UNL     1      -3.765  -1.048  -0.551  0.00  0.00    +0.108 C 
BRANCH  13  14
ATOM     14  C   UNL     1      -2.494  -0.316  -0.984  0.00  0.00    +0.052 C 
BRANCH  14  17
ATOM     15  C   UNL     1      -0.019   1.526   0.010  0.00  0.00    +0.035 C 
ATOM     16  C   UNL     1       0.002  -0.004   0.002  0.00  0.00    +0.103 C 
ATOM     17  C   UNL     1      -1.410  -0.545   0.038  0.00  0.00    -0.037 C 
ATOM     18  C   UNL     1      -1.503  -1.275   1.172  0.00  0.00    +0.002 A 
ATOM     19  C   UNL     1      -2.599  -2.045   1.771  0.00  0.00    +0.048 A 
ATOM     20  C   UNL     1      -2.387  -2.687   2.945  0.00  0.00    +0.124 A 
ATOM     21  C   UNL     1      -1.146  -2.633   3.600  0.00  0.00    +0.040 A 
ATOM     22  C   UNL     1      -0.093  -1.946   3.110  0.00  0.00    +0.029 A 
ATOM     23  C   UNL     1      -0.205  -1.235   1.884  0.00  0.00    +0.043 A 
ATOM     24  N   UNL     1       0.658  -0.508   1.214  0.00  0.00    -0.378 N 
ATOM     25  F   UNL     1      -3.394  -3.396   3.499  0.00  0.00    -0.205 F 
ATOM     26  H   UNL     1       1.576  -0.333   1.475  0.00  0.00    +0.160 HD
ENDBRANCH  14  17
ENDBRANCH  13  14
ENDBRANCH   9  13
ENDBRANCH   1  10
BRANCH   7  27
ATOM     27  C   UNL     1     -12.077  -0.521  -2.791  0.00  0.00    +0.131 C 
BRANCH  27  28
ATOM     28  C   UNL     1     -13.309   0.344  -2.737  0.00  0.00    -0.039 A 
ATOM     29  C   UNL     1     -13.679   0.945  -1.547  0.00  0.00    +0.005 A 
ATOM     30  C   UNL     1     -14.806   1.738  -1.493  0.00  0.00    +0.009 A 
ATOM     31  C   UNL     1     -15.573   1.934  -2.640  0.00  0.00    -0.018 A 
ATOM     32  C   UNL     1     -15.197   1.327  -3.836  0.00  0.00    +0.009 A 
ATOM     33  C   UNL     1     -14.064   0.540  -3.880  0.00  0.00    +0.005 A 
BRANCH  31  34
ATOM     34  C   UNL     1     -16.788   2.786  -2.587  0.00  0.00    -0.018 A 
ATOM     35  C   UNL     1     -17.161   3.398  -1.392  0.00  0.00    +0.008 A 
ATOM     36  C   UNL     1     -18.291   4.189  -1.349  0.00  0.00    +0.001 A 
ATOM     37  C   UNL     1     -19.052   4.375  -2.489  0.00  0.00    +0.000 A 
ATOM     38  C   UNL     1     -18.686   3.770  -3.678  0.00  0.00    +0.001 A 
ATOM     39  C   UNL     1     -17.555   2.982  -3.734  0.00  0.00    +0.008 A 
ENDBRANCH  31  34
ENDBRANCH  27  28
ENDBRANCH   7  27
TORSDOF 7
