REMARK  Name = ZINC64539195
REMARK  8 active torsions:
REMARK  status: ('A' for Active; 'I' for Inactive)
REMARK    1  A    between atoms: C_1  and  C_2
REMARK    2  A    between atoms: C_4  and  S_12
REMARK    3  A    between atoms: C_5  and  C_11
REMARK    4  A    between atoms: N_7  and  C_8
REMARK    5  A    between atoms: C_8  and  C_9
REMARK    6  A    between atoms: C_8  and  C_10
REMARK    7  A    between atoms: S_12  and  N_15
REMARK    8  A    between atoms: C_21  and  C_23
REMARK                            x       y       z     vdW  Elec       q    Type
REMARK                         _______ _______ _______ _____ _____    ______ ____
ROOT
ATOM      1  N   UNL     1       0.858   1.242  -3.132  0.00  0.00    -0.174 NA
ATOM      2  C   UNL     1      -0.065   2.282  -2.656  0.00  0.00    +0.128 C 
ATOM      3  C   UNL     1       0.719   3.271  -1.785  0.00  0.00    +0.125 C 
ATOM      4  N   UNL     1       1.931   3.677  -2.510  0.00  0.00    -0.297 N 
ATOM      5  C   UNL     1       2.854   2.637  -2.986  0.00  0.00    +0.125 C 
ATOM      6  C   UNL     1       2.073   1.648  -3.853  0.00  0.00    +0.128 C 
ATOM      7  C   UNL     1       2.192   4.980  -2.735  0.00  0.00    +0.242 C 
ATOM      8  O   UNL     1       1.423   5.830  -2.337  0.00  0.00    -0.273 OA
ENDROOT
BRANCH   7   9
ATOM      9  C   UNL     1       3.439   5.381  -3.479  0.00  0.00    +0.190 C 
ATOM     10  C   UNL     1       4.668   4.949  -2.711  0.00  0.00    +0.016 C 
ATOM     11  C   UNL     1       5.348   6.082  -2.423  0.00  0.00    -0.002 A 
ATOM     12  C   UNL     1       6.604   6.333  -1.707  0.00  0.00    +0.029 A 
ATOM     13  C   UNL     1       7.043   7.606  -1.577  0.00  0.00    +0.042 A 
ATOM     14  C   UNL     1       6.327   8.690  -2.108  0.00  0.00    +0.022 A 
ATOM     15  C   UNL     1       5.166   8.539  -2.778  0.00  0.00    +0.027 A 
ATOM     16  C   UNL     1       4.613   7.243  -2.974  0.00  0.00    +0.043 A 
ATOM     17  N   UNL     1       3.519   6.843  -3.580  0.00  0.00    -0.370 N 
ATOM     18 CL   UNL     1       8.528   7.907  -0.729  0.00  0.00    -0.084 Cl
ATOM     19  H   UNL     1       2.873   7.416  -4.021  0.00  0.00    +0.161 HD
ENDBRANCH   7   9
BRANCH   1  20
ATOM     20  S   UNL     1       0.537  -0.359  -2.856  0.00  0.00    +0.060 S 
ATOM     21  O   UNL     1      -0.203  -0.423  -1.645  0.00  0.00    -0.153 OA
ATOM     22  O   UNL     1       1.763  -1.056  -3.038  0.00  0.00    -0.153 OA
BRANCH  20  25
ATOM     23  C   UNL     1       0.419   0.006  -6.258  0.00  0.00    +0.032 C 
ATOM     24  C   UNL     1      -0.161  -1.228  -5.564  0.00  0.00    +0.124 C 
ATOM     25  C   UNL     1      -0.544  -0.903  -4.137  0.00  0.00    +0.119 C 
ATOM     26  C   UNL     1      -1.842  -1.104  -4.035  0.00  0.00    +0.040 C 
ATOM     27  N   UNL     1      -2.389  -1.530  -5.230  0.00  0.00    -0.280 N 
ATOM     28  N   UNL     1      -1.431  -1.630  -6.202  0.00  0.00    -0.218 NA
ATOM     29  C   UNL     1      -2.634  -0.896  -2.770  0.00  0.00    +0.063 C 
ATOM     30  H   UNL     1      -3.328  -1.733  -5.363  0.00  0.00    +0.166 HD
BRANCH  28  31
ATOM     31  C   UNL     1      -1.347  -3.001  -6.723  0.00  0.00    +0.070 C 
ATOM     32  C   UNL     1      -1.173  -3.979  -5.559  0.00  0.00    +0.025 C 
ATOM     33  C   UNL     1      -2.632  -3.337  -7.483  0.00  0.00    +0.025 C 
ENDBRANCH  28  31
ENDBRANCH  20  25
ENDBRANCH   1  20
TORSDOF 4
