REMARK  Name = ZINC12956000
REMARK  7 active torsions:
REMARK  status: ('A' for Active; 'I' for Inactive)
REMARK    1  A    between atoms: C_2  and  C_34
REMARK    2  A    between atoms: N_7  and  C_8
REMARK    3  A    between atoms: C_8  and  C_9
REMARK    4  A    between atoms: C_9  and  N_10
REMARK    5  A    between atoms: C_13  and  C_20
REMARK    6  A    between atoms: N_21  and  N_22
REMARK    7  A    between atoms: C_26  and  C_29
REMARK                            x       y       z     vdW  Elec       q    Type
REMARK                         _______ _______ _______ _____ _____    ______ ____
ROOT
ATOM      1  N   UNL     1       1.813   2.787   1.018  0.00  0.00    -0.223 N 
ATOM      2  C   UNL     1       1.417   1.994  -0.001  0.00  0.00    +0.240 C 
ATOM      3  O   UNL     1       2.180   1.687  -0.891  0.00  0.00    -0.274 OA
ATOM      4  C   UNL     1      -0.018   1.503   0.010  0.00  0.00    +0.204 C 
ATOM      5  C   UNL     1      -0.874   1.957   1.178  0.00  0.00    +0.238 C 
ATOM      6  O   UNL     1      -2.033   1.618   1.277  0.00  0.00    -0.274 OA
ATOM      7  N   UNL     1      -0.295   2.752   2.103  0.00  0.00    -0.239 N 
ATOM      8  C   UNL     1       0.983   3.135   2.008  0.00  0.00    +0.315 C 
ATOM      9  O   UNL     1       1.423   3.852   2.885  0.00  0.00    -0.252 OA
ATOM     10  H   UNL     1      -0.823   3.056   2.858  0.00  0.00    +0.159 HD
ENDROOT
BRANCH   4  11
ATOM     11  C   UNL     1       0.002  -0.004   0.002  0.00  0.00    +0.125 C 
ATOM     12  N   UNL     1      -0.553  -0.646  -0.956  0.00  0.00    -0.192 NA
BRANCH  12  13
ATOM     13  N   UNL     1      -0.534  -2.047  -0.964  0.00  0.00    -0.220 N 
ATOM     14  C   UNL     1      -1.136  -2.745  -2.005  0.00  0.00    +0.156 A 
ATOM     15  C   UNL     1      -1.109  -4.138  -2.010  0.00  0.00    +0.083 A 
ATOM     16  C   UNL     1      -1.718  -4.819  -3.049  0.00  0.00    +0.037 A 
ATOM     17  C   UNL     1      -2.325  -4.082  -4.058  0.00  0.00    +0.074 A 
ATOM     18  C   UNL     1      -2.310  -2.704  -3.992  0.00  0.00    +0.125 A 
ATOM     19  N   UNL     1      -1.726  -2.080  -2.986  0.00  0.00    -0.237 NA
ATOM     20 CL   UNL     1      -0.328  -5.007  -0.726  0.00  0.00    -0.080 Cl
ATOM     21  H   UNL     1      -0.100  -2.530  -0.243  0.00  0.00    +0.176 HD
BRANCH  17  22
ATOM     22  C   UNL     1      -2.995  -4.782  -5.213  0.00  0.00    +0.419 C 
ATOM     23  F   UNL     1      -3.527  -3.830  -6.089  0.00  0.00    -0.166 F 
ATOM     24  F   UNL     1      -2.055  -5.566  -5.891  0.00  0.00    -0.166 F 
ATOM     25  F   UNL     1      -4.023  -5.599  -4.731  0.00  0.00    -0.166 F 
ENDBRANCH  17  22
ENDBRANCH  12  13
ENDBRANCH   4  11
BRANCH   1  26
ATOM     26  C   UNL     1       3.192   3.280   1.040  0.00  0.00    +0.136 C 
BRANCH  26  27
ATOM     27  C   UNL     1       3.267   4.617   0.298  0.00  0.00    +0.122 C 
BRANCH  27  34
ATOM     28  C   UNL     1       6.577   7.982  -0.887  0.00  0.00    +0.037 A 
ATOM     29  C   UNL     1       5.551   8.682  -1.509  0.00  0.00    +0.072 A 
ATOM     30  C   UNL     1       4.272   8.163  -1.494  0.00  0.00    +0.096 A 
ATOM     31  C   UNL     1       4.963   6.316  -0.295  0.00  0.00    +0.115 A 
ATOM     32  C   UNL     1       6.275   6.782  -0.266  0.00  0.00    +0.079 A 
ATOM     33 CL   UNL     1       7.516   5.869   0.533  0.00  0.00    -0.080 Cl
ATOM     34  N   UNL     1       4.647   5.110   0.320  0.00  0.00    -0.328 N 
ATOM     35  H   UNL     1       5.339   4.595   0.763  0.00  0.00    +0.147 HD
ATOM     36  N   UNL     1       3.940   6.986  -0.899  0.00  0.00    -0.348 N 
ATOM     37  H   UNL     1       2.979   6.625  -0.904  0.00  0.00    +0.167 HD
BRANCH  29  38
ATOM     38  C   UNL     1       5.832   9.996  -2.192  0.00  0.00    +0.419 C 
ATOM     39  F   UNL     1       4.646  10.501  -2.737  0.00  0.00    -0.166 F 
ATOM     40  F   UNL     1       6.342  10.906  -1.260  0.00  0.00    -0.166 F 
ATOM     41  F   UNL     1       6.768   9.800  -3.213  0.00  0.00    -0.166 F 
ENDBRANCH  29  38
ENDBRANCH  27  34
ENDBRANCH  26  27
ENDBRANCH   1  26
TORSDOF 7
