REMARK  Name = ZINC00820921
REMARK  4 active torsions:
REMARK  status: ('A' for Active; 'I' for Inactive)
REMARK    1  A    between atoms: C_3  and  O_32
REMARK    2  A    between atoms: C_4  and  N_8
REMARK    3  A    between atoms: N_21  and  C_24
REMARK    4  A    between atoms: C_29  and  O_30
REMARK                            x       y       z     vdW  Elec       q    Type
REMARK                         _______ _______ _______ _____ _____    ______ ____
ROOT
ATOM      1  N   UNL     1      -0.017   1.399   0.010  0.00  0.00    -0.239 N 
ATOM      2  C   UNL     1      -1.136   2.145   0.019  0.00  0.00    +0.267 A 
ATOM      3  O   UNL     1      -2.273   1.717   0.021  0.00  0.00    -0.267 OA
ATOM      4  C   UNL     1      -0.751   3.574   0.028  0.00  0.00    +0.053 A 
ATOM      5  C   UNL     1      -1.466   4.764   0.042  0.00  0.00    +0.028 A 
ATOM      6  C   UNL     1      -0.783   5.974   0.042  0.00  0.00    +0.053 A 
ATOM      7  C   UNL     1       0.625   5.993   0.028  0.00  0.00    +0.053 A 
ATOM      8  C   UNL     1       1.340   4.803   0.015  0.00  0.00    +0.028 A 
ATOM      9  C   UNL     1       0.658   3.593   0.015  0.00  0.00    +0.053 A 
ATOM     10  C   UNL     1       1.082   2.175   0.003  0.00  0.00    +0.267 A 
ATOM     11  O   UNL     1       2.229   1.778  -0.010  0.00  0.00    -0.267 OA
ATOM     12  C   UNL     1       1.010   7.422   0.032  0.00  0.00    +0.267 A 
ATOM     13  O   UNL     1       2.147   7.850   0.024  0.00  0.00    -0.267 OA
ATOM     14  N   UNL     1      -0.109   8.168   0.047  0.00  0.00    -0.239 N 
ATOM     15  C   UNL     1      -1.208   7.392   0.053  0.00  0.00    +0.267 A 
ATOM     16  O   UNL     1      -2.355   7.788   0.066  0.00  0.00    -0.267 OA
ENDROOT
BRANCH   1  20
ATOM     17  C   UNL     1       0.040  -2.774  -0.013  0.00  0.00    +0.019 A 
ATOM     18  C   UNL     1       0.019  -2.081  -1.209  0.00  0.00    +0.048 A 
ATOM     19  C   UNL     1       0.000  -0.696  -1.207  0.00  0.00    +0.141 A 
ATOM     20  C   UNL     1       0.002  -0.004   0.002  0.00  0.00    +0.095 A 
ATOM     21  C   UNL     1       0.029  -0.705   1.198  0.00  0.00    +0.045 A 
ATOM     22  C   UNL     1       0.042  -2.088   1.188  0.00  0.00    +0.020 A 
ATOM     23 BR   UNL     1       0.070  -3.043   2.820  0.00  0.00    -0.050 Br
BRANCH  19  24
ATOM     24  O   UNL     1      -0.021  -0.013  -2.383  0.00  0.00    -0.505 OA
ATOM     25  H   UNL     1       0.856   0.197  -2.731  0.00  0.00    +0.292 HD
ENDBRANCH  19  24
ENDBRANCH   1  20
BRANCH  14  26
ATOM     26  C   UNL     1      -0.128   9.571   0.055  0.00  0.00    +0.095 A 
ATOM     27  C   UNL     1      -0.143  10.272  -1.141  0.00  0.00    +0.045 A 
ATOM     28  C   UNL     1      -0.168  11.655  -1.131  0.00  0.00    +0.020 A 
ATOM     29  C   UNL     1      -0.166  12.341   0.070  0.00  0.00    +0.019 A 
ATOM     30  C   UNL     1      -0.145  11.648   1.266  0.00  0.00    +0.048 A 
ATOM     31  C   UNL     1      -0.126  10.262   1.264  0.00  0.00    +0.141 A 
ATOM     32 BR   UNL     1      -0.196  12.610  -2.763  0.00  0.00    -0.050 Br
BRANCH  31  33
ATOM     33  O   UNL     1      -0.106   9.579   2.439  0.00  0.00    -0.505 OA
ATOM     34  H   UNL     1       0.783   9.393   2.771  0.00  0.00    +0.292 HD
ENDBRANCH  31  33
ENDBRANCH  14  26
TORSDOF 4
