REMARK  Name = ZINC12710310
REMARK  15 active torsions:
REMARK  status: ('A' for Active; 'I' for Inactive)
REMARK    1  A    between atoms: C_1  and  C_2
REMARK    2  A    between atoms: C_2  and  C_3
REMARK    3  A    between atoms: C_2  and  C_4
REMARK    4  A    between atoms: C_6  and  C_9
REMARK    5  A    between atoms: C_9  and  N_65
REMARK    6  A    between atoms: C_10  and  C_11
REMARK    7  A    between atoms: C_10  and  N_65
REMARK    8  A    between atoms: C_16  and  O_17
REMARK    9  A    between atoms: O_17  and  C_18
REMARK   10  A    between atoms: C_18  and  C_19
REMARK   11  A    between atoms: C_19  and  C_21
REMARK   12  A    between atoms: C_19  and  O_29
REMARK   13  A    between atoms: C_21  and  N_68
REMARK   14  A    between atoms: C_22  and  N_68
REMARK   15  A    between atoms: C_23  and  N_68
REMARK                            x       y       z     vdW  Elec       q    Type
REMARK                         _______ _______ _______ _____ _____    ______ ____
ROOT
ATOM      1  C   UNL     1       5.914   2.265  -2.888  0.00  0.00    -0.023 A 
ATOM      2  C   UNL     1       6.575   1.276  -3.591  0.00  0.00    +0.005 A 
ATOM      3  C   UNL     1       6.947   1.492  -4.906  0.00  0.00    +0.000 A 
ATOM      4  C   UNL     1       6.667   2.700  -5.516  0.00  0.00    +0.004 A 
ATOM      5  C   UNL     1       6.010   3.693  -4.816  0.00  0.00    +0.046 A 
ATOM      6  C   UNL     1       5.632   3.478  -3.499  0.00  0.00    +0.122 A 
ENDROOT
BRANCH   1   7
ATOM      7  C   UNL     1       5.505   2.027  -1.457  0.00  0.00    -0.043 C 
BRANCH   7   8
ATOM      8  N   UNL     1       4.073   1.678  -1.416  0.00  0.00    +0.385 N 
ATOM      9  H   UNL     1       3.524   2.450  -1.812  0.00  0.00    -0.085 HD
ATOM     10  H   UNL     1       3.915   0.828  -1.969  0.00  0.00    -0.085 HD
BRANCH   8  11
ATOM     11  C   UNL     1       3.644   1.440  -0.025  0.00  0.00    -0.025 C 
BRANCH  11  14
ATOM     12  C   UNL     1      -0.021   1.732   0.012  0.00  0.00    +0.081 A 
ATOM     13  N   UNL     1       1.258   2.026   0.001  0.00  0.00    -0.251 NA
ATOM     14  C   UNL     1       2.179   1.086  -0.013  0.00  0.00    +0.032 A 
ATOM     15  C   UNL     1       1.777  -0.211  -0.016  0.00  0.00    +0.068 A 
ATOM     16  S   UNL     1       0.002  -0.004   0.002  0.00  0.00    -0.080 S 
BRANCH  12  18
ATOM     17  C   UNL     1      -2.060   2.417  -1.223  0.00  0.00    +0.014 C 
ATOM     18  C   UNL     1      -1.207   2.663   0.023  0.00  0.00    +0.038 C 
ATOM     19  C   UNL     1      -2.047   2.404   1.275  0.00  0.00    +0.014 C 
ENDBRANCH  12  18
ENDBRANCH  11  14
ENDBRANCH   8  11
ENDBRANCH   7   8
ENDBRANCH   1   7
BRANCH   6  20
ATOM     20  O   UNL     1       4.987   4.454  -2.807  0.00  0.00    -0.489 OA
BRANCH  20  21
ATOM     21  C   UNL     1       4.729   5.677  -3.499  0.00  0.00    +0.258 C 
BRANCH  21  22
ATOM     22  C   UNL     1       4.001   6.647  -2.567  0.00  0.00    +0.135 C 
BRANCH  22  23
ATOM     23  O   UNL     1       2.714   6.119  -2.241  0.00  0.00    -0.390 OA
ATOM     24  H   UNL     1       2.142   5.976  -3.008  0.00  0.00    +0.210 HD
ENDBRANCH  22  23
BRANCH  22  25
ATOM     25  C   UNL     1       3.836   7.999  -3.265  0.00  0.00    -0.044 C 
BRANCH  25  27
ATOM     26  C   UNL     1       4.165   9.253  -1.220  0.00  0.00    -0.096 C 
ATOM     27  N   UNL     1       3.221   8.953  -2.318  0.00  0.00    +0.381 N 
ATOM     28  H   UNL     1       2.373   8.530  -1.922  0.00  0.00    -0.082 HD
BRANCH  27  29
ATOM     29  C   UNL     1       2.853  10.198  -3.023  0.00  0.00    -0.069 C 
ATOM     30  C   UNL     1       4.102  10.898  -3.563  0.00  0.00    -0.015 C 
ATOM     31  C   UNL     1       3.693  12.183  -4.286  0.00  0.00    -0.002 C 
ATOM     32  C   UNL     1       2.971  13.112  -3.307  0.00  0.00    -0.000 C 
ATOM     33  C   UNL     1       1.723  12.412  -2.767  0.00  0.00    -0.002 C 
ATOM     34  C   UNL     1       2.131  11.127  -2.044  0.00  0.00    -0.015 C 
ENDBRANCH  27  29
ENDBRANCH  25  27
ENDBRANCH  22  25
ENDBRANCH  21  22
ENDBRANCH  20  21
ENDBRANCH   6  20
TORSDOF 12
