REMARK  Name = ZINC23539298
REMARK  10 active torsions:
REMARK  status: ('A' for Active; 'I' for Inactive)
REMARK    1  A    between atoms: C_1  and  C_2
REMARK    2  A    between atoms: C_2  and  C_4
REMARK    3  A    between atoms: C_2  and  S_20
REMARK    4  A    between atoms: N_6  and  C_7
REMARK    5  A    between atoms: C_10  and  S_13
REMARK    6  A    between atoms: S_13  and  N_16
REMARK    7  A    between atoms: N_16  and  C_17
REMARK    8  A    between atoms: C_17  and  C_18
REMARK    9  A    between atoms: C_17  and  C_19
REMARK   10  A    between atoms: S_20  and  C_21
REMARK                            x       y       z     vdW  Elec       q    Type
REMARK                         _______ _______ _______ _____ _____    ______ ____
ROOT
ATOM      1  C   UNL     1      -1.845   0.590  -2.070  0.00  0.00    +0.230 C 
ATOM      2  O   UNL     1      -2.567   1.198  -2.832  0.00  0.00    -0.274 OA
ATOM      3  N   UNL     1      -2.359  -0.369  -1.275  0.00  0.00    -0.285 N 
ATOM      4  H   UNL     1      -1.798  -0.803  -0.613  0.00  0.00    +0.155 HD
ENDROOT
BRANCH   3   5
ATOM      5  C   UNL     1      -3.703  -0.739  -1.404  0.00  0.00    +0.034 A 
ATOM      6  C   UNL     1      -4.425  -1.136  -0.286  0.00  0.00    +0.025 A 
ATOM      7  C   UNL     1      -5.751  -1.500  -0.417  0.00  0.00    +0.030 A 
ATOM      8  C   UNL     1      -6.359  -1.470  -1.658  0.00  0.00    +0.105 A 
ATOM      9  C   UNL     1      -5.642  -1.076  -2.773  0.00  0.00    +0.030 A 
ATOM     10  C   UNL     1      -4.318  -0.704  -2.648  0.00  0.00    +0.025 A 
BRANCH   8  11
ATOM     11  S   UNL     1      -8.050  -1.936  -1.821  0.00  0.00    +0.059 S 
ATOM     12  O   UNL     1      -8.232  -2.345  -3.169  0.00  0.00    -0.153 OA
ATOM     13  O   UNL     1      -8.345  -2.787  -0.721  0.00  0.00    -0.153 OA
BRANCH  11  14
ATOM     14  N   UNL     1      -8.957  -0.566  -1.615  0.00  0.00    -0.187 NA
ATOM     15  H   UNL     1      -9.554  -0.489  -0.855  0.00  0.00    +0.148 HD
BRANCH  14  16
ATOM     16  C   UNL     1      -8.858   0.530  -2.583  0.00  0.00    +0.070 C 
ATOM     17  C   UNL     1      -9.969   0.391  -3.626  0.00  0.00    +0.025 C 
ATOM     18  C   UNL     1      -9.007   1.867  -1.855  0.00  0.00    +0.025 C 
ENDBRANCH  14  16
ENDBRANCH  11  14
ENDBRANCH   8  11
ENDBRANCH   3   5
BRANCH   1  20
ATOM     19  C   UNL     1       0.392  -0.053  -2.924  0.00  0.00    +0.029 C 
ATOM     20  C   UNL     1      -0.373   0.908  -2.012  0.00  0.00    +0.134 C 
BRANCH  20  21
ATOM     21  S   UNL     1      -0.101   2.614  -2.566  0.00  0.00    -0.113 S 
BRANCH  21  22
ATOM     22  C   UNL     1      -0.819   3.596  -1.291  0.00  0.00    +0.009 A 
ATOM     23  C   UNL     1      -1.294   2.994  -0.132  0.00  0.00    +0.016 A 
ATOM     24  C   UNL     1      -1.855   3.766   0.865  0.00  0.00    +0.016 A 
ATOM     25  C   UNL     1      -1.946   5.138   0.712  0.00  0.00    +0.018 A 
ATOM     26  C   UNL     1      -1.474   5.741  -0.441  0.00  0.00    +0.016 A 
ATOM     27  C   UNL     1      -0.906   4.975  -1.440  0.00  0.00    +0.016 A 
ATOM     28 BR   UNL     1      -2.716   6.192   2.080  0.00  0.00    -0.050 Br
ENDBRANCH  21  22
ENDBRANCH  20  21
ENDBRANCH   1  20
TORSDOF 7
