REMARK  Name = ZINC50396191
REMARK  7 active torsions:
REMARK  status: ('A' for Active; 'I' for Inactive)
REMARK    1  A    between atoms: C_3  and  O_8
REMARK    2  A    between atoms: O_8  and  C_9
REMARK    3  A    between atoms: C_9  and  C_10
REMARK    4  A    between atoms: C_10  and  C_12
REMARK    5  A    between atoms: C_10  and  O_22
REMARK    6  A    between atoms: C_12  and  N_13
REMARK    7  A    between atoms: N_13  and  C_14
REMARK                            x       y       z     vdW  Elec       q    Type
REMARK                         _______ _______ _______ _____ _____    ______ ____
ROOT
ATOM      1  C   UNL     1       5.965   2.309  -0.438  0.00  0.00    +0.135 C 
ENDROOT
BRANCH   1   2
ATOM      2  O   UNL     1       5.809   3.114   0.733  0.00  0.00    -0.390 OA
ATOM      3  H   UNL     1       5.750   2.606   1.554  0.00  0.00    +0.210 HD
ENDBRANCH   1   2
BRANCH   1   4
ATOM      4  C   UNL     1       4.766   1.368  -0.573  0.00  0.00    +0.258 C 
BRANCH   4   5
ATOM      5  O   UNL     1       3.582   2.134  -0.797  0.00  0.00    -0.489 OA
BRANCH   5   8
ATOM      6  C   UNL     1       0.050   1.425  -1.307  0.00  0.00    +0.005 A 
ATOM      7  C   UNL     1       1.230   2.127  -1.161  0.00  0.00    +0.046 A 
ATOM      8  C   UNL     1       2.419   1.446  -0.941  0.00  0.00    +0.122 A 
ATOM      9  C   UNL     1       2.418   0.060  -0.868  0.00  0.00    +0.061 A 
ATOM     10  C   UNL     1       1.235  -0.638  -1.015  0.00  0.00    +0.021 A 
ATOM     11  C   UNL     1       0.051   0.044  -1.234  0.00  0.00    +0.015 A 
ATOM     12 BR   UNL     1       1.233  -2.526  -0.916  0.00  0.00    -0.050 Br
ENDBRANCH   5   8
ENDBRANCH   4   5
ENDBRANCH   1   4
BRANCH   1  13
ATOM     13  C   UNL     1       7.249   1.486  -0.323  0.00  0.00    -0.046 C 
BRANCH  13  14
ATOM     14  N   UNL     1       8.400   2.389  -0.193  0.00  0.00    +0.388 N 
ATOM     15  H   UNL     1       8.404   3.042  -0.962  0.00  0.00    -0.085 HD
ATOM     16  H   UNL     1       8.333   2.896   0.677  0.00  0.00    -0.085 HD
BRANCH  14  17
ATOM     17  C   UNL     1       9.643   1.606  -0.209  0.00  0.00    +0.016 C 
ATOM     18  C   UNL     1       9.696   0.711   1.032  0.00  0.00    -0.005 C 
ATOM     19  C   UNL     1      11.104   0.116   1.141  0.00  0.00    +0.018 C 
ATOM     20  C   UNL     1      12.090   1.242   1.454  0.00  0.00    +0.104 C 
ATOM     21  N   UNL     1      11.916   2.347   0.518  0.00  0.00    -0.317 N 
ATOM     22  C   UNL     1      10.820   2.538  -0.215  0.00  0.00    +0.199 C 
ATOM     23  O   UNL     1      10.773   3.517  -0.929  0.00  0.00    -0.278 OA
ATOM     24  H   UNL     1      12.642   2.983   0.426  0.00  0.00    +0.149 HD
ENDBRANCH  14  17
ENDBRANCH  13  14
ENDBRANCH   1  13
TORSDOF 7
