REMARK  Name = ZINC38598483
REMARK  3 active torsions:
REMARK  status: ('A' for Active; 'I' for Inactive)
REMARK    1  A    between atoms: C_1  and  C_2
REMARK    2  A    between atoms: C_4  and  C_24
REMARK    3  A    between atoms: C_29  and  C_30
REMARK                            x       y       z     vdW  Elec       q    Type
REMARK                         _______ _______ _______ _____ _____    ______ ____
ROOT
ATOM      1  C   UNL     1      -0.122   1.546   0.669  0.00  0.00    +0.062 C 
ATOM      2  C   UNL     1      -0.065   0.041   0.630  0.00  0.00    +0.022 C 
ATOM      3  C   UNL     1      -1.100  -0.728   0.446  0.00  0.00    -0.004 C 
ATOM      4  C   UNL     1      -2.525  -0.387   0.080  0.00  0.00    +0.059 C 
ATOM      5  C   UNL     1      -2.796  -1.063  -1.272  0.00  0.00    +0.108 C 
ATOM      6  C   UNL     1      -2.148  -2.408  -1.361  0.00  0.00    +0.216 C 
ATOM      7  O   UNL     1      -2.596  -3.165  -2.195  0.00  0.00    -0.276 OA
ATOM      8  N   UNL     1      -1.135  -2.869  -0.627  0.00  0.00    -0.292 N 
ATOM      9  C   UNL     1      -0.633  -2.171   0.549  0.00  0.00    +0.210 C 
ATOM     10  N   UNL     1       0.828  -2.066   0.580  0.00  0.00    -0.213 N 
ATOM     11  N   UNL     1       1.097  -0.701   0.782  0.00  0.00    -0.265 N 
ATOM     12  C   UNL     1       1.723  -3.065   0.441  0.00  0.00    +0.150 C 
ATOM     13  N   UNL     1       1.334  -4.312   0.245  0.00  0.00    -0.221 NA
ATOM     14  C   UNL     1       2.168  -5.343   0.166  0.00  0.00    +0.225 C 
ATOM     15  N   UNL     1       3.426  -5.276   0.586  0.00  0.00    -0.218 NA
ATOM     16  C   UNL     1       3.829  -4.090   1.033  0.00  0.00    +0.164 C 
ATOM     17  N   UNL     1       4.674  -3.699   1.938  0.00  0.00    -0.219 NA
ATOM     18  C   UNL     1       4.471  -2.418   2.273  0.00  0.00    +0.218 C 
ATOM     19  N   UNL     1       3.600  -1.820   1.509  0.00  0.00    -0.253 NA
ATOM     20  C   UNL     1       3.203  -2.800   0.497  0.00  0.00    +0.239 C 
ATOM     21  H   UNL     1      -0.715  -3.704  -0.887  0.00  0.00    +0.151 HD
ATOM     22  H   UNL     1       1.968  -0.332   0.997  0.00  0.00    +0.170 HD
ENDROOT
BRANCH   4  23
ATOM     23  C   UNL     1      -2.684   1.106  -0.045  0.00  0.00    -0.028 A 
ATOM     24  C   UNL     1      -2.264   1.753  -1.192  0.00  0.00    +0.005 A 
ATOM     25  C   UNL     1      -2.410   3.123  -1.306  0.00  0.00    +0.000 A 
ATOM     26  C   UNL     1      -2.977   3.846  -0.273  0.00  0.00    +0.001 A 
ATOM     27  C   UNL     1      -3.398   3.199   0.874  0.00  0.00    +0.012 A 
ATOM     28  C   UNL     1      -3.255   1.828   0.986  0.00  0.00    +0.059 A 
BRANCH  28  29
ATOM     29  C   UNL     1      -3.719   1.122   2.234  0.00  0.00    +0.418 C 
ATOM     30  F   UNL     1      -4.257   2.057   3.126  0.00  0.00    -0.166 F 
ATOM     31  F   UNL     1      -4.696   0.179   1.901  0.00  0.00    -0.166 F 
ATOM     32  F   UNL     1      -2.633   0.477   2.835  0.00  0.00    -0.166 F 
ENDBRANCH  28  29
ENDBRANCH   4  23
TORSDOF 2
