REMARK  Name = ZINC09320664
REMARK  3 active torsions:
REMARK  status: ('A' for Active; 'I' for Inactive)
REMARK    1  A    between atoms: C_3  and  C_8
REMARK    2  A    between atoms: N_14  and  N_15
REMARK    3  A    between atoms: C_16  and  C_17
REMARK                            x       y       z     vdW  Elec       q    Type
REMARK                         _______ _______ _______ _____ _____    ______ ____
ROOT
ATOM      1  C   UNL     1       2.479   1.074  -0.015  0.00  0.00    +0.184 A 
ATOM      2  N   UNL     1       2.647  -0.188  -0.297  0.00  0.00    -0.152 NA
ATOM      3  N   UNL     1       4.015  -0.476  -0.200  0.00  0.00    -0.253 N 
ATOM      4  H   UNL     1       4.432  -1.338  -0.355  0.00  0.00    +0.191 HD
ATOM      5  C   UNL     1       4.646   0.663   0.149  0.00  0.00    +0.197 A 
ATOM      6  S   UNL     1       6.330   0.850   0.398  0.00  0.00    -0.010 S 
ATOM      7  N   UNL     1       3.714   1.630   0.262  0.00  0.00    -0.188 N 
ENDROOT
BRANCH   1  10
ATOM      8  C   UNL     1      -0.052   3.850   0.022  0.00  0.00    +0.002 A 
ATOM      9  C   UNL     1       1.158   3.186   0.008  0.00  0.00    +0.012 A 
ATOM     10  C   UNL     1       1.185   1.791   0.000  0.00  0.00    +0.022 A 
ATOM     11  C   UNL     1      -0.013   1.076   0.008  0.00  0.00    +0.031 A 
ATOM     12  C   UNL     1      -1.217   1.752   0.017  0.00  0.00    +0.042 A 
ATOM     13  C   UNL     1      -1.236   3.136   0.030  0.00  0.00    +0.020 A 
ATOM     14 CL   UNL     1      -2.708   0.864   0.020  0.00  0.00    -0.084 Cl
ENDBRANCH   1  10
BRANCH   7  15
ATOM     15  N   UNL     1       3.954   2.967   0.603  0.00  0.00    -0.170 NA
ATOM     16  C   UNL     1       3.937   3.332   1.849  0.00  0.00    +0.144 C 
BRANCH  16  17
ATOM     17  C   UNL     1       4.190   4.739   2.208  0.00  0.00    +0.031 A 
ATOM     18  C   UNL     1       4.454   5.682   1.210  0.00  0.00    +0.051 A 
ATOM     19  C   UNL     1       4.685   6.999   1.555  0.00  0.00    +0.021 A 
ATOM     20  C   UNL     1       4.666   7.384   2.883  0.00  0.00    +0.003 A 
ATOM     21  C   UNL     1       4.410   6.456   3.877  0.00  0.00    +0.021 A 
ATOM     22  C   UNL     1       4.172   5.136   3.548  0.00  0.00    +0.051 A 
ATOM     23 CL   UNL     1       3.851   3.973   4.796  0.00  0.00    -0.083 Cl
ATOM     24 CL   UNL     1       4.486   5.200  -0.457  0.00  0.00    -0.083 Cl
ENDBRANCH  16  17
ENDBRANCH   7  15
TORSDOF 3
