REMARK  Name = ZINC52569914
REMARK  10 active torsions:
REMARK  status: ('A' for Active; 'I' for Inactive)
REMARK    1  A    between atoms: C_1  and  C_2
REMARK    2  A    between atoms: C_5  and  C_12
REMARK    3  A    between atoms: C_14  and  O_25
REMARK    4  A    between atoms: C_17  and  C_18
REMARK    5  A    between atoms: C_22  and  C_23
REMARK    6  A    between atoms: O_25  and  C_26
REMARK    7  A    between atoms: C_26  and  C_27
REMARK    8  A    between atoms: C_27  and  C_29
REMARK    9  A    between atoms: C_27  and  N_39
REMARK   10  A    between atoms: C_29  and  C_30
REMARK                            x       y       z     vdW  Elec       q    Type
REMARK                         _______ _______ _______ _____ _____    ______ ____
ROOT
ATOM      1  C   UNL     1      -5.779   1.948  -0.025  0.00  0.00    +0.012 A 
ATOM      2  C   UNL     1      -6.045   0.746   0.636  0.00  0.00    +0.059 A 
ATOM      3  C   UNL     1      -7.000   0.743   1.640  0.00  0.00    +0.160 A 
ATOM      4  C   UNL     1      -7.662   1.931   1.959  0.00  0.00    +0.159 A 
ATOM      5  N   UNL     1      -7.390   3.054   1.317  0.00  0.00    -0.228 NA
ATOM      6  C   UNL     1      -6.479   3.103   0.352  0.00  0.00    +0.084 A 
ATOM      7  N   UNL     1      -8.622   1.932   2.967  0.00  0.00    -0.340 N 
ATOM      8  H   UNL     1      -8.826   1.111   3.442  0.00  0.00    +0.144 HD
ATOM      9  H   UNL     1      -9.085   2.753   3.194  0.00  0.00    +0.144 HD
ENDROOT
BRANCH   1  14
ATOM     10  C   UNL     1      -0.253   0.739  -0.865  0.00  0.00    +0.068 C 
ATOM     11  C   UNL     1      -1.105   1.296  -1.976  0.00  0.00    +0.067 A 
ATOM     12  C   UNL     1      -2.520   1.642  -1.885  0.00  0.00    +0.023 A 
ATOM     13  C   UNL     1      -3.467   1.586  -0.859  0.00  0.00    +0.020 A 
ATOM     14  C   UNL     1      -4.766   2.003  -1.106  0.00  0.00    -0.015 A 
ATOM     15  C   UNL     1      -5.124   2.476  -2.375  0.00  0.00    +0.010 A 
ATOM     16  C   UNL     1      -4.205   2.534  -3.381  0.00  0.00    +0.028 A 
ATOM     17  C   UNL     1      -2.894   2.120  -3.156  0.00  0.00    +0.066 A 
ATOM     18  N   UNL     1      -1.773   2.060  -3.944  0.00  0.00    -0.277 N 
ATOM     19  N   UNL     1      -0.709   1.559  -3.189  0.00  0.00    -0.178 NA
ATOM     20  H   UNL     1      -1.726   2.326  -4.876  0.00  0.00    +0.189 HD
ENDBRANCH   1  14
BRANCH   6  21
ATOM     21  C   UNL     1      -6.204   4.386  -0.334  0.00  0.00    +0.042 A 
ATOM     22  C   UNL     1      -4.891   4.985  -0.602  0.00  0.00    +0.051 A 
ATOM     23  C   UNL     1      -5.134   6.140  -1.242  0.00  0.00    +0.196 A 
ATOM     24  O   UNL     1      -6.459   6.292  -1.384  0.00  0.00    -0.467 OA
ATOM     25  C   UNL     1      -7.116   5.252  -0.852  0.00  0.00    +0.111 A 
ATOM     26  C   UNL     1      -8.612   5.073  -0.829  0.00  0.00    +0.087 C 
ENDBRANCH   6  21
BRANCH   3  27
ATOM     27  O   UNL     1      -7.290  -0.406   2.308  0.00  0.00    -0.490 OA
BRANCH  27  28
ATOM     28  C   UNL     1      -6.570  -1.580   1.924  0.00  0.00    +0.213 C 
BRANCH  28  29
ATOM     29  C   UNL     1      -7.029  -2.762   2.780  0.00  0.00    -0.033 C 
BRANCH  29  30
ATOM     30  N   UNL     1      -8.438  -3.058   2.491  0.00  0.00    +0.382 N 
ATOM     31  H   UNL     1      -8.540  -3.291   1.514  0.00  0.00    -0.089 HD
ATOM     32  H   UNL     1      -8.740  -3.838   3.055  0.00  0.00    -0.089 HD
ATOM     33  H   UNL     1      -9.002  -2.250   2.705  0.00  0.00    -0.089 HD
ENDBRANCH  29  30
BRANCH  29  34
ATOM     34  C   UNL     1      -6.173  -3.988   2.455  0.00  0.00    +0.020 C 
BRANCH  34  35
ATOM     35  C   UNL     1      -6.541  -5.117   3.383  0.00  0.00    -0.043 C 
ATOM     36  C   UNL     1      -7.416  -6.119   3.137  0.00  0.00    -0.001 A 
ATOM     37  C   UNL     1      -8.256  -6.444   1.978  0.00  0.00    +0.010 A 
ATOM     38  C   UNL     1      -9.050  -7.538   2.029  0.00  0.00    +0.001 A 
ATOM     39  C   UNL     1      -9.090  -8.367   3.158  0.00  0.00    +0.002 A 
ATOM     40  C   UNL     1      -8.348  -8.134   4.261  0.00  0.00    +0.026 A 
ATOM     41  C   UNL     1      -7.477  -7.011   4.317  0.00  0.00    +0.043 A 
ATOM     42  N   UNL     1      -6.670  -6.578   5.256  0.00  0.00    -0.380 N 
ATOM     43  C   UNL     1      -6.002  -5.364   4.774  0.00  0.00    +0.144 C 
ATOM     44  H   UNL     1      -6.535  -6.993   6.122  0.00  0.00    +0.160 HD
ENDBRANCH  34  35
ENDBRANCH  29  34
ENDBRANCH  28  29
ENDBRANCH  27  28
ENDBRANCH   3  27
TORSDOF 8
