REMARK  Name = ZINC48272342
REMARK  5 active torsions:
REMARK  status: ('A' for Active; 'I' for Inactive)
REMARK    1  A    between atoms: C_9  and  C_12
REMARK    2  A    between atoms: N_14  and  C_15
REMARK    3  A    between atoms: C_15  and  C_16
REMARK    4  A    between atoms: C_16  and  C_18
REMARK    5  A    between atoms: C_16  and  N_23
REMARK                            x       y       z     vdW  Elec       q    Type
REMARK                         _______ _______ _______ _____ _____    ______ ____
ROOT
ATOM      1  C   UNL     1       4.850  -2.661  -0.612  0.00  0.00    +0.251 C 
ATOM      2  O   UNL     1       4.801  -3.875  -0.534  0.00  0.00    -0.270 OA
ATOM      3  N   UNL     1       6.037  -2.028  -0.540  0.00  0.00    -0.312 N 
ATOM      4  H   UNL     1       6.071  -1.059  -0.538  0.00  0.00    +0.149 HD
ENDROOT
BRANCH   1  13
ATOM      5  C   UNL     1      -1.015  -0.274  -1.449  0.00  0.00    +0.005 A 
ATOM      6  C   UNL     1      -1.069  -1.673  -1.481  0.00  0.00    +0.018 A 
ATOM      7  C   UNL     1       0.061  -2.400  -1.325  0.00  0.00    +0.096 A 
ATOM      8  N   UNL     1       1.262  -1.787  -1.134  0.00  0.00    -0.268 N 
ATOM      9  C   UNL     1       1.347  -0.425  -1.099  0.00  0.00    +0.140 A 
ATOM     10  C   UNL     1       0.185   0.348  -1.259  0.00  0.00    +0.047 A 
ATOM     11  N   UNL     1       2.519   0.190  -0.914  0.00  0.00    -0.237 NA
ATOM     12  C   UNL     1       3.638  -0.486  -0.758  0.00  0.00    +0.131 A 
ATOM     13  C   UNL     1       3.615  -1.887  -0.784  0.00  0.00    +0.119 A 
ATOM     14  C   UNL     1       2.373  -2.539  -0.980  0.00  0.00    +0.270 A 
ATOM     15  O   UNL     1       2.309  -3.755  -1.010  0.00  0.00    -0.266 OA
ENDBRANCH   1  13
BRANCH   3  16
ATOM     16  C   UNL     1       7.278  -2.804  -0.465  0.00  0.00    +0.097 C 
BRANCH  16  17
ATOM     17  C   UNL     1       8.463  -1.854  -0.283  0.00  0.00    +0.016 C 
BRANCH  17  18
ATOM     18  N   UNL     1       8.454  -0.848  -1.353  0.00  0.00    +0.387 N 
ATOM     19  C   UNL     1       8.414  -1.522  -2.656  0.00  0.00    -0.078 C 
ATOM     20  C   UNL     1       8.322  -0.479  -3.772  0.00  0.00    -0.019 C 
ATOM     21  C   UNL     1       9.547   0.439  -3.707  0.00  0.00    -0.004 C 
ATOM     22  C   UNL     1       9.620   1.079  -2.318  0.00  0.00    -0.019 C 
ATOM     23  C   UNL     1       9.664  -0.022  -1.256  0.00  0.00    -0.078 C 
ATOM     24  H   UNL     1       7.639  -0.261  -1.254  0.00  0.00    -0.081 HD
ENDBRANCH  17  18
BRANCH  17  25
ATOM     25  C   UNL     1       9.749  -2.638  -0.342  0.00  0.00    +0.093 A 
ATOM     26  C   UNL     1      10.478  -3.035   0.717  0.00  0.00    +0.043 A 
ATOM     27  C   UNL     1      11.594  -3.736   0.206  0.00  0.00    +0.041 A 
ATOM     28  C   UNL     1      11.481  -3.726  -1.134  0.00  0.00    +0.195 A 
ATOM     29  O   UNL     1      10.358  -3.065  -1.460  0.00  0.00    -0.469 OA
ENDBRANCH  17  25
ENDBRANCH  16  17
ENDBRANCH   3  16
TORSDOF 5
