REMARK  Name = ZINC09603251
REMARK  8 active torsions:
REMARK  status: ('A' for Active; 'I' for Inactive)
REMARK    1  A    between atoms: C_1  and  C_2
REMARK    2  A    between atoms: C_5  and  N_8
REMARK    3  A    between atoms: C_9  and  C_32
REMARK    4  A    between atoms: C_11  and  C_17
REMARK    5  A    between atoms: C_17  and  O_19
REMARK    6  A    between atoms: O_19  and  C_20
REMARK    7  A    between atoms: C_20  and  C_21
REMARK    8  A    between atoms: N_26  and  C_27
REMARK                            x       y       z     vdW  Elec       q    Type
REMARK                         _______ _______ _______ _____ _____    ______ ____
ROOT
ATOM      1  N   UNL     1      10.758   2.328   0.135  0.00  0.00    -0.263 N 
ATOM      2  C   UNL     1       9.538   1.663  -0.306  0.00  0.00    +0.132 C 
ATOM      3  C   UNL     1       8.341   2.606  -0.184  0.00  0.00    +0.124 C 
ATOM      4  C   UNL     1       8.326   3.208   1.226  0.00  0.00    +0.026 C 
ATOM      5  C   UNL     1       9.542   4.125   1.373  0.00  0.00    +0.097 C 
ATOM      6  C   UNL     1      10.780   3.417   0.903  0.00  0.00    +0.220 C 
ATOM      7  O   UNL     1      11.857   3.860   1.241  0.00  0.00    -0.275 OA
ENDROOT
BRANCH   1  12
ATOM      8  C   UNL     1      15.725   0.145  -1.524  0.00  0.00    +0.044 C 
ATOM      9  C   UNL     1      14.405   0.725  -1.084  0.00  0.00    -0.050 A 
ATOM     10  C   UNL     1      14.006   1.964  -1.550  0.00  0.00    +0.005 A 
ATOM     11  C   UNL     1      12.798   2.498  -1.148  0.00  0.00    +0.024 A 
ATOM     12  C   UNL     1      11.983   1.789  -0.275  0.00  0.00    +0.037 A 
ATOM     13  C   UNL     1      12.389   0.547   0.196  0.00  0.00    +0.024 A 
ATOM     14  C   UNL     1      13.596   0.016  -0.215  0.00  0.00    +0.005 A 
ENDBRANCH   1  12
BRANCH   2  15
ATOM     15  C   UNL     1       9.694   1.237  -1.743  0.00  0.00    +0.011 A 
ATOM     16  C   UNL     1       9.434   0.034  -2.310  0.00  0.00    +0.013 A 
ATOM     17  C   UNL     1       9.650  -0.130  -3.665  0.00  0.00    +0.008 A 
ATOM     18  C   UNL     1      10.126   0.916  -4.386  0.00  0.00    +0.045 A 
ATOM     19  S   UNL     1      10.275   2.186  -3.139  0.00  0.00    -0.100 S 
ENDBRANCH   2  15
BRANCH   3  20
ATOM     20  C   UNL     1       7.066   1.837  -0.419  0.00  0.00    +0.313 C 
ATOM     21  O   UNL     1       7.110   0.655  -0.665  0.00  0.00    -0.250 OA
BRANCH  20  22
ATOM     22  O   UNL     1       5.881   2.466  -0.355  0.00  0.00    -0.455 OA
BRANCH  22  23
ATOM     23  C   UNL     1       4.695   1.663  -0.592  0.00  0.00    +0.328 C 
BRANCH  23  24
ATOM     24  C   UNL     1       3.469   2.532  -0.479  0.00  0.00    +0.258 C 
ATOM     25  O   UNL     1       3.584   3.712  -0.225  0.00  0.00    -0.272 OA
ATOM     26  N   UNL     1       2.245   1.998  -0.662  0.00  0.00    -0.237 N 
ATOM     27  C   UNL     1       1.149   2.776  -0.561  0.00  0.00    +0.306 C 
ATOM     28  O   UNL     1       1.264   3.958  -0.306  0.00  0.00    -0.252 OA
ATOM     29  N   UNL     1      -0.075   2.241  -0.744  0.00  0.00    -0.296 N 
ATOM     30  H   UNL     1       2.154   1.054  -0.865  0.00  0.00    +0.159 HD
ATOM     31  H   UNL     1      -0.167   1.298  -0.947  0.00  0.00    +0.151 HD
BRANCH  29  32
ATOM     32  C   UNL     1      -1.266   3.088  -0.640  0.00  0.00    +0.074 C 
ATOM     33  C   UNL     1      -1.741   3.155   0.826  0.00  0.00    +0.022 C 
ATOM     34  C   UNL     1      -3.288   3.164   0.723  0.00  0.00    +0.002 C 
ATOM     35  C   UNL     1      -3.559   2.187  -0.448  0.00  0.00    +0.002 C 
ATOM     36  C   UNL     1      -2.421   2.473  -1.450  0.00  0.00    +0.022 C 
ENDBRANCH  29  32
ENDBRANCH  23  24
ENDBRANCH  22  23
ENDBRANCH  20  22
ENDBRANCH   3  20
TORSDOF 7
