REMARK  Name = ZINC27531949
REMARK  8 active torsions:
REMARK  status: ('A' for Active; 'I' for Inactive)
REMARK    1  A    between atoms: C_1  and  C_2
REMARK    2  A    between atoms: C_2  and  N_4
REMARK    3  A    between atoms: C_10  and  C_11
REMARK    4  A    between atoms: C_13  and  O_23
REMARK    5  A    between atoms: C_14  and  O_18
REMARK    6  A    between atoms: O_18  and  C_19
REMARK    7  A    between atoms: C_19  and  C_20
REMARK    8  A    between atoms: O_23  and  C_24
REMARK                            x       y       z     vdW  Elec       q    Type
REMARK                         _______ _______ _______ _____ _____    ______ ____
ROOT
ATOM      1  C   UNL     1      -0.455  -6.375  -3.573  0.00  0.00    -0.019 A 
ATOM      2  C   UNL     1      -0.380  -7.700  -4.024  0.00  0.00    +0.057 A 
ATOM      3  C   UNL     1      -0.531  -7.978  -5.367  0.00  0.00    +0.163 A 
ATOM      4  C   UNL     1      -0.757  -6.942  -6.274  0.00  0.00    +0.177 A 
ATOM      5  C   UNL     1      -0.831  -5.628  -5.829  0.00  0.00    +0.064 A 
ATOM      6  C   UNL     1      -0.687  -5.341  -4.488  0.00  0.00    +0.027 A 
ATOM      7 BR   UNL     1      -1.137  -4.230  -7.065  0.00  0.00    -0.046 Br
ENDROOT
BRANCH   1  14
ATOM      8  N   UNL     1       2.023 -10.171   0.222  0.00  0.00    -0.159 NA
ATOM      9  C   UNL     1       1.413  -9.049  -0.142  0.00  0.00    +0.158 C 
ATOM     10  N   UNL     1       0.968  -8.047   0.669  0.00  0.00    -0.262 N 
ATOM     11  C   UNL     1       0.373  -6.978   0.158  0.00  0.00    +0.256 C 
ATOM     12  O   UNL     1      -0.039  -6.061   0.843  0.00  0.00    -0.269 OA
ATOM     13  C   UNL     1       0.253  -6.996  -1.313  0.00  0.00    +0.078 C 
ATOM     14  C   UNL     1      -0.296  -6.073  -2.146  0.00  0.00    +0.028 C 
ATOM     15  S   UNL     1       1.030  -8.555  -1.701  0.00  0.00    -0.051 S 
ATOM     16  H   UNL     1       1.088  -8.117   1.629  0.00  0.00    +0.157 HD
BRANCH   8  18
ATOM     17  C   UNL     1       2.730 -11.801   1.923  0.00  0.00    +0.111 C 
ATOM     18  C   UNL     1       2.143 -10.475   1.512  0.00  0.00    +0.235 C 
ATOM     19  O   UNL     1       1.779  -9.683   2.359  0.00  0.00    -0.274 OA
ENDBRANCH   8  18
ENDBRANCH   1  14
BRANCH   3  20
ATOM     20  O   UNL     1      -0.459  -9.262  -5.808  0.00  0.00    -0.491 OA
ATOM     21  C   UNL     1      -0.224 -10.273  -4.825  0.00  0.00    +0.277 C 
ENDBRANCH   3  20
BRANCH   4  22
ATOM     22  O   UNL     1      -0.905  -7.219  -7.595  0.00  0.00    -0.476 OA
BRANCH  22  23
ATOM     23  C   UNL     1      -2.232  -7.479  -8.059  0.00  0.00    +0.354 C 
BRANCH  23  24
ATOM     24  C   UNL     1      -2.200  -7.764  -9.539  0.00  0.00    +0.393 C 
ATOM     25  O   UNL     1      -1.139  -7.746 -10.140  0.00  0.00    -0.243 OA
ATOM     26  O   UNL     1      -3.234  -8.012 -10.134  0.00  0.00    -0.243 OA
ENDBRANCH  23  24
ENDBRANCH  22  23
ENDBRANCH   4  22
TORSDOF 6
