REMARK  Name = ZINC11838592
REMARK  6 active torsions:
REMARK  status: ('A' for Active; 'I' for Inactive)
REMARK    1  A    between atoms: C_3  and  C_9
REMARK    2  A    between atoms: C_9  and  N_63
REMARK    3  A    between atoms: C_15  and  C_17
REMARK    4  A    between atoms: C_17  and  C_18
REMARK    5  A    between atoms: C_23  and  N_65
REMARK    6  A    between atoms: C_28  and  O_31
REMARK                            x       y       z     vdW  Elec       q    Type
REMARK                         _______ _______ _______ _____ _____    ______ ____
ROOT
ATOM      1  C   UNL     1       2.584   4.315  -9.103  0.00  0.00    -0.058 C 
ATOM      2  C   UNL     1       1.614   3.402  -9.856  0.00  0.00    +0.085 C 
ATOM      3  N   UNL     1       1.877   2.006  -9.518  0.00  0.00    -0.318 N 
ATOM      4  C   UNL     1       2.571   1.638  -8.436  0.00  0.00    +0.200 C 
ATOM      5  O   UNL     1       2.716   0.455  -8.213  0.00  0.00    -0.278 OA
ATOM      6  C   UNL     1       3.178   2.629  -7.484  0.00  0.00    +0.028 C 
ATOM      7  H   UNL     1       1.533   1.315 -10.105  0.00  0.00    +0.149 HD
ATOM      8  N   UNL     1       2.542   3.947  -7.673  0.00  0.00    +0.391 N 
ATOM      9  H   UNL     1       1.563   3.894  -7.369  0.00  0.00    -0.080 HD
ENDROOT
BRANCH   8  10
ATOM     10  C   UNL     1       3.244   4.969  -6.865  0.00  0.00    -0.039 C 
BRANCH  10  13
ATOM     11  C   UNL     1       1.113   8.078  -6.633  0.00  0.00    +0.003 A 
ATOM     12  C   UNL     1       1.653   6.834  -6.360  0.00  0.00    +0.005 A 
ATOM     13  C   UNL     1       2.656   6.324  -7.163  0.00  0.00    -0.026 A 
ATOM     14  C   UNL     1       3.123   7.060  -8.238  0.00  0.00    +0.160 A 
ATOM     15  C   UNL     1       2.577   8.304  -8.515  0.00  0.00    +0.159 A 
ATOM     16  C   UNL     1       1.574   8.813  -7.708  0.00  0.00    +0.041 A 
ATOM     17  F   UNL     1       3.029   9.022  -9.566  0.00  0.00    -0.202 F 
ATOM     18  F   UNL     1       4.107   6.564  -9.020  0.00  0.00    -0.202 F 
ENDBRANCH  10  13
ENDBRANCH   8  10
BRANCH   6  19
ATOM     19  C   UNL     1       2.939   2.164  -6.046  0.00  0.00    +0.090 C 
BRANCH  19  20
ATOM     20  C   UNL     1       1.458   2.123  -5.771  0.00  0.00    +0.214 C 
ATOM     21  O   UNL     1       0.675   2.530  -6.603  0.00  0.00    -0.276 OA
ATOM     22  N   UNL     1       1.003   1.635  -4.600  0.00  0.00    -0.302 N 
ATOM     23  C   UNL     1      -0.438   1.589  -4.317  0.00  0.00    +0.106 C 
ATOM     24  C   UNL     1      -0.702   2.294  -2.983  0.00  0.00    +0.004 C 
ATOM     25  C   UNL     1       0.172   1.665  -1.896  0.00  0.00    -0.066 C 
ATOM     26  C   UNL     1       1.648   1.849  -2.256  0.00  0.00    +0.004 C 
ATOM     27  C   UNL     1       1.939   1.138  -3.582  0.00  0.00    +0.106 C 
BRANCH  25  33
ATOM     28  C   UNL     1       0.631   1.660   0.481  0.00  0.00    -0.076 C 
ATOM     29  C   UNL     1       0.211   2.269   1.820  0.00  0.00    +0.013 C 
ATOM     30  C   UNL     1       0.512   3.770   1.810  0.00  0.00    +0.111 C 
ATOM     31  C   UNL     1      -0.225   4.422   0.637  0.00  0.00    +0.013 C 
ATOM     32  C   UNL     1       0.208   3.751  -0.668  0.00  0.00    -0.076 C 
ATOM     33  N   UNL     1      -0.132   2.313  -0.604  0.00  0.00    +0.382 N 
ATOM     34  H   UNL     1      -1.135   2.217  -0.410  0.00  0.00    -0.081 HD
BRANCH  30  35
ATOM     35  O   UNL     1       0.070   4.355   3.036  0.00  0.00    -0.392 OA
ATOM     36  H   UNL     1       0.496   3.988   3.823  0.00  0.00    +0.210 HD
ENDBRANCH  30  35
ENDBRANCH  25  33
ENDBRANCH  19  20
ENDBRANCH   6  19
TORSDOF 6
