REMARK  Name = ZINC12682813
REMARK  12 active torsions:
REMARK  status: ('A' for Active; 'I' for Inactive)
REMARK    1  A    between atoms: C_1  and  C_2
REMARK    2  A    between atoms: C_7  and  C_9
REMARK    3  A    between atoms: C_7  and  C_10
REMARK    4  A    between atoms: N_13  and  C_17
REMARK    5  A    between atoms: C_17  and  C_18
REMARK    6  A    between atoms: N_20  and  C_21
REMARK    7  A    between atoms: C_23  and  O_31
REMARK    8  A    between atoms: C_24  and  O_29
REMARK    9  A    between atoms: C_25  and  O_27
REMARK   10  A    between atoms: O_27  and  C_28
REMARK   11  A    between atoms: O_29  and  C_30
REMARK   12  A    between atoms: O_31  and  C_32
REMARK                            x       y       z     vdW  Elec       q    Type
REMARK                         _______ _______ _______ _____ _____    ______ ____
ROOT
ATOM      1  C   UNL     1      -0.210  -3.445  -4.534  0.00  0.00    +0.214 C 
ENDROOT
BRANCH   1  13
ATOM      2  C   UNL     1       0.101   1.609   0.426  0.00  0.00    +0.007 C 
ATOM      3  C   UNL     1      -0.057   0.095   0.277  0.00  0.00    -0.011 C 
ATOM      4  C   UNL     1       0.480  -0.343  -1.089  0.00  0.00    +0.038 C 
ATOM      5  C   UNL     1       0.343  -1.855  -1.229  0.00  0.00    +0.113 C 
ATOM      6  C   UNL     1       1.105  -2.571  -0.120  0.00  0.00    +0.041 C 
ATOM      7  C   UNL     1       0.566  -2.126   1.242  0.00  0.00    -0.032 C 
ATOM      8  C   UNL     1       0.730  -0.611   1.383  0.00  0.00    +0.009 C 
ATOM      9  C   UNL     1      -0.916  -2.490   1.348  0.00  0.00    +0.011 C 
ATOM     10  C   UNL     1       1.346  -2.829   2.354  0.00  0.00    +0.011 C 
ATOM     11  C   UNL     1       0.835  -2.305  -2.585  0.00  0.00    +0.247 C 
ATOM     12  O   UNL     1       1.954  -2.188  -3.036  0.00  0.00    -0.273 OA
ATOM     13  N   UNL     1      -0.234  -2.867  -3.188  0.00  0.00    -0.215 N 
ATOM     14  C   UNL     1      -1.318  -2.831  -2.404  0.00  0.00    +0.310 C 
ATOM     15  O   UNL     1      -2.401  -3.276  -2.727  0.00  0.00    -0.252 OA
ATOM     16  N   UNL     1      -1.073  -2.246  -1.216  0.00  0.00    -0.285 N 
ATOM     17  H   UNL     1      -1.706  -2.110  -0.494  0.00  0.00    +0.151 HD
ENDBRANCH   1  13
BRANCH   1  18
ATOM     18  C   UNL     1       0.153  -4.905  -4.448  0.00  0.00    +0.235 C 
ATOM     19  O   UNL     1       0.370  -5.413  -3.368  0.00  0.00    -0.274 OA
ATOM     20  N   UNL     1       0.235  -5.647  -5.570  0.00  0.00    -0.284 N 
ATOM     21  H   UNL     1       0.137  -5.225  -6.438  0.00  0.00    +0.155 HD
BRANCH  20  22
ATOM     22  C   UNL     1       0.463  -7.026  -5.483  0.00  0.00    +0.041 A 
ATOM     23  C   UNL     1       1.208  -7.669  -6.463  0.00  0.00    +0.073 A 
ATOM     24  C   UNL     1       1.434  -9.034  -6.377  0.00  0.00    +0.167 A 
ATOM     25  C   UNL     1       0.915  -9.759  -5.311  0.00  0.00    +0.204 A 
ATOM     26  C   UNL     1       0.169  -9.114  -4.332  0.00  0.00    +0.167 A 
ATOM     27  C   UNL     1      -0.051  -7.748  -4.415  0.00  0.00    +0.073 A 
BRANCH  26  28
ATOM     28  O   UNL     1      -0.340  -9.822  -3.288  0.00  0.00    -0.491 OA
ATOM     29  C   UNL     1      -1.097  -9.095  -2.318  0.00  0.00    +0.277 C 
ENDBRANCH  26  28
BRANCH  25  30
ATOM     30  O   UNL     1       1.136 -11.100  -5.227  0.00  0.00    -0.488 OA
ATOM     31  C   UNL     1       2.304 -11.521  -4.521  0.00  0.00    +0.277 C 
ENDBRANCH  25  30
BRANCH  24  32
ATOM     32  O   UNL     1       2.163  -9.664  -7.337  0.00  0.00    -0.491 OA
ATOM     33  C   UNL     1       2.666  -8.857  -8.404  0.00  0.00    +0.277 C 
ENDBRANCH  24  32
ENDBRANCH  20  22
ENDBRANCH   1  18
TORSDOF 6
