REMARK  Name = ZINC65182743
REMARK  9 active torsions:
REMARK  status: ('A' for Active; 'I' for Inactive)
REMARK    1  A    between atoms: C_1  and  C_2
REMARK    2  A    between atoms: C_7  and  C_13
REMARK    3  A    between atoms: C_9  and  C_12
REMARK    4  A    between atoms: C_16  and  C_19
REMARK    5  A    between atoms: C_19  and  C_20
REMARK    6  A    between atoms: C_20  and  N_21
REMARK    7  A    between atoms: N_21  and  C_22
REMARK    8  A    between atoms: C_23  and  C_25
REMARK    9  A    between atoms: C_28  and  C_31
REMARK                            x       y       z     vdW  Elec       q    Type
REMARK                         _______ _______ _______ _____ _____    ______ ____
ROOT
ATOM      1  C   UNL     1       1.513  -5.165   1.922  0.00  0.00    +0.318 C 
ATOM      2  N   UNL     1       1.542  -6.416   1.146  0.00  0.00    -0.291 N 
ATOM      3  C   UNL     1       1.511  -7.448   2.054  0.00  0.00    +0.139 C 
ATOM      4  N   UNL     1       1.467  -7.013   3.261  0.00  0.00    -0.072 NA
ATOM      5  O   UNL     1       1.465  -5.596   3.292  0.00  0.00    -0.367 OA
ATOM      6  H   UNL     1       1.577  -6.496   0.180  0.00  0.00    +0.151 HD
ENDROOT
BRANCH   1  13
ATOM      7  C   UNL     1       0.344   1.578   0.184  0.00  0.00    +0.044 C 
ATOM      8  C   UNL     1       0.317   0.071   0.158  0.00  0.00    -0.050 A 
ATOM      9  C   UNL     1       0.279  -0.589  -1.078  0.00  0.00    +0.005 A 
ATOM     10  C   UNL     1       0.253  -1.935  -1.185  0.00  0.00    +0.026 A 
ATOM     11  C   UNL     1       0.263  -2.749  -0.018  0.00  0.00    +0.043 A 
ATOM     12  N   UNL     1       0.242  -4.050   0.138  0.00  0.00    -0.373 N 
ATOM     13  C   UNL     1       0.266  -4.349   1.574  0.00  0.00    +0.168 C 
ATOM     14  C   UNL     1       0.305  -3.010   2.276  0.00  0.00    -0.036 C 
ATOM     15  C   UNL     1       0.302  -2.075   1.299  0.00  0.00    -0.001 A 
ATOM     16  C   UNL     1       0.335  -0.608   1.327  0.00  0.00    +0.013 A 
ATOM     17  C   UNL     1       0.339  -2.768   3.763  0.00  0.00    +0.042 C 
ATOM     18  H   UNL     1       0.215  -4.706  -0.577  0.00  0.00    +0.160 HD
ENDBRANCH   1  13
BRANCH   3  19
ATOM     19  C   UNL     1       1.526  -8.908   1.679  0.00  0.00    +0.094 C 
BRANCH  19  20
ATOM     20  C   UNL     1       1.481  -9.761   2.948  0.00  0.00    +0.115 C 
BRANCH  20  21
ATOM     21  N   UNL     1       1.496 -11.180   2.583  0.00  0.00    -0.300 N 
ATOM     22  C   UNL     1       2.771 -11.888   2.446  0.00  0.00    +0.132 C 
ATOM     23  C   UNL     1       0.336 -11.834   2.374  0.00  0.00    +0.246 C 
ATOM     24  O   UNL     1      -0.716 -11.224   2.382  0.00  0.00    -0.270 OA
BRANCH  23  25
ATOM     25  C   UNL     1       0.343 -13.293   2.133  0.00  0.00    +0.037 A 
ATOM     26  C   UNL     1       1.271 -14.104   2.789  0.00  0.00    +0.014 A 
ATOM     27  C   UNL     1       1.277 -15.463   2.566  0.00  0.00    +0.019 A 
ATOM     28  C   UNL     1       0.356 -16.030   1.682  0.00  0.00    +0.052 A 
ATOM     29  C   UNL     1      -0.573 -15.218   1.026  0.00  0.00    +0.019 A 
ATOM     30  C   UNL     1      -0.582 -13.860   1.254  0.00  0.00    +0.014 A 
BRANCH  28  31
ATOM     31  C   UNL     1       0.363 -17.443   1.449  0.00  0.00    +0.099 C 
ATOM     32  N   UNL     1       0.368 -18.564   1.264  0.00  0.00    -0.191 NA
ENDBRANCH  28  31
ENDBRANCH  23  25
ENDBRANCH  20  21
ENDBRANCH  19  20
ENDBRANCH   3  19
TORSDOF 6
