REMARK  Name = ZINC09311139
REMARK  6 active torsions:
REMARK  status: ('A' for Active; 'I' for Inactive)
REMARK    1  A    between atoms: C_1  and  N_2
REMARK    2  A    between atoms: C_6  and  C_7
REMARK    3  A    between atoms: C_10  and  O_14
REMARK    4  A    between atoms: O_14  and  C_15
REMARK    5  A    between atoms: C_15  and  C_16
REMARK    6  A    between atoms: C_19  and  C_22
REMARK                            x       y       z     vdW  Elec       q    Type
REMARK                         _______ _______ _______ _____ _____    ______ ____
ROOT
ATOM      1  C   UNL     1       1.404  -0.723   0.270  0.00  0.00    -0.021 A 
ATOM      2  C   UNL     1       0.329   0.155   0.061  0.00  0.00    +0.031 A 
ATOM      3  C   UNL     1       0.476   1.495   0.337  0.00  0.00    +0.085 A 
ATOM      4  C   UNL     1       1.687   1.981   0.822  0.00  0.00    +0.157 A 
ATOM      5  C   UNL     1       2.757   1.115   1.031  0.00  0.00    +0.085 A 
ATOM      6  C   UNL     1       2.623  -0.228   0.759  0.00  0.00    +0.031 A 
ATOM      7 CL   UNL     1       4.263   1.730   1.636  0.00  0.00    -0.080 Cl
ATOM      8 CL   UNL     1      -0.851   2.584   0.073  0.00  0.00    -0.080 Cl
ENDROOT
BRANCH   1  14
ATOM      9  C   UNL     1       5.378  -2.119  -2.708  0.00  0.00    +0.143 C 
ATOM     10  N   UNL     1       4.272  -2.814  -2.045  0.00  0.00    -0.225 N 
ATOM     11  C   UNL     1       3.342  -2.093  -1.385  0.00  0.00    +0.259 C 
ATOM     12  O   UNL     1       3.411  -0.880  -1.336  0.00  0.00    -0.269 OA
ATOM     13  C   UNL     1       2.241  -2.818  -0.720  0.00  0.00    +0.100 C 
ATOM     14  C   UNL     1       1.255  -2.149  -0.021  0.00  0.00    +0.026 C 
ATOM     15  C   UNL     1       2.237  -4.290  -0.841  0.00  0.00    +0.257 C 
ATOM     16  O   UNL     1       1.361  -4.957  -0.325  0.00  0.00    -0.270 OA
ATOM     17  N   UNL     1       3.232  -4.874  -1.539  0.00  0.00    -0.236 N 
ATOM     18  C   UNL     1       4.204  -4.151  -2.113  0.00  0.00    +0.315 C 
ATOM     19  O   UNL     1       5.071  -4.740  -2.728  0.00  0.00    -0.252 OA
ATOM     20  H   UNL     1       3.245  -5.840  -1.629  0.00  0.00    +0.159 HD
ENDBRANCH   1  14
BRANCH   4  21
ATOM     21  O   UNL     1       1.825   3.303   1.092  0.00  0.00    -0.484 OA
BRANCH  21  22
ATOM     22  C   UNL     1       1.495   3.733   2.414  0.00  0.00    +0.264 C 
BRANCH  22  23
ATOM     23  C   UNL     1       1.709   5.221   2.526  0.00  0.00    -0.010 A 
ATOM     24  C   UNL     1       2.938   5.711   2.928  0.00  0.00    +0.008 A 
ATOM     25  C   UNL     1       3.143   7.072   3.028  0.00  0.00    +0.015 A 
ATOM     26  C   UNL     1       2.101   7.954   2.734  0.00  0.00    +0.063 A 
ATOM     27  C   UNL     1       0.861   7.452   2.334  0.00  0.00    +0.015 A 
ATOM     28  C   UNL     1       0.672   6.090   2.233  0.00  0.00    +0.008 A 
BRANCH  26  29
ATOM     29  C   UNL     1       2.311   9.413   2.844  0.00  0.00    +0.387 C 
ATOM     30  O   UNL     1       1.403  10.178   2.586  0.00  0.00    -0.241 OA
ATOM     31  O   UNL     1       3.509   9.894   3.229  0.00  0.00    -0.241 OA
ENDBRANCH  26  29
ENDBRANCH  22  23
ENDBRANCH  21  22
ENDBRANCH   4  21
TORSDOF 5
