REMARK  Name = ZINC67382930
REMARK  8 active torsions:
REMARK  status: ('A' for Active; 'I' for Inactive)
REMARK    1  A    between atoms: C_1  and  C_2
REMARK    2  A    between atoms: C_5  and  N_9
REMARK    3  A    between atoms: C_6  and  C_8
REMARK    4  A    between atoms: N_12  and  C_15
REMARK    5  A    between atoms: C_15  and  N_16
REMARK    6  A    between atoms: C_20  and  C_23
REMARK    7  A    between atoms: C_23  and  N_24
REMARK    8  A    between atoms: C_25  and  C_27
REMARK                            x       y       z     vdW  Elec       q    Type
REMARK                         _______ _______ _______ _____ _____    ______ ____
ROOT
ATOM      1  N   UNL     1       0.057  -4.171  -0.021  0.00  0.00    -0.188 N 
ATOM      2  C   UNL     1      -0.825  -4.978  -0.650  0.00  0.00    +0.199 A 
ATOM      3  S   UNL     1      -2.173  -4.491  -1.586  0.00  0.00    -0.010 S 
ATOM      4  N   UNL     1      -0.432  -6.245  -0.394  0.00  0.00    -0.238 N 
ATOM      5  N   UNL     1       0.713  -6.176   0.409  0.00  0.00    -0.046 NA
ATOM      6  N   UNL     1       0.996  -4.991   0.617  0.00  0.00    -0.040 NA
ENDROOT
BRANCH   1  11
ATOM      7  C   UNL     1      -0.018   1.503   0.010  0.00  0.00    +0.044 C 
ATOM      8  C   UNL     1       0.002  -0.004   0.002  0.00  0.00    -0.050 A 
ATOM      9  C   UNL     1       0.006  -0.688  -1.200  0.00  0.00    +0.005 A 
ATOM     10  C   UNL     1       0.024  -2.068  -1.211  0.00  0.00    +0.028 A 
ATOM     11  C   UNL     1       0.039  -2.771  -0.013  0.00  0.00    +0.073 A 
ATOM     12  C   UNL     1       0.036  -2.082   1.192  0.00  0.00    -0.025 A 
ATOM     13  C   UNL     1       0.023  -0.700   1.196  0.00  0.00    +0.008 A 
ATOM     14  C   UNL     1       0.052  -2.840   2.494  0.00  0.00    +0.046 C 
ENDBRANCH   1  11
BRANCH   4  15
ATOM     15  C   UNL     1      -1.086  -7.467  -0.869  0.00  0.00    +0.073 C 
BRANCH  15  16
ATOM     16  N   UNL     1      -0.291  -8.057  -1.954  0.00  0.00    +0.393 N 
ATOM     17  C   UNL     1      -0.279  -7.143  -3.102  0.00  0.00    -0.076 C 
ATOM     18  C   UNL     1       0.614  -7.716  -4.205  0.00  0.00    -0.018 C 
ATOM     19  C   UNL     1       0.066  -9.078  -4.641  0.00  0.00    +0.001 C 
ATOM     20  C   UNL     1      -0.013 -10.000  -3.421  0.00  0.00    -0.010 C 
ATOM     21  C   UNL     1      -0.882  -9.342  -2.347  0.00  0.00    -0.071 C 
ATOM     22  H   UNL     1       0.654  -8.206  -1.634  0.00  0.00    -0.079 HD
BRANCH  20  23
ATOM     23  C   UNL     1      -0.630 -11.338  -3.832  0.00  0.00    +0.105 C 
BRANCH  23  24
ATOM     24  N   UNL     1       0.261 -12.019  -4.774  0.00  0.00    -0.315 N 
ATOM     25  C   UNL     1      -0.081 -13.223  -5.274  0.00  0.00    +0.210 C 
ATOM     26  O   UNL     1      -1.125 -13.743  -4.944  0.00  0.00    -0.276 OA
ATOM     27  C   UNL     1       0.836 -13.923  -6.244  0.00  0.00    +0.109 C 
ATOM     28  H   UNL     1       1.096 -11.603  -5.039  0.00  0.00    +0.149 HD
ENDBRANCH  23  24
ENDBRANCH  20  23
ENDBRANCH  15  16
ENDBRANCH   4  15
TORSDOF 5
