REMARK  Name = ZINC05303363
REMARK  6 active torsions:
REMARK  status: ('A' for Active; 'I' for Inactive)
REMARK    1  A    between atoms: C_1  and  C_2
REMARK    2  A    between atoms: C_2  and  C_4
REMARK    3  A    between atoms: C_2  and  O_11
REMARK    4  A    between atoms: N_9  and  C_10
REMARK    5  A    between atoms: O_11  and  C_12
REMARK    6  A    between atoms: C_12  and  C_14
REMARK                            x       y       z     vdW  Elec       q    Type
REMARK                         _______ _______ _______ _____ _____    ______ ____
ROOT
ATOM      1  C   UNL     1       0.936  -6.238  -0.114  0.00  0.00    +0.347 C 
ATOM      2  O   UNL     1       1.815  -7.057   0.076  0.00  0.00    -0.244 OA
ENDROOT
BRANCH   1   3
ATOM      3  C   UNL     1       1.236  -4.808  -0.027  0.00  0.00    +0.097 A 
ATOM      4  C   UNL     1       2.445  -4.187   0.257  0.00  0.00    +0.027 A 
ATOM      5  C   UNL     1       2.510  -2.817   0.293  0.00  0.00    -0.031 A 
ATOM      6  C   UNL     1       1.324  -2.132   0.006  0.00  0.00    +0.024 A 
ATOM      7  S   UNL     1       0.141  -3.414  -0.259  0.00  0.00    -0.082 S 
ATOM      8  C   UNL     1       1.217  -0.677  -0.013  0.00  0.00    -0.008 A 
ATOM      9  C   UNL     1       0.002  -0.004   0.002  0.00  0.00    +0.009 A 
ATOM     10  C   UNL     1      -0.017   1.377   0.010  0.00  0.00    +0.001 A 
ATOM     11  C   UNL     1       1.173   2.084   0.002  0.00  0.00    +0.000 A 
ATOM     12  C   UNL     1       2.386   1.419  -0.028  0.00  0.00    +0.004 A 
ATOM     13  C   UNL     1       2.424   0.041  -0.051  0.00  0.00    -0.039 A 
ATOM     14  C   UNL     1       3.735  -0.686  -0.135  0.00  0.00    +0.040 C 
ATOM     15  C   UNL     1       3.748  -1.998   0.639  0.00  0.00    +0.041 C 
ENDBRANCH   1   3
BRANCH   1  16
ATOM     16  O   UNL     1      -0.316  -6.647  -0.406  0.00  0.00    -0.448 OA
BRANCH  16  18
ATOM     17  C   UNL     1      -0.939  -8.578   0.907  0.00  0.00    +0.062 C 
ATOM     18  C   UNL     1      -0.538  -8.057  -0.474  0.00  0.00    +0.259 C 
BRANCH  18  19
ATOM     19  C   UNL     1      -1.642  -8.345  -1.459  0.00  0.00    +0.261 C 
ATOM     20  O   UNL     1      -2.185  -7.432  -2.044  0.00  0.00    -0.271 OA
ATOM     21  N   UNL     1      -2.026  -9.616  -1.689  0.00  0.00    -0.237 N 
ATOM     22  C   UNL     1      -3.013  -9.873  -2.570  0.00  0.00    +0.306 C 
ATOM     23  O   UNL     1      -3.557  -8.959  -3.156  0.00  0.00    -0.252 OA
ATOM     24  N   UNL     1      -3.396 -11.145  -2.800  0.00  0.00    -0.302 N 
ATOM     25  C   UNL     1      -4.469 -11.424  -3.757  0.00  0.00    +0.129 C 
ATOM     26  H   UNL     1      -1.591 -10.346  -1.221  0.00  0.00    +0.159 HD
ATOM     27  H   UNL     1      -2.962 -11.874  -2.332  0.00  0.00    +0.150 HD
ENDBRANCH  18  19
ENDBRANCH  16  18
ENDBRANCH   1  16
TORSDOF 4
