REMARK  Name = ZINC13747699
REMARK  7 active torsions:
REMARK  status: ('A' for Active; 'I' for Inactive)
REMARK    1  A    between atoms: C_1  and  O_2
REMARK    2  A    between atoms: O_2  and  C_3
REMARK    3  A    between atoms: C_5  and  C_15
REMARK    4  A    between atoms: C_8  and  O_9
REMARK    5  A    between atoms: O_9  and  C_10
REMARK    6  A    between atoms: C_10  and  C_11
REMARK    7  A    between atoms: N_16  and  O_17
REMARK                            x       y       z     vdW  Elec       q    Type
REMARK                         _______ _______ _______ _____ _____    ______ ____
ROOT
ATOM      1  C   UNL     1      -1.201  -0.638   0.010  0.00  0.00    +0.163 A 
ATOM      2  C   UNL     1      -2.370   0.099   0.019  0.00  0.00    +0.059 A 
ATOM      3  C   UNL     1      -3.605  -0.555   0.027  0.00  0.00    +0.001 A 
ATOM      4  C   UNL     1      -3.652  -1.951   0.026  0.00  0.00    +0.027 A 
ATOM      5  C   UNL     1      -2.481  -2.680   0.016  0.00  0.00    +0.059 A 
ATOM      6  C   UNL     1      -1.255  -2.030   0.003  0.00  0.00    +0.176 A 
ATOM      7  I   UNL     1      -2.554  -4.774   0.015  0.00  0.00    -0.040 I 
ENDROOT
BRANCH   1   9
ATOM      8  C   UNL     1      -0.017   1.425   0.010  0.00  0.00    +0.277 C 
ATOM      9  O   UNL     1       0.002  -0.004   0.002  0.00  0.00    -0.491 OA
ENDBRANCH   1   9
BRANCH   3  10
ATOM     10  C   UNL     1      -4.856   0.227   0.038  0.00  0.00    +0.160 C 
ATOM     11  N   UNL     1      -5.998  -0.380   0.045  0.00  0.00    -0.095 NA
BRANCH  11  12
ATOM     12  O   UNL     1      -7.199   0.370   0.055  0.00  0.00    -0.409 OA
ATOM     13  H   UNL     1      -8.001  -0.170   0.060  0.00  0.00    +0.328 HD
ENDBRANCH  11  12
ENDBRANCH   3  10
BRANCH   6  14
ATOM     14  O   UNL     1      -0.104  -2.753  -0.011  0.00  0.00    -0.476 OA
BRANCH  14  15
ATOM     15  C   UNL     1       0.457  -3.105   1.255  0.00  0.00    +0.354 C 
BRANCH  15  16
ATOM     16  C   UNL     1       1.720  -3.899   1.042  0.00  0.00    +0.393 C 
ATOM     17  O   UNL     1       2.104  -4.141  -0.090  0.00  0.00    -0.243 OA
ATOM     18  O   UNL     1       2.357  -4.299   2.001  0.00  0.00    -0.243 OA
ENDBRANCH  15  16
ENDBRANCH  14  15
ENDBRANCH   6  14
TORSDOF 6
