REMARK  Name = ZINC40309078
REMARK  3 active torsions:
REMARK  status: ('A' for Active; 'I' for Inactive)
REMARK    1  A    between atoms: C_6  and  C_7
REMARK    2  A    between atoms: N_20  and  C_21
REMARK    3  A    between atoms: C_24  and  C_27
REMARK                            x       y       z     vdW  Elec       q    Type
REMARK                         _______ _______ _______ _____ _____    ______ ____
ROOT
ATOM      1  C   UNL     1      -1.501  -0.699   0.105  0.00  0.00    +0.156 C 
ATOM      2  C   UNL     1      -1.907  -1.082   1.505  0.00  0.00    +0.064 A 
ATOM      3  C   UNL     1      -2.077  -2.354   1.925  0.00  0.00    +0.066 A 
ATOM      4  N   UNL     1      -2.430  -2.317   3.214  0.00  0.00    -0.240 NA
ATOM      5  C   UNL     1      -2.489  -1.071   3.607  0.00  0.00    +0.197 A 
ATOM      6  N   UNL     1      -2.169  -0.270   2.565  0.00  0.00    -0.346 N 
ATOM      7  H   UNL     1      -2.134   0.700   2.571  0.00  0.00    +0.167 HD
ATOM      8  C   UNL     1      -1.893  -3.570   1.052  0.00  0.00    +0.076 C 
ATOM      9  C   UNL     1      -1.075  -3.174  -0.184  0.00  0.00    +0.116 C 
ATOM     10  N   UNL     1      -1.601  -1.911  -0.728  0.00  0.00    -0.272 N 
ATOM     11  C   UNL     1      -2.160  -1.864  -1.954  0.00  0.00    +0.307 C 
ATOM     12  O   UNL     1      -2.356  -2.892  -2.572  0.00  0.00    -0.252 OA
ATOM     13  N   UNL     1      -2.501  -0.677  -2.493  0.00  0.00    -0.269 N 
ATOM     14  H   UNL     1      -2.224   0.148  -2.065  0.00  0.00    +0.156 HD
ENDROOT
BRANCH   1  20
ATOM     15  C   UNL     1       0.201   1.070  -0.388  0.00  0.00    +0.007 A 
ATOM     16  C   UNL     1       1.502   1.536  -0.389  0.00  0.00    +0.015 A 
ATOM     17  C   UNL     1       2.522   0.740   0.101  0.00  0.00    +0.018 A 
ATOM     18  C   UNL     1       2.239  -0.522   0.592  0.00  0.00    +0.015 A 
ATOM     19  C   UNL     1       0.937  -0.987   0.593  0.00  0.00    +0.007 A 
ATOM     20  C   UNL     1      -0.082  -0.191   0.103  0.00  0.00    -0.021 A 
ATOM     21 BR   UNL     1       4.303   1.376   0.098  0.00  0.00    -0.050 Br
ENDBRANCH   1  20
BRANCH  13  22
ATOM     22  C   UNL     1      -3.253  -0.635  -3.665  0.00  0.00    +0.035 A 
ATOM     23  C   UNL     1      -3.267  -1.733  -4.521  0.00  0.00    +0.024 A 
ATOM     24  C   UNL     1      -4.006  -1.696  -5.675  0.00  0.00    +0.017 A 
ATOM     25  C   UNL     1      -4.746  -0.552  -5.993  0.00  0.00    +0.063 A 
ATOM     26  C   UNL     1      -4.730   0.550  -5.130  0.00  0.00    +0.017 A 
ATOM     27  C   UNL     1      -3.993   0.503  -3.975  0.00  0.00    +0.024 A 
BRANCH  25  28
ATOM     28  C   UNL     1      -5.540  -0.508  -7.232  0.00  0.00    +0.387 C 
ATOM     29  O   UNL     1      -5.553  -1.472  -7.985  0.00  0.00    -0.241 OA
ATOM     30  O   UNL     1      -6.187   0.493  -7.508  0.00  0.00    -0.241 OA
ENDBRANCH  25  28
ENDBRANCH  13  22
TORSDOF 3
