REMARK  Name = ZINC39661296
REMARK  5 active torsions:
REMARK  status: ('A' for Active; 'I' for Inactive)
REMARK    1  A    between atoms: C_3  and  C_15
REMARK    2  A    between atoms: C_4  and  O_7
REMARK    3  A    between atoms: O_7  and  C_8
REMARK    4  A    between atoms: C_19  and  C_28
REMARK    5  A    between atoms: N_30  and  C_31
REMARK                            x       y       z     vdW  Elec       q    Type
REMARK                         _______ _______ _______ _____ _____    ______ ____
ROOT
ATOM      1  C   UNL     1       3.625   2.159   0.214  0.00  0.00    +0.252 C 
ATOM      2  O   UNL     1       4.644   1.496   0.200  0.00  0.00    -0.270 OA
ATOM      3  N   UNL     1       3.694   3.501   0.107  0.00  0.00    -0.296 N 
ATOM      4  C   UNL     1       2.571   4.463   0.005  0.00  0.00    +0.121 C 
ATOM      5  C   UNL     1       3.009   5.668   0.868  0.00  0.00    +0.100 C 
ATOM      6  C   UNL     1       4.544   5.588   0.902  0.00  0.00    -0.004 C 
ATOM      7  C   UNL     1       4.909   4.349   0.072  0.00  0.00    +0.115 C 
ATOM      8  C   UNL     1       5.033   5.417   2.337  0.00  0.00    -0.010 C 
ATOM      9  C   UNL     1       6.564   5.397   2.352  0.00  0.00    -0.082 C 
ATOM     10  N   UNL     1       7.076   6.651   1.786  0.00  0.00    +0.379 N 
ATOM     11  C   UNL     1       6.679   6.764   0.377  0.00  0.00    -0.082 C 
ATOM     12  C   UNL     1       5.153   6.841   0.279  0.00  0.00    -0.010 C 
ATOM     13  H   UNL     1       6.699   7.431   2.303  0.00  0.00    -0.086 HD
ATOM     14  H   UNL     1       8.083   6.662   1.852  0.00  0.00    -0.086 HD
ENDROOT
BRANCH   1  17
ATOM     15  C   UNL     1      -0.018   1.345  -0.151  0.00  0.00    +0.021 A 
ATOM     16  C   UNL     1       1.188   2.005  -0.309  0.00  0.00    +0.020 A 
ATOM     17  C   UNL     1       2.314   1.496   0.348  0.00  0.00    +0.099 A 
ATOM     18  C   UNL     1       2.174   0.344   1.137  0.00  0.00    +0.233 A 
ATOM     19  N   UNL     1       0.997  -0.248   1.254  0.00  0.00    -0.220 NA
ATOM     20  C   UNL     1      -0.077   0.215   0.643  0.00  0.00    +0.114 A 
BRANCH  18  21
ATOM     21  O   UNL     1       3.251  -0.166   1.781  0.00  0.00    -0.437 OA
BRANCH  21  22
ATOM     22  C   UNL     1       3.100  -1.345   2.441  0.00  0.00    +0.130 A 
ATOM     23  C   UNL     1       3.078  -2.538   1.733  0.00  0.00    +0.048 A 
ATOM     24  C   UNL     1       2.926  -3.735   2.405  0.00  0.00    +0.023 A 
ATOM     25  C   UNL     1       2.795  -3.745   3.783  0.00  0.00    +0.041 A 
ATOM     26  C   UNL     1       2.816  -2.556   4.490  0.00  0.00    +0.023 A 
ATOM     27  C   UNL     1       2.974  -1.357   3.822  0.00  0.00    +0.048 A 
ATOM     28 CL   UNL     1       2.602  -5.251   4.625  0.00  0.00    -0.084 Cl
ENDBRANCH  21  22
ENDBRANCH  18  21
ENDBRANCH   1  17
BRANCH   5  29
ATOM     29  C   UNL     1       2.562   6.959   0.232  0.00  0.00    +0.219 C 
ATOM     30  O   UNL     1       2.419   7.024  -0.971  0.00  0.00    -0.275 OA
ATOM     31  N   UNL     1       2.321   8.040   0.999  0.00  0.00    -0.304 N 
ATOM     32  H   UNL     1       2.435   7.987   1.961  0.00  0.00    +0.149 HD
BRANCH  31  33
ATOM     33  C   UNL     1       1.887   9.295   0.380  0.00  0.00    +0.151 C 
ATOM     34  C   UNL     1       2.319  10.463   1.269  0.00  0.00    +0.042 C 
ATOM     35  C   UNL     1       1.397  11.664   0.949  0.00  0.00    +0.079 C 
ATOM     36  S   UNL     1      -0.153  10.821   0.448  0.00  0.00    -0.086 S 
ATOM     37  C   UNL     1       0.389   9.256   0.189  0.00  0.00    +0.209 C 
ATOM     38  O   UNL     1      -0.286   8.288  -0.096  0.00  0.00    -0.283 OA
ENDBRANCH  31  33
ENDBRANCH   5  29
TORSDOF 5
