REMARK  Name = ZINC01197271
REMARK  8 active torsions:
REMARK  status: ('A' for Active; 'I' for Inactive)
REMARK    1  A    between atoms: C_1  and  O_2
REMARK    2  A    between atoms: O_2  and  C_3
REMARK    3  A    between atoms: C_6  and  C_9
REMARK    4  A    between atoms: C_9  and  N_10
REMARK    5  A    between atoms: C_14  and  C_15
REMARK    6  A    between atoms: C_17  and  O_23
REMARK    7  A    between atoms: C_18  and  O_22
REMARK    8  A    between atoms: O_23  and  C_24
REMARK                            x       y       z     vdW  Elec       q    Type
REMARK                         _______ _______ _______ _____ _____    ______ ____
ROOT
ATOM      1  N   UNL     1       7.470   4.739   2.391  0.00  0.00    -0.217 N 
ATOM      2  C   UNL     1       6.955   4.398   1.192  0.00  0.00    +0.259 C 
ATOM      3  O   UNL     1       7.536   4.675   0.160  0.00  0.00    -0.269 OA
ATOM      4  C   UNL     1       5.663   3.685   1.166  0.00  0.00    +0.100 C 
ATOM      5  C   UNL     1       5.070   3.308  -0.024  0.00  0.00    +0.026 C 
ATOM      6  C   UNL     1       5.035   3.386   2.468  0.00  0.00    +0.257 C 
ATOM      7  O   UNL     1       3.972   2.798   2.529  0.00  0.00    -0.270 OA
ATOM      8  N   UNL     1       5.672   3.785   3.588  0.00  0.00    -0.236 N 
ATOM      9  C   UNL     1       6.843   4.434   3.535  0.00  0.00    +0.316 C 
ATOM     10  O   UNL     1       7.365   4.765   4.582  0.00  0.00    -0.252 OA
ATOM     11  H   UNL     1       5.273   3.597   4.452  0.00  0.00    +0.159 HD
ENDROOT
BRANCH   5  12
ATOM     12  C   UNL     1       3.698   2.800  -0.030  0.00  0.00    -0.019 A 
ATOM     13  C   UNL     1       3.378   1.646  -0.761  0.00  0.00    +0.057 A 
ATOM     14  C   UNL     1       2.083   1.172  -0.762  0.00  0.00    +0.163 A 
ATOM     15  C   UNL     1       1.094   1.839  -0.036  0.00  0.00    +0.173 A 
ATOM     16  C   UNL     1       1.408   2.985   0.685  0.00  0.00    +0.063 A 
ATOM     17  C   UNL     1       2.699   3.464   0.697  0.00  0.00    +0.027 A 
ATOM     18 BR   UNL     1       0.060   3.885   1.659  0.00  0.00    -0.046 Br
BRANCH  15  19
ATOM     19  O   UNL     1      -0.179   1.369  -0.039  0.00  0.00    -0.503 OA
ATOM     20  H   UNL     1      -0.366   0.734   0.667  0.00  0.00    +0.292 HD
ENDBRANCH  15  19
BRANCH  14  21
ATOM     21  O   UNL     1       1.768   0.054  -1.470  0.00  0.00    -0.491 OA
ATOM     22  C   UNL     1       2.829  -0.577  -2.190  0.00  0.00    +0.277 C 
ENDBRANCH  14  21
ENDBRANCH   5  12
BRANCH   1  23
ATOM     23  C   UNL     1       8.749   5.452   2.443  0.00  0.00    +0.153 C 
BRANCH  23  27
ATOM     24  C   UNL     1      11.950   2.627   2.632  0.00  0.00    +0.120 A 
ATOM     25  C   UNL     1      11.487   3.072   1.402  0.00  0.00    +0.046 A 
ATOM     26  C   UNL     1      10.452   3.985   1.344  0.00  0.00    +0.009 A 
ATOM     27  C   UNL     1       9.878   4.456   2.510  0.00  0.00    -0.029 A 
ATOM     28  C   UNL     1      10.341   4.019   3.737  0.00  0.00    +0.009 A 
ATOM     29  C   UNL     1      11.372   3.101   3.800  0.00  0.00    +0.046 A 
BRANCH  24  31
ATOM     30  C   UNL     1      13.393   1.316   3.992  0.00  0.00    +0.277 C 
ATOM     31  O   UNL     1      12.968   1.729   2.692  0.00  0.00    -0.495 OA
ENDBRANCH  24  31
ENDBRANCH  23  27
ENDBRANCH   1  23
TORSDOF 6
