REMARK  Name = ZINC12911646
REMARK  9 active torsions:
REMARK  status: ('A' for Active; 'I' for Inactive)
REMARK    1  A    between atoms: C_1  and  C_2
REMARK    2  A    between atoms: C_2  and  C_3
REMARK    3  A    between atoms: C_3  and  C_4
REMARK    4  A    between atoms: C_7  and  C_8
REMARK    5  A    between atoms: C_11  and  C_14
REMARK    6  A    between atoms: N_16  and  C_17
REMARK    7  A    between atoms: C_21  and  C_22
REMARK    8  A    between atoms: C_25  and  C_28
REMARK    9  A    between atoms: N_30  and  C_31
REMARK                            x       y       z     vdW  Elec       q    Type
REMARK                         _______ _______ _______ _____ _____    ______ ____
ROOT
ATOM      1  C   UNL     1      -0.096   1.518   1.034  0.00  0.00    -0.002 C 
ATOM      2  C   UNL     1       0.100   0.245   0.207  0.00  0.00    +0.043 C 
ATOM      3  C   UNL     1       1.249  -0.549   0.794  0.00  0.00    +0.000 C 
ATOM      4  C   UNL     1       1.136  -1.866   1.067  0.00  0.00    +0.015 C 
ATOM      5  C   UNL     1       2.504   0.196   1.054  0.00  0.00    +0.185 C 
ATOM      6  O   UNL     1       3.605  -0.286   0.851  0.00  0.00    -0.287 OA
ATOM      7  C   UNL     1       2.321   1.570   1.579  0.00  0.00    +0.000 C 
ATOM      8  C   UNL     1       3.132   2.081   2.529  0.00  0.00    +0.015 C 
ATOM      9  C   UNL     1       1.176   2.371   0.994  0.00  0.00    +0.043 C 
ENDROOT
BRANCH   4  10
ATOM     10  C   UNL     1      -0.059  -2.607   0.632  0.00  0.00    -0.025 A 
ATOM     11  C   UNL     1      -0.627  -3.573   1.471  0.00  0.00    +0.008 A 
ATOM     12  C   UNL     1      -1.748  -4.262   1.065  0.00  0.00    +0.013 A 
ATOM     13  C   UNL     1      -2.311  -4.005  -0.187  0.00  0.00    +0.037 A 
ATOM     14  C   UNL     1      -1.742  -3.045  -1.027  0.00  0.00    +0.013 A 
ATOM     15  C   UNL     1      -0.624  -2.351  -0.622  0.00  0.00    +0.008 A 
BRANCH  13  16
ATOM     16  C   UNL     1      -3.511  -4.750  -0.624  0.00  0.00    +0.244 C 
ATOM     17  O   UNL     1      -4.002  -4.527  -1.714  0.00  0.00    -0.270 OA
ATOM     18  N   UNL     1      -4.061  -5.676   0.185  0.00  0.00    -0.314 N 
ATOM     19  C   UNL     1      -5.250  -6.415  -0.247  0.00  0.00    +0.128 C 
ATOM     20  H   UNL     1      -3.670  -5.854   1.055  0.00  0.00    +0.149 HD
ENDBRANCH  13  16
ENDBRANCH   4  10
BRANCH   8  21
ATOM     21  C   UNL     1       4.117   1.216   3.199  0.00  0.00    -0.025 A 
ATOM     22  C   UNL     1       3.809  -0.123   3.461  0.00  0.00    +0.008 A 
ATOM     23  C   UNL     1       4.733  -0.932   4.082  0.00  0.00    +0.013 A 
ATOM     24  C   UNL     1       5.973  -0.414   4.462  0.00  0.00    +0.037 A 
ATOM     25  C   UNL     1       6.280   0.925   4.206  0.00  0.00    +0.013 A 
ATOM     26  C   UNL     1       5.360   1.735   3.579  0.00  0.00    +0.008 A 
BRANCH  24  27
ATOM     27  C   UNL     1       6.963  -1.282   5.135  0.00  0.00    +0.244 C 
ATOM     28  O   UNL     1       8.042  -0.832   5.465  0.00  0.00    -0.270 OA
ATOM     29  N   UNL     1       6.667  -2.574   5.382  0.00  0.00    -0.314 N 
ATOM     30  C   UNL     1       7.648  -3.435   6.049  0.00  0.00    +0.128 C 
ATOM     31  H   UNL     1       5.806  -2.934   5.119  0.00  0.00    +0.149 HD
ENDBRANCH  24  27
ENDBRANCH   8  21
BRANCH   1  32
ATOM     32  C   UNL     1      -1.264   2.322   0.459  0.00  0.00    +0.004 C 
BRANCH  32  34
ATOM     33  C   UNL     1      -2.710   4.334   0.781  0.00  0.00    +0.004 C 
ATOM     34  C   UNL     1      -1.542   3.530   1.356  0.00  0.00    -0.003 C 
ENDBRANCH  32  34
ENDBRANCH   1  32
TORSDOF 6
