REMARK  Name = ZINC40476429
REMARK  8 active torsions:
REMARK  status: ('A' for Active; 'I' for Inactive)
REMARK    1  A    between atoms: C_1  and  C_2
REMARK    2  A    between atoms: C_2  and  C_3
REMARK    3  A    between atoms: C_2  and  C_4
REMARK    4  A    between atoms: C_4  and  S_5
REMARK    5  A    between atoms: S_5  and  C_6
REMARK    6  A    between atoms: C_17  and  C_19
REMARK    7  A    between atoms: C_28  and  C_30
REMARK    8  A    between atoms: C_28  and  C_31
REMARK                            x       y       z     vdW  Elec       q    Type
REMARK                         _______ _______ _______ _____ _____    ______ ____
ROOT
ATOM      1  C   UNL     1       3.138  -0.628  -2.696  0.00  0.00    +0.171 A 
ATOM      2  N   UNL     1       4.457  -0.427  -2.969  0.00  0.00    -0.302 N 
ATOM      3  H   UNL     1       5.013   0.059  -2.340  0.00  0.00    +0.171 HD
ATOM      4  C   UNL     1       4.992  -0.904  -4.113  0.00  0.00    +0.258 A 
ATOM      5  O   UNL     1       6.173  -0.727  -4.367  0.00  0.00    -0.267 OA
ATOM      6  C   UNL     1       4.169  -1.605  -5.001  0.00  0.00    +0.069 A 
ATOM      7  C   UNL     1       2.836  -1.785  -4.674  0.00  0.00    +0.135 A 
ATOM      8  N   UNL     1       2.359  -1.292  -3.526  0.00  0.00    -0.208 NA
ATOM      9  N   UNL     1       2.009  -2.481  -5.534  0.00  0.00    -0.302 N 
ATOM     10  C   UNL     1       2.534  -3.313  -6.485  0.00  0.00    +0.017 C 
ATOM     11  C   UNL     1       3.822  -3.201  -6.872  0.00  0.00    +0.024 C 
ATOM     12  C   UNL     1       4.725  -2.146  -6.284  0.00  0.00    +0.092 C 
ATOM     13  C   UNL     1       4.366  -4.066  -7.837  0.00  0.00    +0.162 C 
ATOM     14  O   UNL     1       5.527  -3.933  -8.170  0.00  0.00    -0.292 OA
ATOM     15  C   UNL     1       3.539  -5.154  -8.467  0.00  0.00    +0.086 C 
ATOM     16  C   UNL     1       2.452  -5.589  -7.479  0.00  0.00    -0.023 C 
ATOM     17  C   UNL     1       1.629  -4.358  -7.092  0.00  0.00    +0.058 C 
ATOM     18  C   UNL     1       1.544  -6.628  -8.139  0.00  0.00    +0.011 C 
ATOM     19  C   UNL     1       3.102  -6.187  -6.230  0.00  0.00    +0.011 C 
ATOM     20  H   UNL     1       1.047  -2.378  -5.464  0.00  0.00    +0.153 HD
ENDROOT
BRANCH  12  21
ATOM     21  C   UNL     1       4.874  -1.018  -7.272  0.00  0.00    -0.035 A 
ATOM     22  C   UNL     1       3.766  -0.287  -7.659  0.00  0.00    +0.004 A 
ATOM     23  C   UNL     1       3.902   0.748  -8.565  0.00  0.00    +0.000 A 
ATOM     24  C   UNL     1       5.147   1.052  -9.084  0.00  0.00    +0.000 A 
ATOM     25  C   UNL     1       6.255   0.321  -8.697  0.00  0.00    +0.000 A 
ATOM     26  C   UNL     1       6.119  -0.711  -7.788  0.00  0.00    +0.004 A 
ENDBRANCH  12  21
BRANCH   1  27
ATOM     27  S   UNL     1       2.460   0.006  -1.198  0.00  0.00    -0.088 S 
BRANCH  27  28
ATOM     28  C   UNL     1       0.718  -0.497  -1.257  0.00  0.00    +0.080 C 
BRANCH  28  30
ATOM     29  C   UNL     1      -0.019   1.526   0.010  0.00  0.00    +0.008 C 
ATOM     30  C   UNL     1       0.002  -0.004   0.002  0.00  0.00    -0.007 C 
ATOM     31  C   UNL     1      -1.433  -0.534   0.013  0.00  0.00    +0.008 C 
ENDBRANCH  28  30
ENDBRANCH  27  28
ENDBRANCH   1  27
TORSDOF 4
