REMARK  Name = ZINC22304701
REMARK  9 active torsions:
REMARK  status: ('A' for Active; 'I' for Inactive)
REMARK    1  A    between atoms: C_1  and  C_2
REMARK    2  A    between atoms: N_5  and  C_11
REMARK    3  A    between atoms: C_7  and  C_10
REMARK    4  A    between atoms: C_11  and  C_12
REMARK    5  A    between atoms: C_18  and  C_20
REMARK    6  A    between atoms: C_23  and  S_26
REMARK    7  A    between atoms: S_26  and  N_29
REMARK    8  A    between atoms: N_29  and  C_30
REMARK    9  A    between atoms: C_30  and  C_31
REMARK                            x       y       z     vdW  Elec       q    Type
REMARK                         _______ _______ _______ _____ _____    ______ ____
ROOT
ATOM      1  C   UNL     1       1.289  -3.985  -2.484  0.00  0.00    +0.064 A 
ATOM      2  C   UNL     1       0.276  -4.576  -3.163  0.00  0.00    +0.073 A 
ATOM      3  S   UNL     1       0.626  -6.299  -2.852  0.00  0.00    -0.060 S 
ATOM      4  C   UNL     1       2.002  -6.089  -1.905  0.00  0.00    +0.165 A 
ATOM      5  N   UNL     1       2.142  -4.781  -1.867  0.00  0.00    -0.228 NA
ATOM      6  N   UNL     1       2.799  -7.060  -1.314  0.00  0.00    -0.261 N 
ATOM      7  C   UNL     1       2.500  -8.365  -1.470  0.00  0.00    +0.250 C 
ATOM      8  O   UNL     1       1.532  -8.691  -2.130  0.00  0.00    -0.270 OA
ATOM      9  H   UNL     1       3.572  -6.800  -0.788  0.00  0.00    +0.157 HD
ENDROOT
BRANCH   7  10
ATOM     10  C   UNL     1       3.348  -9.399  -0.841  0.00  0.00    +0.037 A 
ATOM     11  C   UNL     1       4.457  -9.027  -0.079  0.00  0.00    +0.015 A 
ATOM     12  C   UNL     1       5.244  -9.997   0.506  0.00  0.00    +0.029 A 
ATOM     13  C   UNL     1       4.937 -11.336   0.339  0.00  0.00    +0.105 A 
ATOM     14  C   UNL     1       3.839 -11.711  -0.415  0.00  0.00    +0.029 A 
ATOM     15  C   UNL     1       3.040 -10.751  -1.001  0.00  0.00    +0.015 A 
BRANCH  13  16
ATOM     16  S   UNL     1       5.948 -12.568   1.090  0.00  0.00    +0.059 S 
ATOM     17  O   UNL     1       5.767 -13.758   0.334  0.00  0.00    -0.153 OA
ATOM     18  O   UNL     1       7.225 -11.979   1.290  0.00  0.00    -0.153 OA
BRANCH  16  19
ATOM     19  N   UNL     1       5.322 -12.864   2.595  0.00  0.00    -0.178 NA
ATOM     20  H   UNL     1       5.840 -12.648   3.386  0.00  0.00    +0.149 HD
BRANCH  19  21
ATOM     21  C   UNL     1       3.988 -13.454   2.730  0.00  0.00    +0.194 C 
BRANCH  21  22
ATOM     22  C   UNL     1       3.806 -13.945   4.106  0.00  0.00    -0.089 C 
ATOM     23  C   UNL     1       3.661 -14.337   5.203  0.00  0.00    +0.005 C 
ENDBRANCH  21  22
ENDBRANCH  19  21
ENDBRANCH  16  19
ENDBRANCH  13  16
ENDBRANCH   7  10
BRANCH   1  24
ATOM     24  C   UNL     1       1.439  -2.486  -2.440  0.00  0.00    +0.140 C 
BRANCH  24  28
ATOM     25  C   UNL     1      -0.019   1.526   0.010  0.00  0.00    +0.039 C 
ATOM     26  C   UNL     1       0.002  -0.004   0.002  0.00  0.00    +0.130 C 
ATOM     27  C   UNL     1       0.720  -0.499  -1.256  0.00  0.00    +0.116 C 
ATOM     28  N   UNL     1       0.805  -1.966  -1.221  0.00  0.00    -0.292 NA
ATOM     29  C   UNL     1       1.523  -2.417  -0.020  0.00  0.00    +0.116 C 
ATOM     30  C   UNL     1       0.797  -1.904   1.226  0.00  0.00    +0.130 C 
ATOM     31  O   UNL     1       0.695  -0.479   1.159  0.00  0.00    -0.371 OA
ATOM     32  C   UNL     1      -0.605  -2.513   1.288  0.00  0.00    +0.039 C 
ENDBRANCH  24  28
ENDBRANCH   1  24
TORSDOF 7
