REMARK  Name = ZINC27570748
REMARK  8 active torsions:
REMARK  status: ('A' for Active; 'I' for Inactive)
REMARK    1  A    between atoms: C_1  and  C_2
REMARK    2  A    between atoms: C_4  and  N_10
REMARK    3  A    between atoms: C_7  and  C_8
REMARK    4  A    between atoms: C_14  and  C_15
REMARK    5  A    between atoms: C_18  and  C_20
REMARK    6  A    between atoms: C_23  and  S_26
REMARK    7  A    between atoms: S_26  and  N_29
REMARK    8  A    between atoms: C_30  and  C_32
REMARK                            x       y       z     vdW  Elec       q    Type
REMARK                         _______ _______ _______ _____ _____    ______ ____
ROOT
ATOM      1  N   UNL     1      -2.308   2.249   2.649  0.00  0.00    -0.155 N 
ATOM      2  C   UNL     1      -1.195   2.300   3.409  0.00  0.00    +0.272 C 
ATOM      3  O   UNL     1      -1.120   2.640   4.577  0.00  0.00    -0.268 OA
ATOM      4  C   UNL     1      -0.093   1.862   2.543  0.00  0.00    +0.065 C 
ATOM      5  C   UNL     1       1.255   1.747   2.880  0.00  0.00    +0.061 C 
ATOM      6  C   UNL     1      -0.718   1.572   1.248  0.00  0.00    +0.069 C 
ATOM      7  N   UNL     1      -1.989   1.815   1.362  0.00  0.00    -0.176 NA
ATOM      8  C   UNL     1      -0.013   1.086   0.008  0.00  0.00    +0.068 C 
ENDROOT
BRANCH   1  12
ATOM      9  C   UNL     1      -5.740   5.678   3.457  0.00  0.00    +0.044 C 
ATOM     10  C   UNL     1      -5.284   4.241   3.489  0.00  0.00    -0.046 A 
ATOM     11  C   UNL     1      -4.013   3.911   3.062  0.00  0.00    +0.030 A 
ATOM     12  C   UNL     1      -3.595   2.587   3.086  0.00  0.00    +0.075 A 
ATOM     13  C   UNL     1      -4.455   1.599   3.550  0.00  0.00    +0.041 A 
ATOM     14  C   UNL     1      -5.724   1.937   3.981  0.00  0.00    +0.020 A 
ATOM     15  C   UNL     1      -6.138   3.256   3.950  0.00  0.00    -0.046 A 
ATOM     16  C   UNL     1      -7.522   3.621   4.420  0.00  0.00    +0.044 C 
ATOM     17 BR   UNL     1      -3.889  -0.204   3.594  0.00  0.00    -0.048 Br
ENDBRANCH   1  12
BRANCH   5  18
ATOM     18  C   UNL     1       1.684   2.069   4.174  0.00  0.00    +0.129 A 
ATOM     19  C   UNL     1       2.991   1.994   4.643  0.00  0.00    +0.050 A 
ATOM     20  C   UNL     1       2.965   2.405   5.973  0.00  0.00    +0.050 A 
ATOM     21  C   UNL     1       1.653   2.707   6.278  0.00  0.00    +0.136 A 
ATOM     22  O   UNL     1       0.899   2.499   5.186  0.00  0.00    -0.455 OA
BRANCH  21  23
ATOM     23  C   UNL     1       1.161   3.180   7.586  0.00  0.00    +0.017 A 
ATOM     24  C   UNL     1       2.050   3.351   8.651  0.00  0.00    +0.013 A 
ATOM     25  C   UNL     1       1.583   3.797   9.870  0.00  0.00    +0.029 A 
ATOM     26  C   UNL     1       0.236   4.065  10.042  0.00  0.00    +0.105 A 
ATOM     27  C   UNL     1      -0.651   3.894   8.994  0.00  0.00    +0.029 A 
ATOM     28  C   UNL     1      -0.198   3.453   7.768  0.00  0.00    +0.013 A 
BRANCH  26  29
ATOM     29  S   UNL     1      -0.352   4.628  11.605  0.00  0.00    +0.056 S 
ATOM     30  O   UNL     1       0.754   5.229  12.263  0.00  0.00    -0.153 OA
ATOM     31  O   UNL     1      -1.562   5.329  11.355  0.00  0.00    -0.153 OA
BRANCH  29  32
ATOM     32  N   UNL     1      -0.756   3.286  12.488  0.00  0.00    -0.204 NA
ATOM     33  H   UNL     1      -1.130   3.596  13.475  0.00  0.00    +0.144 HD
ATOM     34  H   UNL     1       0.132   2.650  12.615  0.00  0.00    +0.144 HD
ENDBRANCH  29  32
ENDBRANCH  26  29
ENDBRANCH  21  23
ENDBRANCH   5  18
TORSDOF 5
