REMARK  Name = ZINC65387581
REMARK  7 active torsions:
REMARK  status: ('A' for Active; 'I' for Inactive)
REMARK    1  A    between atoms: C_1  and  C_2
REMARK    2  A    between atoms: C_7  and  C_13
REMARK    3  A    between atoms: C_11  and  C_12
REMARK    4  A    between atoms: C_13  and  N_14
REMARK    5  A    between atoms: N_14  and  C_15
REMARK    6  A    between atoms: C_15  and  C_16
REMARK    7  A    between atoms: C_19  and  C_22
REMARK                            x       y       z     vdW  Elec       q    Type
REMARK                         _______ _______ _______ _____ _____    ______ ____
ROOT
ATOM      1  N   UNL     1       2.516  -4.324   1.542  0.00  0.00    -0.306 NA
ATOM      2  H   UNL     1       2.497  -4.133   0.551  0.00  0.00    +0.122 HD
ENDROOT
BRANCH   1   3
ATOM      3  C   UNL     1       1.332  -5.091   1.952  0.00  0.00    +0.128 C 
BRANCH   3  10
ATOM      4  C   UNL     1      -0.018   1.503   0.010  0.00  0.00    +0.044 C 
ATOM      5  C   UNL     1       0.002  -0.004   0.002  0.00  0.00    -0.045 A 
ATOM      6  C   UNL     1       0.005  -0.672  -1.235  0.00  0.00    +0.006 A 
ATOM      7  C   UNL     1       0.022  -2.017  -1.335  0.00  0.00    +0.027 A 
ATOM      8  C   UNL     1       0.040  -2.834  -0.114  0.00  0.00    +0.060 A 
ATOM      9  N   UNL     1       0.057  -4.120   0.090  0.00  0.00    -0.362 N 
ATOM     10  C   UNL     1       0.067  -4.335   1.542  0.00  0.00    +0.188 C 
ATOM     11  N   UNL     1       0.053  -3.002   2.159  0.00  0.00    -0.362 N 
ATOM     12  C   UNL     1       0.037  -2.127   1.195  0.00  0.00    +0.063 A 
ATOM     13  C   UNL     1       0.022  -0.657   1.181  0.00  0.00    -0.023 A 
ATOM     14  C   UNL     1       0.024   0.114   2.476  0.00  0.00    +0.046 C 
ATOM     15  H   UNL     1       0.055  -2.810   3.109  0.00  0.00    +0.162 HD
ATOM     16  H   UNL     1       0.062  -4.809  -0.593  0.00  0.00    +0.162 HD
ENDBRANCH   3  10
ENDBRANCH   1   3
BRANCH   1  17
ATOM     17  C   UNL     1       3.752  -5.021   1.920  0.00  0.00    +0.156 C 
BRANCH  17  18
ATOM     18  C   UNL     1       4.942  -4.206   1.484  0.00  0.00    +0.151 C 
ATOM     19  N   UNL     1       4.862  -3.076   0.881  0.00  0.00    -0.070 NA
ATOM     20  O   UNL     1       6.148  -2.555   0.602  0.00  0.00    -0.365 OA
ATOM     21  C   UNL     1       7.090  -3.513   1.112  0.00  0.00    +0.323 C 
ATOM     22  N   UNL     1       6.251  -4.577   1.687  0.00  0.00    -0.289 N 
ATOM     23  H   UNL     1       6.561  -5.386   2.123  0.00  0.00    +0.151 HD
BRANCH  21  24
ATOM     24  C   UNL     1       7.949  -4.052  -0.002  0.00  0.00    +0.017 A 
ATOM     25  C   UNL     1       7.531  -5.157  -0.721  0.00  0.00    +0.013 A 
ATOM     26  C   UNL     1       8.316  -5.655  -1.745  0.00  0.00    +0.050 A 
ATOM     27  C   UNL     1       9.523  -5.048  -2.052  0.00  0.00    +0.166 A 
ATOM     28  C   UNL     1       9.943  -3.936  -1.327  0.00  0.00    +0.167 A 
ATOM     29  C   UNL     1       9.149  -3.438  -0.307  0.00  0.00    +0.058 A 
ATOM     30  O   UNL     1      11.150  -3.527  -1.817  0.00  0.00    -0.453 OA
ATOM     31  C   UNL     1      11.655  -4.642  -2.575  0.00  0.00    +0.466 C 
ATOM     32  O   UNL     1      10.466  -5.336  -2.995  0.00  0.00    -0.453 OA
ENDBRANCH  21  24
ENDBRANCH  17  18
ENDBRANCH   1  17
TORSDOF 5
