REMARK  Name = ZINC67509043
REMARK  8 active torsions:
REMARK  status: ('A' for Active; 'I' for Inactive)
REMARK    1  A    between atoms: C_1  and  C_2
REMARK    2  A    between atoms: C_4  and  C_16
REMARK    3  A    between atoms: C_5  and  C_15
REMARK    4  A    between atoms: N_6  and  C_7
REMARK    5  A    between atoms: C_17  and  C_18
REMARK    6  A    between atoms: C_17  and  C_20
REMARK    7  A    between atoms: N_22  and  C_23
REMARK    8  A    between atoms: C_23  and  C_24
REMARK                            x       y       z     vdW  Elec       q    Type
REMARK                         _______ _______ _______ _____ _____    ______ ____
ROOT
ATOM      1  C   UNL     1       2.106   1.404  -1.556  0.00  0.00    +0.064 C 
ATOM      2  C   UNL     1       1.549   0.067  -1.140  0.00  0.00    +0.022 A 
ATOM      3  C   UNL     1       1.205  -0.927  -1.975  0.00  0.00    +0.031 A 
ATOM      4  C   UNL     1       0.716  -2.028  -1.133  0.00  0.00    -0.003 A 
ATOM      5  C   UNL     1       0.815  -1.578   0.174  0.00  0.00    +0.028 A 
ATOM      6  N   UNL     1       1.319  -0.328   0.149  0.00  0.00    -0.316 N 
ATOM      7  C   UNL     1       0.432  -2.353   1.408  0.00  0.00    +0.064 C 
ENDROOT
BRANCH   6   8
ATOM      8  C   UNL     1       1.569   0.456   1.283  0.00  0.00    +0.066 A 
ATOM      9  C   UNL     1       0.576   1.286   1.787  0.00  0.00    +0.047 A 
ATOM     10  C   UNL     1       0.825   2.058   2.906  0.00  0.00    +0.043 A 
ATOM     11  C   UNL     1       2.063   2.005   3.524  0.00  0.00    +0.021 A 
ATOM     12  C   UNL     1       3.053   1.180   3.024  0.00  0.00    +0.023 A 
ATOM     13  C   UNL     1       2.808   0.401   1.909  0.00  0.00    +0.065 A 
ATOM     14 CL   UNL     1       4.050  -0.640   1.286  0.00  0.00    -0.081 Cl
ATOM     15 CL   UNL     1      -0.415   3.096   3.537  0.00  0.00    -0.083 Cl
ENDBRANCH   6   8
BRANCH   4  16
ATOM     16  C   UNL     1       0.240  -3.291  -1.568  0.00  0.00    +0.033 C 
ATOM     17  C   UNL     1      -0.649  -3.368  -2.622  0.00  0.00    +0.114 C 
BRANCH  17  18
ATOM     18  C   UNL     1      -1.306  -2.151  -3.119  0.00  0.00    +0.255 C 
ATOM     19  O   UNL     1      -1.166  -1.098  -2.526  0.00  0.00    -0.269 OA
ATOM     20  N   UNL     1      -2.065  -2.202  -4.232  0.00  0.00    -0.302 N 
ATOM     21  H   UNL     1      -2.177  -3.042  -4.705  0.00  0.00    +0.150 HD
BRANCH  20  22
ATOM     22  C   UNL     1      -2.720  -0.989  -4.728  0.00  0.00    +0.200 C 
BRANCH  22  23
ATOM     23  C   UNL     1      -3.501  -1.314  -5.975  0.00  0.00    +0.228 C 
ATOM     24  O   UNL     1      -3.509  -2.447  -6.407  0.00  0.00    -0.274 OA
ATOM     25  N   UNL     1      -4.190  -0.346  -6.610  0.00  0.00    -0.328 N 
ATOM     26  H   UNL     1      -4.183   0.561  -6.264  0.00  0.00    +0.145 HD
ATOM     27  H   UNL     1      -4.692  -0.555  -7.413  0.00  0.00    +0.145 HD
ENDBRANCH  22  23
ENDBRANCH  20  22
ENDBRANCH  17  18
BRANCH  17  28
ATOM     28  C   UNL     1      -0.931  -4.634  -3.229  0.00  0.00    +0.104 C 
ATOM     29  N   UNL     1      -1.154  -5.638  -3.712  0.00  0.00    -0.191 NA
ENDBRANCH  17  28
ENDBRANCH   4  16
TORSDOF 6
