REMARK  Name = ZINC09007986
REMARK  6 active torsions:
REMARK  status: ('A' for Active; 'I' for Inactive)
REMARK    1  A    between atoms: C_1  and  N_43
REMARK    2  A    between atoms: C_9  and  O_24
REMARK    3  A    between atoms: C_11  and  C_14
REMARK    4  A    between atoms: C_18  and  O_21
REMARK    5  A    between atoms: C_19  and  O_20
REMARK    6  A    between atoms: O_21  and  C_22
REMARK                            x       y       z     vdW  Elec       q    Type
REMARK                         _______ _______ _______ _____ _____    ______ ____
ROOT
ATOM      1  C   UNL     1      -0.384  -3.488   8.191  0.00  0.00    -0.096 C 
ATOM      2  C   UNL     1       1.259  -2.808   6.547  0.00  0.00    -0.074 C 
ATOM      3  C   UNL     1       1.851  -3.184   5.186  0.00  0.00    +0.018 C 
ATOM      4  C   UNL     1       0.762  -3.023   4.131  0.00  0.00    -0.027 A 
ATOM      5  C   UNL     1      -0.538  -2.961   4.508  0.00  0.00    -0.021 A 
ATOM      6  S   UNL     1      -1.441  -2.774   2.994  0.00  0.00    -0.080 S 
ATOM      7  C   UNL     1      -0.127  -2.784   1.898  0.00  0.00    +0.080 A 
ATOM      8  C   UNL     1       1.009  -2.926   2.706  0.00  0.00    +0.067 A 
ATOM      9  C   UNL     1       2.328  -2.959   2.024  0.00  0.00    +0.220 C 
ATOM     10  N   UNL     1       2.365  -2.656   0.756  0.00  0.00    -0.223 NA
ATOM     11  C   UNL     1       1.224  -2.189  -0.021  0.00  0.00    +0.227 C 
ATOM     12  N   UNL     1      -0.050  -2.687   0.530  0.00  0.00    -0.313 N 
ATOM     13  C   UNL     1      -1.065  -3.037   5.906  0.00  0.00    -0.036 C 
ATOM     14  H   UNL     1      -0.793  -2.932  -0.043  0.00  0.00    +0.149 HD
ATOM     15  N   UNL     1       0.015  -3.573   6.769  0.00  0.00    +0.381 N 
ATOM     16  H   UNL     1       0.180  -4.557   6.527  0.00  0.00    -0.082 HD
ENDROOT
BRANCH  11  17
ATOM     17  C   UNL     1       1.207  -0.682  -0.013  0.00  0.00    +0.041 A 
ATOM     18  C   UNL     1       0.002  -0.004   0.002  0.00  0.00    +0.026 A 
ATOM     19  C   UNL     1      -0.017   1.379   0.010  0.00  0.00    +0.022 A 
ATOM     20  C   UNL     1       1.170   2.089   0.002  0.00  0.00    +0.064 A 
ATOM     21  C   UNL     1       2.381   1.416  -0.013  0.00  0.00    +0.163 A 
ATOM     22  C   UNL     1       2.399   0.024  -0.021  0.00  0.00    +0.165 A 
ATOM     23 BR   UNL     1      -1.668   2.300   0.022  0.00  0.00    -0.050 Br
BRANCH  22  24
ATOM     24  O   UNL     1       3.585  -0.642  -0.036  0.00  0.00    -0.503 OA
ATOM     25  H   UNL     1       3.919  -0.829  -0.924  0.00  0.00    +0.292 HD
ENDBRANCH  22  24
BRANCH  21  26
ATOM     26  O   UNL     1       3.548   2.113  -0.020  0.00  0.00    -0.491 OA
ATOM     27  C   UNL     1       3.453   3.538  -0.012  0.00  0.00    +0.277 C 
ENDBRANCH  21  26
ENDBRANCH  11  17
BRANCH   9  28
ATOM     28  O   UNL     1       3.454  -3.294   2.696  0.00  0.00    -0.492 OA
ATOM     29  H   UNL     1       4.254  -3.283   2.152  0.00  0.00    +0.294 HD
ENDBRANCH   9  28
TORSDOF 4
