REMARK  Name = ZINC13980011
REMARK  9 active torsions:
REMARK  status: ('A' for Active; 'I' for Inactive)
REMARK    1  A    between atoms: C_1  and  C_2
REMARK    2  A    between atoms: C_2  and  C_3
REMARK    3  A    between atoms: C_2  and  C_4
REMARK    4  A    between atoms: C_9  and  O_10
REMARK    5  A    between atoms: O_10  and  C_11
REMARK    6  A    between atoms: C_11  and  C_12
REMARK    7  A    between atoms: N_14  and  N_15
REMARK    8  A    between atoms: C_16  and  C_18
REMARK    9  A    between atoms: C_24  and  C_26
REMARK                            x       y       z     vdW  Elec       q    Type
REMARK                         _______ _______ _______ _____ _____    ______ ____
ROOT
ATOM      1  C   UNL     1      -3.264  -0.218  -4.018  0.00  0.00    +0.267 C 
ATOM      2  O   UNL     1      -3.836  -0.928  -3.218  0.00  0.00    -0.271 OA
ATOM      3  N   UNL     1      -1.976   0.124  -3.816  0.00  0.00    -0.232 N 
ATOM      4  H   UNL     1      -1.518   0.691  -4.455  0.00  0.00    +0.173 HD
ENDROOT
BRANCH   3   5
ATOM      5  N   UNL     1      -1.298  -0.340  -2.680  0.00  0.00    -0.234 N 
ATOM      6  C   UNL     1      -0.011   0.002  -2.478  0.00  0.00    +0.233 C 
ATOM      7  O   UNL     1       0.562   0.711  -3.278  0.00  0.00    -0.274 OA
ATOM      8  H   UNL     1      -1.756  -0.908  -2.041  0.00  0.00    +0.173 HD
BRANCH   6   9
ATOM      9  C   UNL     1       0.718  -0.497  -1.257  0.00  0.00    +0.090 C 
ATOM     10  C   UNL     1       0.002  -0.004   0.002  0.00  0.00    +0.013 C 
ATOM     11  C   UNL     1      -0.019   1.526   0.010  0.00  0.00    +0.001 C 
ATOM     12  C   UNL     1       1.417   2.055  -0.000  0.00  0.00    +0.001 C 
ATOM     13  C   UNL     1       2.133   1.562  -1.259  0.00  0.00    +0.015 C 
ATOM     14  C   UNL     1       2.154   0.032  -1.268  0.00  0.00    +0.114 C 
BRANCH  14  15
ATOM     15  C   UNL     1       2.859  -0.454  -2.507  0.00  0.00    +0.360 C 
ATOM     16  O   UNL     1       2.274  -1.152  -3.301  0.00  0.00    -0.246 OA
ATOM     17  O   UNL     1       4.138  -0.111  -2.730  0.00  0.00    -0.246 OA
ENDBRANCH  14  15
ENDBRANCH   6   9
ENDBRANCH   3   5
BRANCH   1  18
ATOM     18  C   UNL     1      -3.993   0.281  -5.239  0.00  0.00    +0.326 C 
BRANCH  18  19
ATOM     19  O   UNL     1      -5.333  -0.213  -5.229  0.00  0.00    -0.482 OA
BRANCH  19  25
ATOM     20  C   UNL     1      -7.444  -0.298  -6.322  0.00  0.00    -0.003 A 
ATOM     21  C   UNL     1      -8.254   0.070  -7.380  0.00  0.00    +0.007 A 
ATOM     22  C   UNL     1      -7.757   0.879  -8.384  0.00  0.00    +0.001 A 
ATOM     23  C   UNL     1      -6.448   1.323  -8.332  0.00  0.00    +0.004 A 
ATOM     24  C   UNL     1      -5.637   0.964  -7.274  0.00  0.00    +0.046 A 
ATOM     25  C   UNL     1      -6.132   0.147  -6.268  0.00  0.00    +0.125 A 
BRANCH  20  27
ATOM     26  C   UNL     1      -9.178  -0.490  -4.559  0.00  0.00    +0.012 C 
ATOM     27  C   UNL     1      -7.987  -1.180  -5.228  0.00  0.00    +0.016 C 
ATOM     28  C   UNL     1      -8.441  -2.514  -5.826  0.00  0.00    +0.012 C 
ENDBRANCH  20  27
ENDBRANCH  19  25
ENDBRANCH  18  19
ENDBRANCH   1  18
TORSDOF 7
