REMARK  Name = ZINC26188193
REMARK  10 active torsions:
REMARK  status: ('A' for Active; 'I' for Inactive)
REMARK    1  A    between atoms: C_5  and  C_7
REMARK    2  A    between atoms: C_7  and  C_9
REMARK    3  A    between atoms: C_7  and  C_30
REMARK    4  A    between atoms: C_9  and  C_10
REMARK    5  A    between atoms: C_10  and  N_11
REMARK    6  A    between atoms: N_13  and  C_14
REMARK    7  A    between atoms: C_14  and  C_15
REMARK    8  A    between atoms: C_15  and  C_16
REMARK    9  A    between atoms: C_16  and  C_17
REMARK   10  A    between atoms: N_23  and  C_24
REMARK                            x       y       z     vdW  Elec       q    Type
REMARK                         _______ _______ _______ _____ _____    ______ ____
ROOT
ATOM      1  N   UNL     1      -1.367   1.387  -2.061  0.00  0.00    -0.358 N 
ATOM      2  C   UNL     1      -1.379   0.106  -2.298  0.00  0.00    +0.172 C 
ATOM      3  N   UNL     1      -0.645  -0.407  -3.341  0.00  0.00    -0.358 N 
ATOM      4  N   UNL     1      -2.125  -0.733  -1.505  0.00  0.00    -0.355 N 
ATOM      5  H   UNL     1       0.013   0.252  -3.927  0.00  0.00    +0.162 HD
ATOM      6  H   UNL     1      -1.975  -0.738  -0.415  0.00  0.00    +0.163 HD
ATOM      7  H   UNL     1      -0.704   2.047  -2.639  0.00  0.00    +0.162 HD
ENDROOT
BRANCH   4   8
ATOM      8  C   UNL     1      -3.121  -1.621  -2.111  0.00  0.00    +0.082 C 
ATOM      9  C   UNL     1      -4.278  -0.787  -2.664  0.00  0.00    +0.024 C 
ATOM     10  C   UNL     1      -5.318  -1.714  -3.297  0.00  0.00    +0.002 C 
ATOM     11  C   UNL     1      -5.848  -2.684  -2.239  0.00  0.00    +0.000 C 
ATOM     12  C   UNL     1      -4.690  -3.518  -1.686  0.00  0.00    +0.002 C 
ATOM     13  C   UNL     1      -3.651  -2.591  -1.053  0.00  0.00    +0.024 C 
ENDBRANCH   4   8
BRANCH   1  14
ATOM     14  C   UNL     1      -2.236   1.948  -1.024  0.00  0.00    +0.116 C 
BRANCH  14  15
ATOM     15  C   UNL     1      -1.378   2.508   0.113  0.00  0.00    +0.035 C 
BRANCH  15  16
ATOM     16  C   UNL     1      -2.279   3.195   1.141  0.00  0.00    +0.069 C 
BRANCH  16  17
ATOM     17  C   UNL     1      -1.457   3.600   2.338  0.00  0.00    -0.038 A 
ATOM     18  C   UNL     1      -0.433   4.518   2.193  0.00  0.00    +0.005 A 
ATOM     19  C   UNL     1       0.318   4.894   3.291  0.00  0.00    +0.015 A 
ATOM     20  C   UNL     1       0.051   4.345   4.532  0.00  0.00    +0.018 A 
ATOM     21  C   UNL     1      -0.970   3.423   4.675  0.00  0.00    +0.015 A 
ATOM     22  C   UNL     1      -1.724   3.051   3.578  0.00  0.00    +0.005 A 
ATOM     23 BR   UNL     1       1.083   4.853   6.033  0.00  0.00    -0.050 Br
ENDBRANCH  16  17
BRANCH  16  28
ATOM     24  C   UNL     1      -2.766   6.297  -0.943  0.00  0.00    +0.003 A 
ATOM     25  C   UNL     1      -4.063   6.620  -0.575  0.00  0.00    +0.020 A 
ATOM     26  C   UNL     1      -4.725   5.817   0.334  0.00  0.00    +0.111 A 
ATOM     27  N   UNL     1      -4.139   4.753   0.846  0.00  0.00    -0.259 NA
ATOM     28  C   UNL     1      -2.905   4.418   0.523  0.00  0.00    +0.049 A 
ATOM     29  C   UNL     1      -2.181   5.173  -0.380  0.00  0.00    +0.024 A 
ENDBRANCH  16  28
ENDBRANCH  15  16
ENDBRANCH  14  15
ENDBRANCH   1  14
BRANCH   3  30
ATOM     30  C   UNL     1      -0.739  -1.831  -3.673  0.00  0.00    +0.116 C 
BRANCH  30  31
ATOM     31  C   UNL     1       0.578  -2.298  -4.297  0.00  0.00    +0.027 C 
BRANCH  31  32
ATOM     32  C   UNL     1       0.479  -3.785  -4.644  0.00  0.00    +0.056 C 
BRANCH  32  33
ATOM     33  C   UNL     1       1.776  -4.244  -5.258  0.00  0.00    +0.033 A 
ATOM     34  C   UNL     1       2.534  -5.272  -4.831  0.00  0.00    +0.105 A 
ATOM     35  N   UNL     1       3.614  -5.342  -5.668  0.00  0.00    -0.352 N 
ATOM     36  H   UNL     1       4.381  -6.115  -5.513  0.00  0.00    +0.166 HD
ATOM     37  C   UNL     1       3.479  -4.355  -6.579  0.00  0.00    +0.171 A 
ATOM     38  N   UNL     1       2.374  -3.705  -6.331  0.00  0.00    -0.350 N 
ATOM     39  H   UNL     1       1.914  -2.848  -6.845  0.00  0.00    +0.166 HD
ENDBRANCH  32  33
ENDBRANCH  31  32
ENDBRANCH  30  31
ENDBRANCH   3  30
TORSDOF 10
