REMARK  Name = ZINC34895482
REMARK  5 active torsions:
REMARK  status: ('A' for Active; 'I' for Inactive)
REMARK    1  A    between atoms: C_3  and  C_6
REMARK    2  A    between atoms: N_8  and  C_9
REMARK    3  A    between atoms: N_8  and  C_30
REMARK    4  A    between atoms: C_9  and  C_10
REMARK    5  A    between atoms: C_20  and  C_22
REMARK                            x       y       z     vdW  Elec       q    Type
REMARK                         _______ _______ _______ _____ _____    ______ ____
ROOT
ATOM      1  C   UNL     1       6.460  -0.359   0.148  0.00  0.00    +0.234 C 
ATOM      2  O   UNL     1       5.610  -0.778   0.904  0.00  0.00    -0.274 OA
ATOM      3  N   UNL     1       7.761  -0.429   0.492  0.00  0.00    -0.289 N 
ATOM      4  C   UNL     1       8.801   0.082  -0.413  0.00  0.00    +0.114 C 
ATOM      5  C   UNL     1       9.493   1.273   0.269  0.00  0.00    +0.062 C 
ATOM      6  C   UNL     1       9.737   0.927   1.702  0.00  0.00    -0.003 A 
ATOM      7  C   UNL     1       9.171  -0.074   2.429  0.00  0.00    -0.012 A 
ATOM      8  C   UNL     1       9.566  -0.179   3.762  0.00  0.00    +0.013 A 
ATOM      9  C   UNL     1      10.474   0.686   4.269  0.00  0.00    +0.046 A 
ATOM     10  S   UNL     1      10.826   1.720   2.855  0.00  0.00    -0.101 S 
ATOM     11  C   UNL     1       8.161  -1.011   1.781  0.00  0.00    +0.139 C 
ENDROOT
BRANCH  11  12
ATOM     12  C   UNL     1       8.793  -2.361   1.557  0.00  0.00    -0.004 A 
ATOM     13  C   UNL     1      10.165  -2.467   1.422  0.00  0.00    +0.008 A 
ATOM     14  C   UNL     1      10.746  -3.704   1.217  0.00  0.00    +0.020 A 
ATOM     15  C   UNL     1       9.955  -4.837   1.146  0.00  0.00    +0.042 A 
ATOM     16  C   UNL     1       8.582  -4.731   1.281  0.00  0.00    +0.040 A 
ATOM     17  C   UNL     1       8.002  -3.493   1.492  0.00  0.00    +0.048 A 
ATOM     18 CL   UNL     1       6.280  -3.360   1.667  0.00  0.00    -0.083 Cl
ATOM     19 CL   UNL     1      10.684  -6.391   0.888  0.00  0.00    -0.083 Cl
ENDBRANCH  11  12
BRANCH   1  20
ATOM     20  C   UNL     1       6.063   0.240  -1.176  0.00  0.00    +0.204 C 
BRANCH  20  23
ATOM     21  C   UNL     1       3.849   1.165  -0.752  0.00  0.00    +0.283 C 
ATOM     22  O   UNL     1       2.635   1.076  -0.772  0.00  0.00    -0.267 OA
ATOM     23  N   UNL     1       4.604   0.200  -1.312  0.00  0.00    -0.283 N 
BRANCH  21  26
ATOM     24  C   UNL     1       4.842   4.277   0.878  0.00  0.00    +0.042 A 
ATOM     25  C   UNL     1       3.849   3.430   0.361  0.00  0.00    +0.054 A 
ATOM     26  C   UNL     1       4.488   2.323  -0.118  0.00  0.00    +0.189 A 
ATOM     27  O   UNL     1       5.811   2.479   0.094  0.00  0.00    -0.458 OA
ATOM     28  C   UNL     1       6.029   3.657   0.695  0.00  0.00    +0.196 A 
ENDBRANCH  21  26
BRANCH  23  29
ATOM     29  C   UNL     1       3.968  -0.889  -2.057  0.00  0.00    +0.077 C 
ATOM     30  C   UNL     1       2.522  -0.683  -2.512  0.00  0.00    +0.024 C 
ATOM     31  C   UNL     1       2.834  -1.648  -1.367  0.00  0.00    +0.024 C 
ENDBRANCH  23  29
ENDBRANCH  20  23
ENDBRANCH   1  20
TORSDOF 5
