REMARK  Name = ZINC07891286
REMARK  3 active torsions:
REMARK  status: ('A' for Active; 'I' for Inactive)
REMARK    1  A    between atoms: C_1  and  C_2
REMARK    2  A    between atoms: N_8  and  N_9
REMARK    3  A    between atoms: C_10  and  C_11
REMARK                            x       y       z     vdW  Elec       q    Type
REMARK                         _______ _______ _______ _____ _____    ______ ____
ROOT
ATOM      1  N   UNL     1       3.611  -1.839  -0.026  0.00  0.00    -0.188 NA
ATOM      2  C   UNL     1       4.765  -2.433  -0.035  0.00  0.00    +0.138 C 
ENDROOT
BRANCH   1  10
ATOM      3  C   UNL     1      -0.018   1.503   0.010  0.00  0.00    +0.066 C 
ATOM      4  C   UNL     1       0.002  -0.004   0.002  0.00  0.00    +0.047 A 
ATOM      5  C   UNL     1      -1.171  -0.701   0.004  0.00  0.00    +0.093 A 
ATOM      6  C   UNL     1      -1.127  -2.107  -0.004  0.00  0.00    +0.253 A 
ATOM      7  N   UNL     1       0.077  -2.718  -0.014  0.00  0.00    -0.294 N 
ATOM      8  C   UNL     1       1.215  -1.970  -0.015  0.00  0.00    +0.216 A 
ATOM      9  N   UNL     1       1.164  -0.652  -0.013  0.00  0.00    -0.220 NA
ATOM     10  N   UNL     1       2.433  -2.597  -0.025  0.00  0.00    -0.207 N 
ATOM     11  O   UNL     1      -2.157  -2.761  -0.003  0.00  0.00    -0.268 OA
ATOM     12  H   UNL     1       2.480  -3.566  -0.031  0.00  0.00    +0.177 HD
ATOM     13  H   UNL     1       0.131  -3.687  -0.019  0.00  0.00    +0.172 HD
ENDBRANCH   1  10
BRANCH   2  14
ATOM     14  C   UNL     1       6.005  -1.635  -0.037  0.00  0.00    -0.005 A 
ATOM     15  C   UNL     1       5.931  -0.230  -0.023  0.00  0.00    +0.010 A 
ATOM     16  C   UNL     1       7.058   0.526  -0.024  0.00  0.00    +0.009 A 
ATOM     17  C   UNL     1       8.322  -0.093  -0.039  0.00  0.00    -0.018 A 
ATOM     18  C   UNL     1       9.502   0.668  -0.040  0.00  0.00    +0.008 A 
ATOM     19  C   UNL     1      10.710   0.041  -0.055  0.00  0.00    +0.001 A 
ATOM     20  C   UNL     1      10.797  -1.350  -0.069  0.00  0.00    +0.001 A 
ATOM     21  C   UNL     1       9.676  -2.121  -0.069  0.00  0.00    +0.008 A 
ATOM     22  C   UNL     1       8.410  -1.509  -0.054  0.00  0.00    -0.017 A 
ATOM     23  C   UNL     1       7.234  -2.275  -0.047  0.00  0.00    +0.018 A 
ENDBRANCH   2  14
TORSDOF 2
