REMARK  Name = ZINC21264005
REMARK  16 active torsions:
REMARK  status: ('A' for Active; 'I' for Inactive)
REMARK    1  A    between atoms: C_1  and  C_2
REMARK    2  A    between atoms: C_2  and  C_28
REMARK    3  A    between atoms: C_4  and  N_10
REMARK    4  A    between atoms: C_6  and  C_8
REMARK    5  A    between atoms: C_6  and  C_9
REMARK    6  A    between atoms: N_10  and  C_11
REMARK    7  A    between atoms: C_11  and  N_13
REMARK    8  A    between atoms: N_13  and  C_14
REMARK    9  A    between atoms: N_13  and  C_19
REMARK   10  A    between atoms: C_14  and  C_15
REMARK   11  A    between atoms: C_15  and  N_16
REMARK   12  A    between atoms: N_16  and  C_17
REMARK   13  A    between atoms: N_16  and  C_18
REMARK   14  A    between atoms: C_19  and  C_20
REMARK   15  A    between atoms: C_23  and  O_26
REMARK   16  A    between atoms: O_26  and  C_27
REMARK                            x       y       z     vdW  Elec       q    Type
REMARK                         _______ _______ _______ _____ _____    ______ ____
ROOT
ATOM      1  C   UNL     1       0.113   5.703  -2.353  0.00  0.00    +0.133 C 
ATOM      2  S   UNL     1      -0.229   4.821  -3.780  0.00  0.00    -0.019 S 
ENDROOT
BRANCH   1   3
ATOM      3  N   UNL     1       0.389   5.051  -1.207  0.00  0.00    -0.324 N 
ATOM      4  H   UNL     1       0.608   5.617  -0.290  0.00  0.00    +0.148 HD
BRANCH   3   8
ATOM      5  C   UNL     1      -0.944   0.975  -2.269  0.00  0.00    -0.010 C 
ATOM      6  C   UNL     1      -1.042   1.551  -0.852  0.00  0.00    -0.072 C 
ATOM      7  C   UNL     1      -1.022   3.076  -0.918  0.00  0.00    +0.009 C 
ATOM      8  C   UNL     1       0.396   3.583  -1.181  0.00  0.00    +0.069 C 
ATOM      9  C   UNL     1       1.298   3.104  -0.042  0.00  0.00    +0.009 C 
ATOM     10  C   UNL     1       1.320   1.577  -0.002  0.00  0.00    -0.072 C 
ATOM     11  N   UNL     1      -0.012   1.005   0.008  0.00  0.00    +0.386 N 
ATOM     12  C   UNL     1       2.035   1.156   1.301  0.00  0.00    -0.010 C 
ATOM     13  C   UNL     1       2.151   1.041  -1.172  0.00  0.00    -0.010 C 
ATOM     14  C   UNL     1      -2.415   1.129  -0.282  0.00  0.00    -0.010 C 
ATOM     15  H   UNL     1      -0.328   1.088   1.058  0.00  0.00    -0.084 HD
ATOM     16  H   UNL     1       0.152  -0.053  -0.244  0.00  0.00    -0.084 HD
ENDBRANCH   3   8
ENDBRANCH   1   3
BRANCH   1  17
ATOM     17  N   UNL     1       0.106   7.051  -2.376  0.00  0.00    -0.310 N 
BRANCH  17  18
ATOM     18  C   UNL     1       0.398   7.806  -1.155  0.00  0.00    +0.088 C 
BRANCH  18  19
ATOM     19  C   UNL     1       1.903   8.070  -1.067  0.00  0.00    -0.060 C 
BRANCH  19  20
ATOM     20  N   UNL     1       2.196   8.827   0.157  0.00  0.00    +0.377 N 
ATOM     21  C   UNL     1       3.643   8.896   0.400  0.00  0.00    -0.097 C 
ATOM     22  C   UNL     1       1.608  10.172   0.098  0.00  0.00    -0.097 C 
ATOM     23  H   UNL     1       1.736   8.294   1.002  0.00  0.00    -0.083 HD
ENDBRANCH  19  20
ENDBRANCH  18  19
ENDBRANCH  17  18
BRANCH  17  24
ATOM     24  C   UNL     1      -0.194   7.761  -3.622  0.00  0.00    +0.141 C 
BRANCH  24  25
ATOM     25  C   UNL     1      -1.678   8.002  -3.718  0.00  0.00    -0.030 A 
ATOM     26  C   UNL     1      -2.492   7.068  -4.331  0.00  0.00    +0.009 A 
ATOM     27  C   UNL     1      -3.853   7.285  -4.415  0.00  0.00    +0.046 A 
ATOM     28  C   UNL     1      -4.403   8.447  -3.894  0.00  0.00    +0.120 A 
ATOM     29  C   UNL     1      -3.584   9.386  -3.284  0.00  0.00    +0.046 A 
ATOM     30  C   UNL     1      -2.223   9.162  -3.197  0.00  0.00    +0.009 A 
BRANCH  28  31
ATOM     31  O   UNL     1      -5.742   8.665  -3.979  0.00  0.00    -0.495 OA
ATOM     32  C   UNL     1      -6.524   7.655  -4.621  0.00  0.00    +0.277 C 
ENDBRANCH  28  31
ENDBRANCH  24  25
ENDBRANCH  17  24
ENDBRANCH   1  17
TORSDOF 9
