REMARK  Name = ZINC33261910
REMARK  6 active torsions:
REMARK  status: ('A' for Active; 'I' for Inactive)
REMARK    1  A    between atoms: C_1  and  C_2
REMARK    2  A    between atoms: C_2  and  C_3
REMARK    3  A    between atoms: C_6  and  N_9
REMARK    4  A    between atoms: C_10  and  C_12
REMARK    5  A    between atoms: N_17  and  S_18
REMARK    6  A    between atoms: S_18  and  C_21
REMARK                            x       y       z     vdW  Elec       q    Type
REMARK                         _______ _______ _______ _____ _____    ______ ____
ROOT
ATOM      1  C   UNL     1      -4.888   0.923   0.245  0.00  0.00    +0.166 C 
ATOM      2  C   UNL     1      -4.868   0.058   1.523  0.00  0.00    +0.031 C 
ATOM      3  C   UNL     1      -6.328   0.164   2.038  0.00  0.00    +0.019 C 
ATOM      4  C   UNL     1      -6.685   1.624   1.661  0.00  0.00    +0.110 C 
ATOM      5  N   UNL     1      -6.021   1.853   0.361  0.00  0.00    -0.165 NA
ENDROOT
BRANCH   1   7
ATOM      6  N   UNL     1      -2.428   1.041   0.019  0.00  0.00    -0.284 N 
ATOM      7  C   UNL     1      -3.600   1.696   0.130  0.00  0.00    +0.236 C 
ATOM      8  O   UNL     1      -3.618   2.909   0.137  0.00  0.00    -0.274 OA
ATOM      9  H   UNL     1      -2.417  -0.055  -0.074  0.00  0.00    +0.155 HD
BRANCH   6  13
ATOM     10  C   UNL     1       1.159   3.161   0.036  0.00  0.00    -0.048 A 
ATOM     11  C   UNL     1       0.087   3.612   0.785  0.00  0.00    +0.005 A 
ATOM     12  C   UNL     1      -1.104   2.913   0.779  0.00  0.00    +0.023 A 
ATOM     13  C   UNL     1      -1.224   1.754   0.023  0.00  0.00    +0.033 A 
ATOM     14  C   UNL     1      -0.148   1.308  -0.733  0.00  0.00    +0.023 A 
ATOM     15  C   UNL     1       1.041   2.010  -0.722  0.00  0.00    +0.005 A 
BRANCH  10  17
ATOM     16  C   UNL     1       3.350   3.399   1.171  0.00  0.00    +0.009 C 
ATOM     17  C   UNL     1       2.457   3.925   0.046  0.00  0.00    +0.032 C 
ENDBRANCH  10  17
ENDBRANCH   6  13
ENDBRANCH   1   7
BRANCH   5  18
ATOM     18  S   UNL     1      -6.473   2.969  -0.775  0.00  0.00    +0.062 S 
ATOM     19  O   UNL     1      -7.191   3.983  -0.085  0.00  0.00    -0.153 OA
ATOM     20  O   UNL     1      -5.317   3.249  -1.552  0.00  0.00    -0.153 OA
BRANCH  18  21
ATOM     21  C   UNL     1      -7.625   2.181  -1.851  0.00  0.00    +0.107 A 
ATOM     22  C   UNL     1      -7.174   1.524  -2.981  0.00  0.00    +0.032 A 
ATOM     23  C   UNL     1      -8.070   0.898  -3.828  0.00  0.00    +0.049 A 
ATOM     24  C   UNL     1      -9.425   0.939  -3.549  0.00  0.00    +0.142 A 
ATOM     25  C   UNL     1      -9.880   1.605  -2.412  0.00  0.00    +0.078 A 
ATOM     26  C   UNL     1      -8.977   2.225  -1.565  0.00  0.00    +0.055 A 
ATOM     27  N   UNL     1     -11.256   1.639  -2.142  0.00  0.00    -0.280 N 
ATOM     28  C   UNL     1     -12.072   0.780  -2.791  0.00  0.00    +0.255 C 
ATOM     29  O   UNL     1     -13.269   0.812  -2.596  0.00  0.00    -0.272 OA
ATOM     30  C   UNL     1     -11.489  -0.218  -3.759  0.00  0.00    +0.325 C 
ATOM     31  O   UNL     1     -10.321   0.333  -4.373  0.00  0.00    -0.481 OA
ATOM     32  H   UNL     1     -11.655   2.357  -1.411  0.00  0.00    +0.155 HD
ENDBRANCH  18  21
ENDBRANCH   5  18
TORSDOF 5
