REMARK  Name = ZINC21617716
REMARK  9 active torsions:
REMARK  status: ('A' for Active; 'I' for Inactive)
REMARK    1  A    between atoms: C_1  and  C_2
REMARK    2  A    between atoms: C_4  and  S_12
REMARK    3  A    between atoms: S_12  and  C_13
REMARK    4  A    between atoms: C_13  and  C_15
REMARK    5  A    between atoms: C_13  and  C_16
REMARK    6  A    between atoms: C_16  and  C_18
REMARK    7  A    between atoms: C_19  and  N_28
REMARK    8  A    between atoms: N_20  and  C_27
REMARK    9  A    between atoms: N_23  and  C_26
REMARK                            x       y       z     vdW  Elec       q    Type
REMARK                         _______ _______ _______ _____ _____    ______ ____
ROOT
ATOM      1  C   UNL     1       5.531   2.118   0.507  0.00  0.00    +0.185 C 
ATOM      2  O   UNL     1       5.864   1.079   1.042  0.00  0.00    -0.291 OA
ENDROOT
BRANCH   1   3
ATOM      3  C   UNL     1       6.415   2.771  -0.378  0.00  0.00    +0.121 A 
ATOM      4  C   UNL     1       7.634   2.180  -0.754  0.00  0.00    +0.116 A 
ATOM      5  N   UNL     1       8.454   2.849  -1.617  0.00  0.00    -0.284 N 
ATOM      6  C   UNL     1       8.122   4.057  -2.099  0.00  0.00    +0.333 A 
ATOM      7  O   UNL     1       8.889   4.613  -2.861  0.00  0.00    -0.246 OA
ATOM      8  N   UNL     1       6.975   4.673  -1.771  0.00  0.00    -0.263 N 
ATOM      9  C   UNL     1       6.094   4.094  -0.930  0.00  0.00    +0.269 A 
ATOM     10  O   UNL     1       5.055   4.655  -0.635  0.00  0.00    -0.267 OA
ATOM     11  C   UNL     1       6.677   5.992  -2.334  0.00  0.00    +0.157 C 
ATOM     12  C   UNL     1       9.723   2.239  -2.020  0.00  0.00    +0.155 C 
BRANCH   4  13
ATOM     13  N   UNL     1       7.988   0.959  -0.270  0.00  0.00    -0.344 N 
ATOM     14  H   UNL     1       8.944   0.504  -0.570  0.00  0.00    +0.144 HD
ATOM     15  H   UNL     1       7.319   0.426   0.421  0.00  0.00    +0.144 HD
ENDBRANCH   4  13
ENDBRANCH   1   3
BRANCH   1  16
ATOM     16  C   UNL     1       4.173   2.708   0.788  0.00  0.00    +0.121 C 
ATOM     17  C   UNL     1       4.290   3.747   1.905  0.00  0.00    +0.028 C 
BRANCH  16  18
ATOM     18  S   UNL     1       3.039   1.394   1.302  0.00  0.00    -0.095 S 
BRANCH  18  22
ATOM     19  C   UNL     1      -2.088   1.662   2.281  0.00  0.00    +0.044 C 
ATOM     20  C   UNL     1      -0.808   2.349   1.879  0.00  0.00    -0.039 A 
ATOM     21  C   UNL     1       0.360   1.653   1.795  0.00  0.00    +0.038 A 
ATOM     22  C   UNL     1       1.538   2.311   1.413  0.00  0.00    +0.099 A 
ATOM     23  N   UNL     1       1.549   3.599   1.134  0.00  0.00    -0.240 NA
ATOM     24  C   UNL     1       0.434   4.334   1.205  0.00  0.00    +0.072 A 
ATOM     25  C   UNL     1      -0.788   3.728   1.586  0.00  0.00    +0.003 A 
ATOM     26  C   UNL     1      -1.955   4.504   1.658  0.00  0.00    +0.010 A 
ATOM     27  C   UNL     1      -1.899   5.832   1.361  0.00  0.00    +0.001 A 
ATOM     28  C   UNL     1      -0.699   6.431   0.987  0.00  0.00    +0.002 A 
ATOM     29  C   UNL     1       0.451   5.707   0.906  0.00  0.00    +0.028 A 
ENDBRANCH  18  22
ENDBRANCH  16  18
ENDBRANCH   1  16
TORSDOF 5
