REMARK  Name = ZINC65835391
REMARK  3 active torsions:
REMARK  status: ('A' for Active; 'I' for Inactive)
REMARK    1  A    between atoms: C_8  and  C_10
REMARK    2  A    between atoms: C_16  and  C_18
REMARK    3  A    between atoms: C_21  and  C_26
REMARK                            x       y       z     vdW  Elec       q    Type
REMARK                         _______ _______ _______ _____ _____    ______ ____
ROOT
ATOM      1  C   UNL     1       3.522  -3.655   0.013  0.00  0.00    +0.078 C 
ATOM      2  C   UNL     1       4.417  -3.718   1.253  0.00  0.00    +0.032 C 
ATOM      3  C   UNL     1       5.271  -4.988   1.197  0.00  0.00    +0.109 C 
ATOM      4  N   UNL     1       6.003  -5.011  -0.076  0.00  0.00    -0.297 N 
ATOM      5  C   UNL     1       5.247  -4.865  -1.328  0.00  0.00    +0.109 C 
ATOM      6  C   UNL     1       4.393  -3.596  -1.244  0.00  0.00    +0.032 C 
ATOM      7  C   UNL     1       7.342  -5.161  -0.096  0.00  0.00    +0.252 C 
ATOM      8  O   UNL     1       7.926  -5.269  -1.158  0.00  0.00    -0.270 OA
ENDROOT
BRANCH   1  16
ATOM      9  C   UNL     1      -0.473   0.809   0.268  0.00  0.00    +0.002 A 
ATOM     10  C   UNL     1       0.658   1.612   0.296  0.00  0.00    +0.004 A 
ATOM     11  C   UNL     1       1.917   1.049   0.257  0.00  0.00    +0.048 A 
ATOM     12  C   UNL     1       2.055  -0.329   0.189  0.00  0.00    +0.155 A 
ATOM     13  C   UNL     1       0.913  -1.145   0.161  0.00  0.00    +0.110 A 
ATOM     14  C   UNL     1      -0.354  -0.561   0.201  0.00  0.00    +0.031 A 
ATOM     15  N   UNL     1       1.357  -2.429   0.094  0.00  0.00    -0.213 NA
ATOM     16  C   UNL     1       2.656  -2.423   0.081  0.00  0.00    +0.200 A 
ATOM     17  O   UNL     1       3.116  -1.164   0.138  0.00  0.00    -0.439 OA
ENDBRANCH   1  16
BRANCH   7  18
ATOM     18  C   UNL     1       8.096  -5.194   1.163  0.00  0.00    +0.101 A 
ATOM     19  C   UNL     1       8.150  -6.368   1.923  0.00  0.00    +0.020 A 
ATOM     20  C   UNL     1       8.869  -6.372   3.107  0.00  0.00    +0.030 A 
ATOM     21  C   UNL     1       9.523  -5.220   3.524  0.00  0.00    +0.085 A 
ATOM     22  N   UNL     1       9.465  -4.075   2.776  0.00  0.00    -0.319 N 
ATOM     23  H   UNL     1       9.928  -3.279   3.082  0.00  0.00    +0.169 HD
ATOM     24  C   UNL     1       8.780  -4.040   1.618  0.00  0.00    +0.261 A 
ATOM     25  O   UNL     1       8.744  -3.014   0.962  0.00  0.00    -0.267 OA
BRANCH  21  26
ATOM     26  C   UNL     1      10.281  -5.230   4.777  0.00  0.00    +0.151 A 
ATOM     27  C   UNL     1      10.965  -4.173   5.310  0.00  0.00    +0.051 A 
ATOM     28  C   UNL     1      11.538  -4.628   6.508  0.00  0.00    +0.042 A 
ATOM     29  C   UNL     1      11.184  -5.924   6.652  0.00  0.00    +0.196 A 
ATOM     30  O   UNL     1      10.421  -6.281   5.610  0.00  0.00    -0.461 OA
ENDBRANCH  21  26
ENDBRANCH   7  18
TORSDOF 3
