REMARK  Name = ZINC08568296
REMARK  9 active torsions:
REMARK  status: ('A' for Active; 'I' for Inactive)
REMARK    1  A    between atoms: C_1  and  C_2
REMARK    2  A    between atoms: C_2  and  C_3
REMARK    3  A    between atoms: C_3  and  C_4
REMARK    4  A    between atoms: C_11  and  N_35
REMARK    5  A    between atoms: C_12  and  C_31
REMARK    6  A    between atoms: N_20  and  C_23
REMARK    7  A    between atoms: C_23  and  C_24
REMARK    8  A    between atoms: C_31  and  O_33
REMARK    9  A    between atoms: O_33  and  C_34
REMARK                            x       y       z     vdW  Elec       q    Type
REMARK                         _______ _______ _______ _____ _____    ______ ____
ROOT
ATOM      1  C   UNL     1       0.629  -1.986   1.082  0.00  0.00    +0.071 A 
ATOM      2  C   UNL     1      -0.271  -2.835   1.712  0.00  0.00    +0.061 A 
ATOM      3  C   UNL     1       0.205  -4.114   1.599  0.00  0.00    +0.223 A 
ATOM      4  N   UNL     1       1.361  -4.058   0.921  0.00  0.00    -0.246 N 
ATOM      5  H   UNL     1       1.925  -4.813   0.689  0.00  0.00    +0.192 HD
ATOM      6  N   UNL     1       1.608  -2.714   0.600  0.00  0.00    -0.176 NA
ATOM      7  O   UNL     1      -0.449  -5.184   2.116  0.00  0.00    -0.424 OA
ATOM      8  C   UNL     1      -1.454  -4.953   2.983  0.00  0.00    +0.198 C 
ATOM      9  C   UNL     1      -2.017  -3.733   3.173  0.00  0.00    +0.117 C 
ATOM     10  C   UNL     1      -1.559  -2.517   2.417  0.00  0.00    +0.142 C 
ATOM     11  C   UNL     1      -2.603  -2.048   1.456  0.00  0.00    -0.002 A 
ATOM     12  C   UNL     1      -3.194  -2.665   0.374  0.00  0.00    +0.007 A 
ATOM     13  C   UNL     1      -4.150  -1.934  -0.324  0.00  0.00    +0.000 A 
ATOM     14  C   UNL     1      -4.489  -0.650   0.051  0.00  0.00    +0.002 A 
ATOM     15  C   UNL     1      -3.899  -0.024   1.138  0.00  0.00    +0.024 A 
ATOM     16  C   UNL     1      -2.939  -0.746   1.848  0.00  0.00    +0.041 A 
ATOM     17  N   UNL     1      -2.203  -0.373   2.959  0.00  0.00    -0.265 N 
ATOM     18  C   UNL     1      -1.366  -1.353   3.363  0.00  0.00    +0.240 C 
ATOM     19  O   UNL     1      -0.605  -1.307   4.306  0.00  0.00    -0.274 OA
ENDROOT
BRANCH   8  20
ATOM     20  N   UNL     1      -1.934  -6.008   3.712  0.00  0.00    -0.329 N 
ATOM     21  H   UNL     1      -1.609  -6.905   3.538  0.00  0.00    +0.145 HD
ATOM     22  H   UNL     1      -2.599  -5.858   4.402  0.00  0.00    +0.145 HD
ENDBRANCH   8  20
BRANCH   9  23
ATOM     23  C   UNL     1      -3.059  -3.603   4.103  0.00  0.00    +0.341 C 
ATOM     24  O   UNL     1      -4.214  -3.555   3.720  0.00  0.00    -0.245 OA
BRANCH  23  25
ATOM     25  O   UNL     1      -2.781  -3.532   5.423  0.00  0.00    -0.465 OA
ATOM     26  C   UNL     1      -3.891  -3.400   6.313  0.00  0.00    +0.280 C 
ENDBRANCH  23  25
ENDBRANCH   9  23
BRANCH   1  27
ATOM     27  C   UNL     1       0.499  -0.489   0.966  0.00  0.00    +0.057 C 
BRANCH  27  29
ATOM     28  C   UNL     1      -0.402   1.379  -0.427  0.00  0.00    +0.004 C 
ATOM     29  C   UNL     1      -0.270  -0.141  -0.310  0.00  0.00    +0.003 C 
ENDBRANCH  27  29
ENDBRANCH   1  27
BRANCH  17  30
ATOM     30  C   UNL     1      -2.317   0.930   3.618  0.00  0.00    +0.149 C 
BRANCH  30  31
ATOM     31  C   UNL     1      -3.373   0.859   4.691  0.00  0.00    -0.027 A 
ATOM     32  C   UNL     1      -4.689   1.150   4.386  0.00  0.00    +0.005 A 
ATOM     33  C   UNL     1      -5.658   1.086   5.370  0.00  0.00    +0.003 A 
ATOM     34  C   UNL     1      -5.312   0.730   6.660  0.00  0.00    +0.038 A 
ATOM     35  C   UNL     1      -3.994   0.438   6.966  0.00  0.00    +0.124 A 
ATOM     36  C   UNL     1      -3.025   0.497   5.979  0.00  0.00    +0.043 A 
ATOM     37  F   UNL     1      -3.654   0.091   8.227  0.00  0.00    -0.205 F 
ENDBRANCH  30  31
ENDBRANCH  17  30
TORSDOF 7
