REMARK  Name = ZINC52014296
REMARK  9 active torsions:
REMARK  status: ('A' for Active; 'I' for Inactive)
REMARK    1  A    between atoms: C_1  and  C_2
REMARK    2  A    between atoms: C_4  and  O_9
REMARK    3  A    between atoms: O_9  and  C_10
REMARK    4  A    between atoms: C_10  and  C_11
REMARK    5  A    between atoms: C_11  and  C_13
REMARK    6  A    between atoms: C_11  and  O_24
REMARK    7  A    between atoms: C_13  and  N_14
REMARK    8  A    between atoms: N_14  and  C_15
REMARK    9  A    between atoms: C_21  and  O_23
REMARK                            x       y       z     vdW  Elec       q    Type
REMARK                         _______ _______ _______ _____ _____    ______ ____
ROOT
ATOM      1  C   UNL     1       0.048  -4.755  -3.734  0.00  0.00    +0.135 C 
ENDROOT
BRANCH   1   2
ATOM      2  O   UNL     1       1.261  -4.392  -4.396  0.00  0.00    -0.390 OA
ATOM      3  H   UNL     1       2.061  -4.712  -3.957  0.00  0.00    +0.210 HD
ENDBRANCH   1   2
BRANCH   1   4
ATOM      4  C   UNL     1       0.047  -4.176  -2.317  0.00  0.00    +0.258 C 
BRANCH   4   5
ATOM      5  O   UNL     1       0.028  -2.749  -2.386  0.00  0.00    -0.489 OA
BRANCH   5   9
ATOM      6  C   UNL     1      -0.018   1.503   0.010  0.00  0.00    +0.045 C 
ATOM      7  C   UNL     1       0.002  -0.004   0.002  0.00  0.00    -0.029 A 
ATOM      8  C   UNL     1       0.006  -0.688  -1.199  0.00  0.00    +0.050 A 
ATOM      9  C   UNL     1       0.025  -2.075  -1.206  0.00  0.00    +0.121 A 
ATOM     10  C   UNL     1       0.040  -2.773  -0.007  0.00  0.00    +0.047 A 
ATOM     11  C   UNL     1       0.036  -2.086   1.192  0.00  0.00    +0.024 A 
ATOM     12  C   UNL     1       0.023  -0.702   1.196  0.00  0.00    +0.044 A 
ATOM     13 CL   UNL     1       0.025   0.160   2.704  0.00  0.00    -0.083 Cl
ENDBRANCH   5   9
ENDBRANCH   4   5
ENDBRANCH   1   4
BRANCH   1  14
ATOM     14  C   UNL     1      -0.057  -6.280  -3.662  0.00  0.00    -0.047 C 
BRANCH  14  15
ATOM     15  N   UNL     1      -0.056  -6.835  -5.021  0.00  0.00    +0.384 N 
ATOM     16  H   UNL     1      -0.843  -6.468  -5.535  0.00  0.00    -0.085 HD
ATOM     17  H   UNL     1       0.800  -6.579  -5.489  0.00  0.00    -0.085 HD
BRANCH  15  18
ATOM     18  C   UNL     1      -0.156  -8.299  -4.952  0.00  0.00    -0.043 C 
ATOM     19  C   UNL     1       1.098  -8.866  -4.283  0.00  0.00    -0.013 C 
ATOM     20  C   UNL     1       0.993 -10.390  -4.211  0.00  0.00    -0.001 C 
ATOM     21  C   UNL     1       0.868 -10.960  -5.626  0.00  0.00    +0.002 C 
ATOM     22  C   UNL     1      -0.386 -10.394  -6.295  0.00  0.00    +0.030 C 
ATOM     23  C   UNL     1      -0.281  -8.869  -6.367  0.00  0.00    +0.101 C 
BRANCH  23  24
ATOM     24  O   UNL     1       0.871  -8.506  -7.130  0.00  0.00    -0.393 OA
ATOM     25  H   UNL     1       0.860  -8.835  -8.040  0.00  0.00    +0.210 HD
ENDBRANCH  23  24
ENDBRANCH  15  18
ENDBRANCH  14  15
ENDBRANCH   1  14
TORSDOF 8
