REMARK  Name = ZINC43209032
REMARK  10 active torsions:
REMARK  status: ('A' for Active; 'I' for Inactive)
REMARK    1  A    between atoms: C_5  and  C_7
REMARK    2  A    between atoms: C_7  and  N_8
REMARK    3  A    between atoms: N_8  and  C_9
REMARK    4  A    between atoms: C_9  and  C_10
REMARK    5  A    between atoms: C_10  and  C_12
REMARK    6  A    between atoms: C_10  and  C_29
REMARK    7  A    between atoms: C_12  and  C_14
REMARK    8  A    between atoms: C_12  and  N_21
REMARK    9  A    between atoms: N_21  and  C_22
REMARK   10  A    between atoms: C_22  and  C_23
REMARK                            x       y       z     vdW  Elec       q    Type
REMARK                         _______ _______ _______ _____ _____    ______ ____
ROOT
ATOM      1  C   UNL     1       1.680  -6.135  -2.859  0.00  0.00    -0.028 C 
ENDROOT
BRANCH   1   2
ATOM      2  C   UNL     1       2.920  -6.512  -2.090  0.00  0.00    -0.061 A 
ATOM      3  C   UNL     1       4.162  -6.411  -2.689  0.00  0.00    +0.003 A 
ATOM      4  C   UNL     1       5.300  -6.756  -1.984  0.00  0.00    +0.015 A 
ATOM      5  C   UNL     1       5.196  -7.203  -0.679  0.00  0.00    +0.018 A 
ATOM      6  C   UNL     1       3.953  -7.303  -0.080  0.00  0.00    +0.015 A 
ATOM      7  C   UNL     1       2.816  -6.953  -0.784  0.00  0.00    +0.003 A 
ATOM      8 BR   UNL     1       6.752  -7.676   0.286  0.00  0.00    -0.050 Br
ENDBRANCH   1   2
BRANCH   1   9
ATOM      9  N   UNL     1       1.798  -6.614  -4.243  0.00  0.00    +0.388 N 
ATOM     10  H   UNL     1       1.006  -6.291  -4.779  0.00  0.00    -0.084 HD
ATOM     11  H   UNL     1       2.648  -6.257  -4.651  0.00  0.00    -0.084 HD
BRANCH   9  12
ATOM     12  C   UNL     1       1.829  -8.082  -4.252  0.00  0.00    -0.025 C 
BRANCH  12  13
ATOM     13  C   UNL     1       1.950  -8.573  -5.672  0.00  0.00    +0.024 A 
ATOM     14  C   UNL     1       3.197  -8.875  -6.187  0.00  0.00    +0.021 A 
ATOM     15  C   UNL     1       3.297  -9.326  -7.494  0.00  0.00    +0.003 A 
ATOM     16  C   UNL     1       2.134  -9.457  -8.237  0.00  0.00    +0.020 A 
ATOM     17  C   UNL     1       0.922  -9.136  -7.655  0.00  0.00    +0.111 A 
ATOM     18  N   UNL     1       0.865  -8.715  -6.407  0.00  0.00    -0.262 NA
ENDBRANCH  12  13
ENDBRANCH   9  12
ENDBRANCH   1   9
BRANCH   1  19
ATOM     19  C   UNL     1       1.522  -4.613  -2.857  0.00  0.00    +0.075 C 
BRANCH  19  20
ATOM     20  C   UNL     1       0.282  -4.237  -3.626  0.00  0.00    +0.356 C 
ATOM     21  O   UNL     1       0.368  -3.522  -4.610  0.00  0.00    -0.246 OA
ATOM     22  O   UNL     1      -0.808  -4.646  -3.264  0.00  0.00    -0.246 OA
ENDBRANCH  19  20
BRANCH  19  23
ATOM     23  C   UNL     1       1.400  -4.115  -1.416  0.00  0.00    -0.069 C 
BRANCH  23  24
ATOM     24  N   UNL     1       1.368  -2.646  -1.407  0.00  0.00    +0.383 N 
ATOM     25  H   UNL     1       0.576  -2.324  -1.943  0.00  0.00    -0.085 HD
ATOM     26  H   UNL     1       2.219  -2.289  -1.815  0.00  0.00    -0.085 HD
BRANCH  24  27
ATOM     27  C   UNL     1       1.250  -2.168  -0.023  0.00  0.00    -0.026 C 
BRANCH  27  32
ATOM     28  C   UNL     1      -0.017   1.382   0.010  0.00  0.00    +0.003 A 
ATOM     29  C   UNL     1       1.194   2.059   0.002  0.00  0.00    +0.020 A 
ATOM     30  C   UNL     1       2.370   1.334  -0.013  0.00  0.00    +0.111 A 
ATOM     31  N   UNL     1       2.350   0.015  -0.021  0.00  0.00    -0.262 NA
ATOM     32  C   UNL     1       1.218  -0.661  -0.014  0.00  0.00    +0.024 A 
ATOM     33  C   UNL     1       0.002  -0.004   0.002  0.00  0.00    +0.021 A 
ENDBRANCH  27  32
ENDBRANCH  24  27
ENDBRANCH  23  24
ENDBRANCH  19  23
ENDBRANCH   1  19
TORSDOF 10
