REMARK  Name = ZINC33232636
REMARK  7 active torsions:
REMARK  status: ('A' for Active; 'I' for Inactive)
REMARK    1  A    between atoms: C_1  and  C_2
REMARK    2  A    between atoms: C_2  and  C_4
REMARK    3  A    between atoms: C_2  and  N_22
REMARK    4  A    between atoms: N_6  and  C_7
REMARK    5  A    between atoms: C_7  and  C_9
REMARK    6  A    between atoms: C_7  and  C_16
REMARK    7  A    between atoms: N_20  and  C_21
REMARK                            x       y       z     vdW  Elec       q    Type
REMARK                         _______ _______ _______ _____ _____    ______ ____
ROOT
ATOM      1  C   UNL     1       7.150   2.247  -0.650  0.00  0.00    +0.234 C 
ATOM      2  O   UNL     1       7.097   1.102  -1.046  0.00  0.00    -0.274 OA
ATOM      3  N   UNL     1       8.298   2.946  -0.760  0.00  0.00    -0.300 N 
ATOM      4  H   UNL     1       8.346   3.984  -0.401  0.00  0.00    +0.150 HD
ENDROOT
BRANCH   1   6
ATOM      5  C   UNL     1       6.250   3.309   1.402  0.00  0.00    +0.038 C 
ATOM      6  C   UNL     1       5.933   2.889  -0.035  0.00  0.00    +0.155 C 
BRANCH   6   7
ATOM      7  N   UNL     1       4.825   1.932  -0.031  0.00  0.00    -0.316 N 
ATOM      8  C   UNL     1       3.524   2.384  -0.017  0.00  0.00    +0.150 C 
ATOM      9  N   UNL     1       3.272   3.654  -0.006  0.00  0.00    -0.113 NA
ATOM     10  S   UNL     1       1.604   3.790   0.009  0.00  0.00    +0.101 S 
ATOM     11  O   UNL     1       1.225   4.330   1.268  0.00  0.00    -0.146 OA
ATOM     12  O   UNL     1       1.203   4.347  -1.235  0.00  0.00    -0.146 OA
ATOM     13  C   UNL     1       1.160   2.074   0.002  0.00  0.00    +0.123 A 
ATOM     14  C   UNL     1       2.404   1.429  -0.013  0.00  0.00    +0.043 A 
ATOM     15  C   UNL     1       2.404   0.026  -0.021  0.00  0.00    +0.013 A 
ATOM     16  C   UNL     1       1.215  -0.669  -0.013  0.00  0.00    +0.001 A 
ATOM     17  C   UNL     1       0.002  -0.004   0.002  0.00  0.00    +0.002 A 
ATOM     18  C   UNL     1      -0.017   1.384   0.010  0.00  0.00    +0.030 A 
ATOM     19  H   UNL     1       5.032   0.851  -0.039  0.00  0.00    +0.148 HD
ENDBRANCH   6   7
ENDBRANCH   1   6
BRANCH   3  20
ATOM     20  C   UNL     1       9.480   2.321  -1.358  0.00  0.00    +0.169 C 
BRANCH  20  21
ATOM     21  C   UNL     1      10.723   2.999  -0.839  0.00  0.00    -0.020 A 
ATOM     22  C   UNL     1      10.745   4.372  -0.681  0.00  0.00    +0.007 A 
ATOM     23  C   UNL     1      11.882   4.994  -0.200  0.00  0.00    +0.020 A 
ATOM     24  C   UNL     1      13.001   4.243   0.113  0.00  0.00    +0.041 A 
ATOM     25  C   UNL     1      12.980   2.869  -0.051  0.00  0.00    +0.020 A 
ATOM     26  C   UNL     1      11.840   2.248  -0.527  0.00  0.00    +0.007 A 
ATOM     27 CL   UNL     1      14.432   5.024   0.710  0.00  0.00    -0.084 Cl
ENDBRANCH  20  21
BRANCH  20  28
ATOM     28  C   UNL     1       9.420   2.463  -2.857  0.00  0.00    +0.134 A 
ATOM     29  N   UNL     1       9.098   3.549  -3.506  0.00  0.00    -0.238 NA
ATOM     30  C   UNL     1       9.152   3.309  -4.824  0.00  0.00    +0.130 A 
ATOM     31  C   UNL     1       9.513   2.023  -4.999  0.00  0.00    +0.106 A 
ATOM     32  N   UNL     1       9.683   1.486  -3.751  0.00  0.00    -0.336 N 
ATOM     33  C   UNL     1      10.077   0.109  -3.443  0.00  0.00    +0.150 C 
ENDBRANCH  20  28
ENDBRANCH   3  20
TORSDOF 5
