REMARK  Name = ZINC33960688
REMARK  8 active torsions:
REMARK  status: ('A' for Active; 'I' for Inactive)
REMARK    1  A    between atoms: C_1  and  C_2
REMARK    2  A    between atoms: C_5  and  C_26
REMARK    3  A    between atoms: C_6  and  C_7
REMARK    4  A    between atoms: C_6  and  C_8
REMARK    5  A    between atoms: N_11  and  O_12
REMARK    6  A    between atoms: O_12  and  C_13
REMARK    7  A    between atoms: C_13  and  C_15
REMARK    8  A    between atoms: N_28  and  C_29
REMARK                            x       y       z     vdW  Elec       q    Type
REMARK                         _______ _______ _______ _____ _____    ______ ____
ROOT
ATOM      1  C   UNL     1      -0.033   1.525   0.018  0.00  0.00    +0.018 C 
ATOM      2  C   UNL     1      -0.011  -0.005   0.009  0.00  0.00    +0.015 C 
ATOM      3  C   UNL     1       0.724  -0.667  -1.196  0.00  0.00    +0.014 C 
ATOM      4  C   UNL     1       1.048  -2.100  -0.714  0.00  0.00    +0.018 C 
ATOM      5  C   UNL     1       0.468  -2.165   0.732  0.00  0.00    +0.058 C 
ATOM      6  C   UNL     1       0.724  -0.692   1.213  0.00  0.00    -0.010 C 
ATOM      7  C   UNL     1       2.214  -0.350   1.249  0.00  0.00    +0.013 C 
ATOM      8  C   UNL     1       0.040  -0.396   2.549  0.00  0.00    +0.013 C 
ATOM      9  C   UNL     1      -1.078  -2.126   0.530  0.00  0.00    +0.071 C 
ATOM     10  C   UNL     1      -1.381  -0.694   0.075  0.00  0.00    +0.066 C 
ATOM     11  N   UNL     1      -2.521  -0.185  -0.208  0.00  0.00    -0.083 NA
ENDROOT
BRANCH   5  12
ATOM     12  C   UNL     1       1.008  -3.261   1.614  0.00  0.00    +0.224 C 
ATOM     13  O   UNL     1       1.591  -2.982   2.641  0.00  0.00    -0.275 OA
ATOM     14  N   UNL     1       0.845  -4.552   1.262  0.00  0.00    -0.285 N 
ATOM     15  H   UNL     1       0.321  -4.778   0.477  0.00  0.00    +0.155 HD
BRANCH  14  16
ATOM     16  C   UNL     1       1.429  -5.567   2.029  0.00  0.00    +0.034 A 
ATOM     17  C   UNL     1       1.919  -6.710   1.412  0.00  0.00    +0.026 A 
ATOM     18  C   UNL     1       2.496  -7.710   2.171  0.00  0.00    +0.040 A 
ATOM     19  C   UNL     1       2.585  -7.573   3.546  0.00  0.00    +0.124 A 
ATOM     20  C   UNL     1       2.097  -6.433   4.163  0.00  0.00    +0.040 A 
ATOM     21  C   UNL     1       1.525  -5.429   3.408  0.00  0.00    +0.026 A 
ATOM     22  F   UNL     1       3.149  -8.552   4.287  0.00  0.00    -0.205 F 
ENDBRANCH  14  16
ENDBRANCH   5  12
BRANCH  11  23
ATOM     23  O   UNL     1      -3.695  -0.968  -0.091  0.00  0.00    -0.312 OA
BRANCH  23  24
ATOM     24  C   UNL     1      -4.826  -0.312  -0.419  0.00  0.00    +0.373 C 
ATOM     25  O   UNL     1      -4.774   0.849  -0.775  0.00  0.00    -0.242 OA
BRANCH  24  26
ATOM     26  C   UNL     1      -6.123  -1.001  -0.345  0.00  0.00    +0.146 A 
ATOM     27  C   UNL     1      -7.305  -0.353  -0.682  0.00  0.00    +0.033 A 
ATOM     28  C   UNL     1      -8.520  -1.074  -0.555  0.00  0.00    +0.018 A 
ATOM     29  C   UNL     1      -9.716  -0.548  -1.065  0.00  0.00    +0.011 A 
ATOM     30  C   UNL     1     -10.870  -1.272  -0.973  0.00  0.00    +0.001 A 
ATOM     31  C   UNL     1     -10.872  -2.523  -0.371  0.00  0.00    +0.004 A 
ATOM     32  C   UNL     1      -9.711  -3.052   0.155  0.00  0.00    +0.047 A 
ATOM     33  C   UNL     1      -8.527  -2.330   0.079  0.00  0.00    +0.139 A 
ATOM     34  O   UNL     1      -7.390  -2.820   0.630  0.00  0.00    -0.422 OA
ATOM     35  C   UNL     1      -6.220  -2.409   0.083  0.00  0.00    +0.352 A 
ATOM     36  O   UNL     1      -5.282  -3.172  -0.046  0.00  0.00    -0.244 OA
ENDBRANCH  24  26
ENDBRANCH  23  24
ENDBRANCH  11  23
TORSDOF 5
