REMARK  Name = ZINC39679053
REMARK  14 active torsions:
REMARK  status: ('A' for Active; 'I' for Inactive)
REMARK    1  A    between atoms: C_1  and  C_2
REMARK    2  A    between atoms: C_2  and  C_3
REMARK    3  A    between atoms: C_3  and  C_4
REMARK    4  A    between atoms: C_4  and  C_5
REMARK    5  A    between atoms: C_5  and  C_7
REMARK    6  A    between atoms: C_5  and  C_8
REMARK    7  A    between atoms: C_12  and  C_21
REMARK    8  A    between atoms: N_23  and  C_24
REMARK    9  A    between atoms: C_24  and  C_25
REMARK   10  A    between atoms: C_25  and  C_26
REMARK   11  A    between atoms: C_26  and  C_27
REMARK   12  A    between atoms: C_27  and  N_28
REMARK   13  A    between atoms: N_28  and  C_29
REMARK   14  A    between atoms: N_28  and  C_30
REMARK                            x       y       z     vdW  Elec       q    Type
REMARK                         _______ _______ _______ _____ _____    ______ ____
ROOT
ATOM      1  C   UNL     1      -2.959  -3.842   0.024  0.00  0.00    +0.218 C 
ATOM      2  O   UNL     1      -1.857  -4.345  -0.029  0.00  0.00    -0.275 OA
ATOM      3  N   UNL     1      -4.058  -4.619  -0.041  0.00  0.00    -0.300 N 
ATOM      4  C   UNL     1      -5.476  -4.191   0.001  0.00  0.00    +0.121 C 
ATOM      5  C   UNL     1      -6.188  -5.099  -1.027  0.00  0.00    +0.100 C 
ATOM      6  C   UNL     1      -5.296  -6.347  -1.132  0.00  0.00    -0.004 C 
ATOM      7  C   UNL     1      -4.122  -6.094  -0.175  0.00  0.00    +0.115 C 
ATOM      8  C   UNL     1      -6.071  -7.589  -0.703  0.00  0.00    -0.010 C 
ATOM      9  C   UNL     1      -5.182  -8.824  -0.871  0.00  0.00    -0.082 C 
ATOM     10  N   UNL     1      -4.767  -8.943  -2.274  0.00  0.00    +0.379 N 
ATOM     11  C   UNL     1      -3.943  -7.788  -2.652  0.00  0.00    -0.082 C 
ATOM     12  C   UNL     1      -4.781  -6.509  -2.559  0.00  0.00    -0.010 C 
ATOM     13  H   UNL     1      -4.232  -9.790  -2.394  0.00  0.00    -0.086 HD
ATOM     14  H   UNL     1      -5.585  -8.978  -2.864  0.00  0.00    -0.086 HD
ENDROOT
BRANCH   5  15
ATOM     15  C   UNL     1      -6.285  -4.406  -2.362  0.00  0.00    +0.218 C 
ATOM     16  O   UNL     1      -5.434  -3.607  -2.693  0.00  0.00    -0.275 OA
ATOM     17  N   UNL     1      -7.316  -4.674  -3.187  0.00  0.00    -0.315 N 
ATOM     18  H   UNL     1      -7.996  -5.313  -2.922  0.00  0.00    +0.149 HD
BRANCH  17  19
ATOM     19  C   UNL     1      -7.409  -4.000  -4.485  0.00  0.00    +0.104 C 
BRANCH  19  20
ATOM     20  C   UNL     1      -8.663  -4.480  -5.219  0.00  0.00    +0.017 C 
BRANCH  20  21
ATOM     21  C   UNL     1      -8.761  -3.776  -6.574  0.00  0.00    -0.017 C 
BRANCH  21  22
ATOM     22  C   UNL     1     -10.014  -4.256  -7.309  0.00  0.00    -0.080 C 
BRANCH  22  23
ATOM     23  N   UNL     1     -10.108  -3.580  -8.610  0.00  0.00    +0.376 N 
ATOM     24  C   UNL     1      -8.981  -3.990  -9.457  0.00  0.00    -0.097 C 
ATOM     25  C   UNL     1     -11.371  -3.949  -9.263  0.00  0.00    -0.097 C 
ATOM     26  H   UNL     1     -10.080  -2.581  -8.473  0.00  0.00    -0.083 HD
ENDBRANCH  22  23
ENDBRANCH  21  22
ENDBRANCH  20  21
ENDBRANCH  19  20
ENDBRANCH  17  19
ENDBRANCH   5  15
BRANCH   1  27
ATOM     27  C   UNL     1      -3.099  -2.348   0.161  0.00  0.00    +0.072 C 
ATOM     28  C   UNL     1      -3.857  -2.023   1.450  0.00  0.00    +0.017 C 
BRANCH  27  29
ATOM     29  C   UNL     1      -1.710  -1.708   0.211  0.00  0.00    +0.012 C 
BRANCH  29  30
ATOM     30  C   UNL     1      -1.851  -0.184   0.225  0.00  0.00    +0.000 C 
BRANCH  30  32
ATOM     31  C   UNL     1      -0.603   1.979   0.288  0.00  0.00    +0.004 C 
ATOM     32  C   UNL     1      -0.462   0.456   0.274  0.00  0.00    -0.003 C 
ENDBRANCH  30  32
ENDBRANCH  29  30
ENDBRANCH  27  29
ENDBRANCH   1  27
TORSDOF 10
