REMARK  Name = ZINC35709666
REMARK  12 active torsions:
REMARK  status: ('A' for Active; 'I' for Inactive)
REMARK    1  A    between atoms: C_1  and  C_2
REMARK    2  A    between atoms: C_3  and  C_32
REMARK    3  A    between atoms: C_4  and  C_24
REMARK    4  A    between atoms: C_7  and  C_12
REMARK    5  A    between atoms: C_13  and  N_15
REMARK    6  A    between atoms: C_21  and  C_23
REMARK    7  A    between atoms: C_28  and  O_30
REMARK    8  A    between atoms: O_30  and  C_31
REMARK    9  A    between atoms: C_32  and  O_34
REMARK   10  A    between atoms: O_34  and  C_35
REMARK   11  A    between atoms: C_35  and  C_36
REMARK   12  A    between atoms: C_35  and  C_37
REMARK                            x       y       z     vdW  Elec       q    Type
REMARK                         _______ _______ _______ _____ _____    ______ ____
ROOT
ATOM      1  C   UNL     1       0.126  -0.304   2.266  0.00  0.00    +0.066 C 
ATOM      2  C   UNL     1       0.257  -1.489   1.345  0.00  0.00    +0.053 C 
ATOM      3  C   UNL     1      -0.872  -2.184   0.956  0.00  0.00    +0.082 C 
ATOM      4  C   UNL     1      -0.689  -3.366   0.030  0.00  0.00    +0.150 C 
ATOM      5  N   UNL     1       0.701  -3.687  -0.390  0.00  0.00    -0.267 N 
ATOM      6  C   UNL     1       1.101  -4.713  -1.224  0.00  0.00    +0.048 C 
ATOM      7  C   UNL     1       2.422  -4.832  -1.481  0.00  0.00    +0.072 C 
ATOM      8  S   UNL     1       3.105  -3.484  -0.537  0.00  0.00    -0.060 S 
ATOM      9  C   UNL     1       1.681  -2.874   0.108  0.00  0.00    +0.166 C 
ATOM     10  N   UNL     1       1.452  -1.854   0.909  0.00  0.00    -0.230 NA
ENDROOT
BRANCH   4  11
ATOM     11  C   UNL     1      -1.260  -4.582   0.712  0.00  0.00    -0.019 A 
ATOM     12  C   UNL     1      -0.598  -5.146   1.787  0.00  0.00    +0.006 A 
ATOM     13  C   UNL     1      -1.119  -6.262   2.415  0.00  0.00    +0.004 A 
ATOM     14  C   UNL     1      -2.303  -6.817   1.969  0.00  0.00    +0.045 A 
ATOM     15  C   UNL     1      -2.969  -6.254   0.890  0.00  0.00    +0.120 A 
ATOM     16  C   UNL     1      -2.447  -5.130   0.266  0.00  0.00    +0.051 A 
BRANCH  15  17
ATOM     17  O   UNL     1      -4.133  -6.798   0.450  0.00  0.00    -0.495 OA
ATOM     18  C   UNL     1      -4.675  -7.878   1.214  0.00  0.00    +0.277 C 
ENDBRANCH  15  17
ENDBRANCH   4  11
BRANCH   6  19
ATOM     19  C   UNL     1       0.125  -5.641  -1.811  0.00  0.00    +0.091 C 
ATOM     20  C   UNL     1       0.549  -6.715  -2.504  0.00  0.00    +0.241 C 
ATOM     21  O   UNL     1       1.871  -7.010  -2.555  0.00  0.00    -0.271 OA
BRANCH  20  22
ATOM     22  N   UNL     1      -0.365  -7.518  -3.165  0.00  0.00    -0.295 N 
ATOM     23  C   UNL     1      -1.616  -6.952  -3.689  0.00  0.00    +0.127 C 
ATOM     24  C   UNL     1      -1.710  -7.273  -5.185  0.00  0.00    +0.126 C 
ATOM     25  N   UNL     1      -1.447  -8.707  -5.376  0.00  0.00    -0.299 N 
ATOM     26  C   UNL     1      -0.196  -9.272  -4.852  0.00  0.00    +0.126 C 
ATOM     27  C   UNL     1      -0.099  -8.950  -3.360  0.00  0.00    +0.127 C 
ATOM     28  C   UNL     1      -2.337  -9.488  -6.019  0.00  0.00    +0.213 C 
ATOM     29  O   UNL     1      -3.316  -8.993  -6.536  0.00  0.00    -0.276 OA
ATOM     30  C   UNL     1      -2.115 -10.977  -6.096  0.00  0.00    +0.109 C 
ENDBRANCH  20  22
ENDBRANCH   6  19
BRANCH   3  31
ATOM     31  C   UNL     1      -2.144  -1.807   1.404  0.00  0.00    +0.339 C 
ATOM     32  O   UNL     1      -2.268  -0.851   2.150  0.00  0.00    -0.245 OA
BRANCH  31  33
ATOM     33  O   UNL     1      -3.233  -2.502   1.009  0.00  0.00    -0.459 OA
BRANCH  33  34
ATOM     34  C   UNL     1      -4.499  -2.061   1.505  0.00  0.00    +0.171 C 
ATOM     35  C   UNL     1      -5.094  -1.032   0.542  0.00  0.00    +0.052 C 
ATOM     36  C   UNL     1      -5.445  -3.258   1.622  0.00  0.00    +0.052 C 
ENDBRANCH  33  34
ENDBRANCH  31  33
ENDBRANCH   3  31
TORSDOF 7
