REMARK  Name = ZINC25029526
REMARK  7 active torsions:
REMARK  status: ('A' for Active; 'I' for Inactive)
REMARK    1  A    between atoms: C_1  and  N_2
REMARK    2  A    between atoms: N_2  and  C_3
REMARK    3  A    between atoms: C_6  and  C_11
REMARK    4  A    between atoms: C_11  and  O_12
REMARK    5  A    between atoms: O_12  and  C_13
REMARK    6  A    between atoms: C_13  and  C_15
REMARK    7  A    between atoms: C_21  and  C_23
REMARK                            x       y       z     vdW  Elec       q    Type
REMARK                         _______ _______ _______ _____ _____    ______ ____
ROOT
ATOM      1  C   UNL     1       1.210   1.902  -0.032  0.00  0.00    +0.185 C 
ATOM      2  C   UNL     1       1.205   2.681  -1.364  0.00  0.00    +0.035 C 
ATOM      3  C   UNL     1       2.673   2.551  -1.849  0.00  0.00    +0.021 C 
ATOM      4  C   UNL     1       3.032   1.121  -1.373  0.00  0.00    +0.109 C 
ATOM      5  N   UNL     1       2.350   0.974  -0.074  0.00  0.00    -0.288 N 
ATOM      6  C   UNL     1       2.711   0.128   0.911  0.00  0.00    +0.222 C 
ATOM      7  O   UNL     1       2.123   0.147   1.972  0.00  0.00    -0.275 OA
ENDROOT
BRANCH   6   8
ATOM      8  C   UNL     1       3.844  -0.841   0.695  0.00  0.00    +0.048 C 
ATOM      9  C   UNL     1       5.167  -0.074   0.638  0.00  0.00    +0.019 C 
ATOM     10  C   UNL     1       6.318  -1.058   0.419  0.00  0.00    -0.009 C 
ATOM     11  C   UNL     1       6.359  -2.061   1.573  0.00  0.00    +0.007 C 
ATOM     12  C   UNL     1       5.037  -2.828   1.630  0.00  0.00    -0.009 C 
ATOM     13  C   UNL     1       3.885  -1.844   1.850  0.00  0.00    +0.019 C 
ATOM     14  C   UNL     1       4.824  -3.576   0.312  0.00  0.00    +0.007 C 
ATOM     15  C   UNL     1       4.783  -2.573  -0.842  0.00  0.00    -0.009 C 
ATOM     16  C   UNL     1       6.105  -1.806  -0.899  0.00  0.00    +0.007 C 
ATOM     17  C   UNL     1       3.632  -1.589  -0.623  0.00  0.00    +0.019 C 
ENDBRANCH   6   8
BRANCH   1  18
ATOM     18  C   UNL     1      -0.075   1.129   0.115  0.00  0.00    +0.328 C 
ATOM     19  O   UNL     1      -0.050  -0.076   0.192  0.00  0.00    -0.249 OA
BRANCH  18  20
ATOM     20  O   UNL     1      -1.249   1.780   0.154  0.00  0.00    -0.455 OA
BRANCH  20  21
ATOM     21  C   UNL     1      -2.447   0.971   0.291  0.00  0.00    +0.308 C 
BRANCH  21  27
ATOM     22  C   UNL     1      -6.824   4.484   2.727  0.00  0.00    +0.132 C 
ATOM     23  N   UNL     1      -5.646   3.613   2.698  0.00  0.00    -0.306 N 
ATOM     24  C   UNL     1      -4.967   3.258   3.947  0.00  0.00    +0.132 C 
ATOM     25  C   UNL     1      -5.177   3.126   1.495  0.00  0.00    +0.222 A 
ATOM     26  N   UNL     1      -4.111   2.330   1.469  0.00  0.00    -0.196 NA
ATOM     27  C   UNL     1      -3.658   1.867   0.317  0.00  0.00    +0.173 A 
ATOM     28  N   UNL     1      -4.267   2.185  -0.812  0.00  0.00    -0.196 NA
ATOM     29  C   UNL     1      -5.337   2.976  -0.793  0.00  0.00    +0.217 A 
ATOM     30  N   UNL     1      -5.792   3.447   0.362  0.00  0.00    -0.181 NA
ATOM     31  N   UNL     1      -5.972   3.307  -1.973  0.00  0.00    -0.327 N 
ATOM     32  H   UNL     1      -6.856   3.961  -1.957  0.00  0.00    +0.145 HD
ATOM     33  H   UNL     1      -5.594   2.917  -2.929  0.00  0.00    +0.145 HD
ENDBRANCH  21  27
ENDBRANCH  20  21
ENDBRANCH  18  20
ENDBRANCH   1  18
TORSDOF 5
