REMARK  Name = ZINC01038047
REMARK  4 active torsions:
REMARK  status: ('A' for Active; 'I' for Inactive)
REMARK    1  A    between atoms: C_10  and  C_13
REMARK    2  A    between atoms: C_13  and  C_14
REMARK    3  A    between atoms: N_16  and  N_17
REMARK    4  A    between atoms: N_20  and  C_21
REMARK                            x       y       z     vdW  Elec       q    Type
REMARK                         _______ _______ _______ _____ _____    ______ ____
ROOT
ATOM      1  C   UNL     1       4.810  -1.690   2.836  0.00  0.00    +0.231 C 
ATOM      2  O   UNL     1       5.757  -1.628   2.081  0.00  0.00    -0.274 OA
ATOM      3  N   UNL     1       4.972  -1.417   4.145  0.00  0.00    -0.233 N 
ATOM      4  H   UNL     1       4.214  -1.467   4.749  0.00  0.00    +0.173 HD
ENDROOT
BRANCH   3   5
ATOM      5  N   UNL     1       6.235  -1.061   4.636  0.00  0.00    -0.218 N 
ATOM      6  C   UNL     1       6.397  -0.788   5.945  0.00  0.00    +0.320 C 
ATOM      7  O   UNL     1       7.494  -0.479   6.371  0.00  0.00    -0.251 OA
ATOM      8  N   UNL     1       5.344  -0.858   6.784  0.00  0.00    -0.268 N 
ATOM      9  H   UNL     1       6.993  -1.011   4.032  0.00  0.00    +0.174 HD
ATOM     10  H   UNL     1       4.457  -1.038   6.434  0.00  0.00    +0.156 HD
BRANCH   8  11
ATOM     11  C   UNL     1       5.530  -0.670   8.158  0.00  0.00    +0.035 A 
ATOM     12  C   UNL     1       4.771  -1.393   9.068  0.00  0.00    +0.025 A 
ATOM     13  C   UNL     1       4.957  -1.206  10.424  0.00  0.00    +0.022 A 
ATOM     14  C   UNL     1       5.898  -0.298  10.876  0.00  0.00    +0.041 A 
ATOM     15  C   UNL     1       6.655   0.425   9.971  0.00  0.00    +0.022 A 
ATOM     16  C   UNL     1       6.478   0.237   8.614  0.00  0.00    +0.025 A 
ATOM     17 CL   UNL     1       6.128  -0.064  12.581  0.00  0.00    -0.084 Cl
ENDBRANCH   8  11
ENDBRANCH   3   5
BRANCH   1  18
ATOM     18  C   UNL     1       3.451  -2.073   2.308  0.00  0.00    +0.121 C 
BRANCH  18  28
ATOM     19  C   UNL     1      -0.005   1.437   0.021  0.00  0.00    +0.002 A 
ATOM     20  C   UNL     1       1.181   2.148   0.016  0.00  0.00    +0.001 A 
ATOM     21  C   UNL     1       2.388   1.474  -0.007  0.00  0.00    +0.016 A 
ATOM     22  C   UNL     1       2.405   0.089  -0.022  0.00  0.00    +0.030 A 
ATOM     23  C   UNL     1       1.213  -0.636  -0.011  0.00  0.00    +0.047 A 
ATOM     24  C   UNL     1       0.006   0.056   0.007  0.00  0.00    +0.024 A 
ATOM     25  N   UNL     1       1.198  -2.027  -0.002  0.00  0.00    -0.284 N 
ATOM     26  C   UNL     1       2.215  -2.830   0.293  0.00  0.00    +0.231 C 
ATOM     27  O   UNL     1       2.069  -4.025   0.145  0.00  0.00    -0.274 OA
ATOM     28  C   UNL     1       3.542  -2.329   0.802  0.00  0.00    +0.146 C 
ATOM     29  S   UNL     1       3.942  -0.779  -0.062  0.00  0.00    -0.110 S 
ATOM     30  H   UNL     1       0.360  -2.455  -0.236  0.00  0.00    +0.155 HD
ENDBRANCH  18  28
ENDBRANCH   1  18
TORSDOF 4
