REMARK  Name = ZINC39634717
REMARK  13 active torsions:
REMARK  status: ('A' for Active; 'I' for Inactive)
REMARK    1  A    between atoms: C_1  and  C_2
REMARK    2  A    between atoms: C_2  and  C_3
REMARK    3  A    between atoms: C_2  and  N_4
REMARK    4  A    between atoms: N_4  and  C_5
REMARK    5  A    between atoms: N_4  and  C_30
REMARK    6  A    between atoms: C_5  and  C_6
REMARK    7  A    between atoms: C_6  and  N_7
REMARK    8  A    between atoms: C_8  and  C_10
REMARK    9  A    between atoms: C_21  and  C_23
REMARK   10  A    between atoms: C_23  and  C_24
REMARK   11  A    between atoms: C_24  and  C_25
REMARK   12  A    between atoms: C_30  and  C_31
REMARK   13  A    between atoms: C_30  and  C_32
REMARK                            x       y       z     vdW  Elec       q    Type
REMARK                         _______ _______ _______ _____ _____    ______ ____
ROOT
ATOM      1  C   UNL     1      -1.335   0.750   6.423  0.00  0.00    +0.100 C 
ATOM      2  C   UNL     1      -2.463   1.739   6.053  0.00  0.00    +0.121 C 
ATOM      3  N   UNL     1      -2.331   2.842   7.034  0.00  0.00    -0.300 N 
ATOM      4  C   UNL     1      -0.868   3.032   7.180  0.00  0.00    +0.115 C 
ATOM      5  C   UNL     1      -0.290   1.603   7.162  0.00  0.00    -0.004 C 
ATOM      6  C   UNL     1       1.038   1.581   6.410  0.00  0.00    -0.010 C 
ATOM      7  C   UNL     1       2.077   2.387   7.194  0.00  0.00    -0.082 C 
ATOM      8  N   UNL     1       2.241   1.807   8.532  0.00  0.00    +0.379 N 
ATOM      9  C   UNL     1       0.984   1.917   9.283  0.00  0.00    -0.082 C 
ATOM     10  C   UNL     1      -0.102   1.091   8.587  0.00  0.00    -0.010 C 
ATOM     11  C   UNL     1      -3.318   3.520   7.652  0.00  0.00    +0.216 C 
ATOM     12  O   UNL     1      -3.046   4.405   8.436  0.00  0.00    -0.276 OA
ATOM     13  H   UNL     1       2.496   0.835   8.447  0.00  0.00    -0.086 HD
ATOM     14  H   UNL     1       2.969   2.302   9.025  0.00  0.00    -0.086 HD
ENDROOT
BRANCH   1  16
ATOM     15  N   UNL     1      -0.201  -1.089   5.219  0.00  0.00    -0.317 N 
ATOM     16  C   UNL     1      -0.736   0.148   5.179  0.00  0.00    +0.218 C 
ATOM     17  O   UNL     1      -0.735   0.775   4.141  0.00  0.00    -0.275 OA
ATOM     18  H   UNL     1      -0.202  -1.591   6.049  0.00  0.00    +0.149 HD
BRANCH  15  19
ATOM     19  C   UNL     1       0.381  -1.675   4.009  0.00  0.00    +0.085 C 
BRANCH  19  20
ATOM     20  C   UNL     1       0.913  -3.074   4.325  0.00  0.00    -0.059 C 
BRANCH  20  21
ATOM     21  N   UNL     1       1.524  -3.649   3.119  0.00  0.00    +0.384 N 
ATOM     22  H   UNL     1       0.854  -3.639   2.365  0.00  0.00    -0.081 HD
BRANCH  21  24
ATOM     23  C   UNL     1       0.712  -5.854   3.811  0.00  0.00    -0.014 C 
ATOM     24  C   UNL     1       1.933  -5.034   3.391  0.00  0.00    -0.074 C 
ATOM     25  C   UNL     1       2.545  -5.642   2.127  0.00  0.00    -0.014 C 
ENDBRANCH  21  24
BRANCH  21  26
ATOM     26  C   UNL     1       2.701  -2.856   2.740  0.00  0.00    -0.074 C 
ATOM     27  C   UNL     1       3.914  -3.327   3.544  0.00  0.00    -0.014 C 
ATOM     28  C   UNL     1       2.978  -3.038   1.246  0.00  0.00    -0.014 C 
ENDBRANCH  21  26
ENDBRANCH  20  21
ENDBRANCH  19  20
ENDBRANCH  15  19
ENDBRANCH   1  16
BRANCH  11  29
ATOM     29  C   UNL     1      -4.758   3.178   7.371  0.00  0.00    +0.096 C 
BRANCH  29  30
ATOM     30  C   UNL     1      -5.669   4.089   8.196  0.00  0.00    +0.013 C 
BRANCH  30  31
ATOM     31  C   UNL     1      -7.132   3.742   7.910  0.00  0.00    -0.011 C 
ATOM     32  C   UNL     1      -7.492   4.125   6.460  0.00  0.00    +0.003 C 
ATOM     33  C   UNL     1      -8.948   4.646   6.556  0.00  0.00    +0.000 C 
ATOM     34  C   UNL     1      -8.947   5.418   7.899  0.00  0.00    +0.000 C 
ATOM     35  C   UNL     1      -8.057   4.564   8.825  0.00  0.00    +0.003 C 
ENDBRANCH  30  31
ENDBRANCH  29  30
ENDBRANCH  11  29
TORSDOF 9
