REMARK  Name = ZINC09542352
REMARK  7 active torsions:
REMARK  status: ('A' for Active; 'I' for Inactive)
REMARK    1  A    between atoms: C_1  and  C_2
REMARK    2  A    between atoms: C_7  and  C_8
REMARK    3  A    between atoms: N_12  and  C_13
REMARK    4  A    between atoms: C_13  and  C_14
REMARK    5  A    between atoms: C_20  and  C_22
REMARK    6  A    between atoms: C_22  and  S_23
REMARK    7  A    between atoms: S_23  and  C_26
REMARK                            x       y       z     vdW  Elec       q    Type
REMARK                         _______ _______ _______ _____ _____    ______ ____
ROOT
ATOM      1  C   UNL     1       4.341  -0.447   8.124  0.00  0.00    +0.044 C 
ATOM      2  C   UNL     1       3.001   0.234   8.019  0.00  0.00    -0.045 A 
ATOM      3  C   UNL     1       2.353   0.637   9.178  0.00  0.00    +0.005 A 
ATOM      4  C   UNL     1       1.122   1.261   9.084  0.00  0.00    +0.017 A 
ATOM      5  C   UNL     1       0.562   1.471   7.848  0.00  0.00    +0.041 A 
ATOM      6  C   UNL     1       1.193   1.074   6.647  0.00  0.00    +0.083 A 
ATOM      7  C   UNL     1       2.449   0.439   6.782  0.00  0.00    -0.021 A 
ATOM      8  C   UNL     1       3.189  -0.017   5.551  0.00  0.00    +0.046 C 
ATOM      9  N   UNL     1       0.513   1.345   5.512  0.00  0.00    -0.224 NA
ATOM     10  C   UNL     1      -0.653   1.949   5.515  0.00  0.00    +0.168 A 
ATOM     11  S   UNL     1      -0.944   2.206   7.260  0.00  0.00    -0.052 S 
ATOM     12  N   UNL     1      -1.456   2.294   4.440  0.00  0.00    -0.245 N 
ATOM     13  C   UNL     1      -1.057   2.011   3.184  0.00  0.00    +0.243 C 
ATOM     14  O   UNL     1      -0.046   1.368   2.998  0.00  0.00    -0.273 OA
ENDROOT
BRANCH  12  15
ATOM     15  C   UNL     1      -2.737   2.965   4.668  0.00  0.00    +0.150 C 
BRANCH  15  16
ATOM     16  C   UNL     1      -3.804   1.934   4.933  0.00  0.00    -0.030 A 
ATOM     17  C   UNL     1      -4.602   1.484   3.897  0.00  0.00    +0.005 A 
ATOM     18  C   UNL     1      -5.578   0.535   4.139  0.00  0.00    +0.000 A 
ATOM     19  C   UNL     1      -5.762   0.043   5.418  0.00  0.00    +0.000 A 
ATOM     20  C   UNL     1      -4.968   0.497   6.454  0.00  0.00    +0.000 A 
ATOM     21  C   UNL     1      -3.989   1.442   6.211  0.00  0.00    +0.005 A 
ENDBRANCH  15  16
ENDBRANCH  12  15
BRANCH  13  22
ATOM     22  C   UNL     1      -1.868   2.495   2.009  0.00  0.00    +0.267 C 
BRANCH  22  23
ATOM     23  S   UNL     1      -1.001   2.091   0.468  0.00  0.00    +0.005 S 
ATOM     24  O   UNL     1      -0.978   0.683   0.274  0.00  0.00    -0.169 OA
ATOM     25  O   UNL     1       0.191   2.857   0.362  0.00  0.00    -0.169 OA
BRANCH  23  26
ATOM     26  C   UNL     1      -2.045   2.704  -0.812  0.00  0.00    +0.089 A 
ATOM     27  C   UNL     1      -3.017   1.889  -1.361  0.00  0.00    +0.027 A 
ATOM     28  C   UNL     1      -3.838   2.372  -2.363  0.00  0.00    +0.002 A 
ATOM     29  C   UNL     1      -3.681   3.666  -2.822  0.00  0.00    +0.000 A 
ATOM     30  C   UNL     1      -2.705   4.479  -2.277  0.00  0.00    +0.002 A 
ATOM     31  C   UNL     1      -1.887   3.998  -1.272  0.00  0.00    +0.027 A 
ENDBRANCH  23  26
ENDBRANCH  22  23
ENDBRANCH  13  22
TORSDOF 5
