REMARK  Name = ZINC18157641
REMARK  4 active torsions:
REMARK  status: ('A' for Active; 'I' for Inactive)
REMARK    1  A    between atoms: C_4  and  N_7
REMARK    2  A    between atoms: C_12  and  C_25
REMARK    3  A    between atoms: C_27  and  N_32
REMARK    4  A    between atoms: C_30  and  O_31
REMARK                            x       y       z     vdW  Elec       q    Type
REMARK                         _______ _______ _______ _____ _____    ______ ____
ROOT
ATOM      1  N   UNL     1       4.100  -1.871   2.798  0.00  0.00    -0.209 N 
ATOM      2  C   UNL     1       4.100  -2.909   1.927  0.00  0.00    +0.232 C 
ATOM      3  O   UNL     1       3.414  -3.907   1.981  0.00  0.00    -0.274 OA
ATOM      4  C   UNL     1       5.120  -2.571   0.886  0.00  0.00    +0.110 C 
ATOM      5  C   UNL     1       5.684  -3.653   0.046  0.00  0.00    +0.075 C 
ATOM      6  C   UNL     1       6.857  -4.365   0.615  0.00  0.00    +0.033 A 
ATOM      7  C   UNL     1       7.603  -4.036   1.686  0.00  0.00    +0.088 A 
ATOM      8  N   UNL     1       8.653  -4.888   1.945  0.00  0.00    -0.311 N 
ATOM      9  C   UNL     1       8.852  -5.968   1.167  0.00  0.00    +0.289 A 
ATOM     10  S   UNL     1       7.614  -5.861   0.034  0.00  0.00    -0.030 S 
ATOM     11  O   UNL     1       9.721  -6.817   1.260  0.00  0.00    -0.260 OA
ATOM     12  S   UNL     1       7.214  -2.619   2.679  0.00  0.00    -0.093 S 
ATOM     13  C   UNL     1       6.101  -1.655   1.629  0.00  0.00    +0.152 C 
ATOM     14  C   UNL     1       5.104  -0.993   2.599  0.00  0.00    +0.240 C 
ATOM     15  O   UNL     1       5.203   0.110   3.092  0.00  0.00    -0.274 OA
ATOM     16  H   UNL     1       9.249  -4.710   2.689  0.00  0.00    +0.170 HD
ENDROOT
BRANCH   1  20
ATOM     17  C   UNL     1       1.248  -1.423   5.804  0.00  0.00    +0.000 A 
ATOM     18  C   UNL     1       2.251  -0.482   5.659  0.00  0.00    +0.002 A 
ATOM     19  C   UNL     1       3.198  -0.628   4.664  0.00  0.00    +0.024 A 
ATOM     20  C   UNL     1       3.141  -1.720   3.809  0.00  0.00    +0.044 A 
ATOM     21  C   UNL     1       2.133  -2.663   3.957  0.00  0.00    +0.024 A 
ATOM     22  C   UNL     1       1.189  -2.512   4.954  0.00  0.00    +0.002 A 
ENDBRANCH   1  20
BRANCH   5  23
ATOM     23  C   UNL     1       4.599  -4.668  -0.208  0.00  0.00    +0.005 A 
ATOM     24  C   UNL     1       4.409  -5.712   0.676  0.00  0.00    +0.040 A 
ATOM     25  C   UNL     1       3.414  -6.644   0.444  0.00  0.00    +0.127 A 
ATOM     26  C   UNL     1       2.606  -6.532  -0.673  0.00  0.00    +0.036 A 
ATOM     27  C   UNL     1       2.792  -5.489  -1.560  0.00  0.00    +0.048 A 
ATOM     28  C   UNL     1       3.787  -4.550  -1.326  0.00  0.00    +0.121 A 
BRANCH  25  29
ATOM     29  N   UNL     1       3.213  -7.762   1.392  0.00  0.00    +0.056 N 
ATOM     30  O   UNL     1       3.919  -7.861   2.368  0.00  0.00    -0.126 OA
ATOM     31  O   UNL     1       2.343  -8.577   1.190  0.00  0.00    -0.126 OA
ENDBRANCH  25  29
BRANCH  28  32
ATOM     32  O   UNL     1       3.968  -3.520  -2.194  0.00  0.00    -0.506 OA
ATOM     33  H   UNL     1       4.589  -3.714  -2.910  0.00  0.00    +0.292 HD
ENDBRANCH  28  32
ENDBRANCH   5  23
TORSDOF 4
