REMARK  Name = ZINC63980509
REMARK  13 active torsions:
REMARK  status: ('A' for Active; 'I' for Inactive)
REMARK    1  A    between atoms: C_1  and  C_2
REMARK    2  A    between atoms: C_2  and  C_3
REMARK    3  A    between atoms: C_3  and  C_5
REMARK    4  A    between atoms: C_3  and  N_6
REMARK    5  A    between atoms: N_6  and  C_7
REMARK    6  A    between atoms: N_13  and  C_31
REMARK    7  A    between atoms: C_14  and  C_27
REMARK    8  A    between atoms: C_16  and  N_18
REMARK    9  A    between atoms: C_19  and  C_21
REMARK   10  A    between atoms: C_27  and  O_29
REMARK   11  A    between atoms: O_29  and  C_30
REMARK   12  A    between atoms: C_31  and  C_32
REMARK   13  A    between atoms: C_32  and  C_33
REMARK                            x       y       z     vdW  Elec       q    Type
REMARK                         _______ _______ _______ _____ _____    ______ ____
ROOT
ATOM      1  C   UNL     1       0.585   0.033  -3.677  0.00  0.00    +0.044 A 
ATOM      2  C   UNL     1      -0.137   0.404  -4.811  0.00  0.00    +0.033 A 
ATOM      3  C   UNL     1       0.539   0.536  -6.009  0.00  0.00    +0.015 A 
ATOM      4  C   UNL     1       1.906   0.302  -6.064  0.00  0.00    +0.105 A 
ATOM      5  N   UNL     1       2.558  -0.050  -4.957  0.00  0.00    -0.348 N 
ATOM      6  C   UNL     1       1.950  -0.181  -3.796  0.00  0.00    +0.107 A 
ATOM      7  N   UNL     1       2.404   0.486  -7.353  0.00  0.00    -0.301 N 
ATOM      8  C   UNL     1       1.322   0.873  -8.262  0.00  0.00    +0.208 C 
ATOM      9  C   UNL     1       0.057   0.915  -7.389  0.00  0.00    +0.138 C 
ATOM     10  H   UNL     1       3.514  -0.211  -5.006  0.00  0.00    +0.167 HD
ENDROOT
BRANCH   9  11
ATOM     11  N   UNL     1      -0.513   2.265  -7.379  0.00  0.00    -0.306 N 
ATOM     12  C   UNL     1      -1.810   2.447  -7.059  0.00  0.00    +0.219 C 
ATOM     13  O   UNL     1      -2.505   1.493  -6.780  0.00  0.00    -0.275 OA
ATOM     14  H   UNL     1       0.043   3.028  -7.602  0.00  0.00    +0.149 HD
BRANCH  12  15
ATOM     15  C   UNL     1      -2.396   3.835  -7.049  0.00  0.00    +0.103 C 
ATOM     16  C   UNL     1      -3.903   3.784  -6.699  0.00  0.00    +0.043 C 
ATOM     17  C   UNL     1      -4.497   4.837  -7.669  0.00  0.00    +0.160 C 
ATOM     18  O   UNL     1      -3.717   4.664  -8.872  0.00  0.00    -0.379 OA
ATOM     19  C   UNL     1      -2.353   4.449  -8.462  0.00  0.00    +0.172 C 
ENDBRANCH  12  15
ENDBRANCH   9  11
BRANCH   1  20
ATOM     20  N   UNL     1      -0.055  -0.114  -2.441  0.00  0.00    -0.340 N 
ATOM     21  H   UNL     1      -1.010   0.038  -2.368  0.00  0.00    +0.146 HD
BRANCH  20  22
ATOM     22  C   UNL     1       0.718  -0.497  -1.257  0.00  0.00    +0.067 C 
ATOM     23  C   UNL     1       0.849  -2.021  -1.205  0.00  0.00    +0.028 C 
BRANCH  22  25
ATOM     24  C   UNL     1      -0.019   1.526   0.010  0.00  0.00    +0.005 C 
ATOM     25  C   UNL     1       0.002  -0.004   0.002  0.00  0.00    +0.018 C 
ENDBRANCH  22  25
ENDBRANCH  20  22
ENDBRANCH   1  20
BRANCH   8  26
ATOM     26  C   UNL     1       1.597   2.232  -8.854  0.00  0.00    +0.330 C 
ATOM     27  O   UNL     1       2.394   2.971  -8.325  0.00  0.00    -0.249 OA
BRANCH  26  28
ATOM     28  O   UNL     1       0.958   2.621  -9.968  0.00  0.00    -0.467 OA
ATOM     29  C   UNL     1       1.268   3.921 -10.473  0.00  0.00    +0.280 C 
ENDBRANCH  26  28
ENDBRANCH   8  26
BRANCH   7  30
ATOM     30  C   UNL     1       3.806   0.317  -7.742  0.00  0.00    +0.112 C 
BRANCH  30  31
ATOM     31  C   UNL     1       4.045  -1.131  -8.173  0.00  0.00    +0.052 C 
BRANCH  31  32
ATOM     32  C   UNL     1       5.487  -1.305  -8.573  0.00  0.00    -0.040 C 
ATOM     33  C   UNL     1       6.498  -1.755  -7.795  0.00  0.00    -0.001 A 
ATOM     34  C   UNL     1       6.556  -2.199  -6.398  0.00  0.00    +0.010 A 
ATOM     35  C   UNL     1       7.741  -2.602  -5.886  0.00  0.00    +0.001 A 
ATOM     36  C   UNL     1       8.913  -2.605  -6.655  0.00  0.00    +0.002 A 
ATOM     37  C   UNL     1       8.940  -2.211  -7.946  0.00  0.00    +0.026 A 
ATOM     38  C   UNL     1       7.750  -1.768  -8.586  0.00  0.00    +0.043 A 
ATOM     39  N   UNL     1       7.521  -1.344  -9.805  0.00  0.00    -0.380 N 
ATOM     40  C   UNL     1       6.096  -1.018  -9.927  0.00  0.00    +0.144 C 
ATOM     41  H   UNL     1       8.183  -1.262 -10.510  0.00  0.00    +0.160 HD
ENDBRANCH  31  32
ENDBRANCH  30  31
ENDBRANCH   7  30
TORSDOF 10
