REMARK  Name = ZINC39674167
REMARK  11 active torsions:
REMARK  status: ('A' for Active; 'I' for Inactive)
REMARK    1  A    between atoms: C_1  and  C_2
REMARK    2  A    between atoms: C_2  and  C_3
REMARK    3  A    between atoms: C_3  and  C_4
REMARK    4  A    between atoms: C_4  and  C_6
REMARK    5  A    between atoms: C_4  and  C_7
REMARK    6  A    between atoms: C_11  and  C_20
REMARK    7  A    between atoms: N_22  and  C_23
REMARK    8  A    between atoms: C_23  and  C_25
REMARK    9  A    between atoms: C_23  and  C_26
REMARK   10  A    between atoms: C_27  and  C_33
REMARK   11  A    between atoms: C_30  and  C_32
REMARK                            x       y       z     vdW  Elec       q    Type
REMARK                         _______ _______ _______ _____ _____    ______ ____
ROOT
ATOM      1  C   UNL     1       2.218  -2.752  -3.119  0.00  0.00    +0.218 C 
ATOM      2  O   UNL     1       2.745  -2.076  -3.978  0.00  0.00    -0.275 OA
ATOM      3  N   UNL     1       2.211  -4.096  -3.229  0.00  0.00    -0.300 N 
ATOM      4  C   UNL     1       1.617  -5.080  -2.295  0.00  0.00    +0.121 C 
ATOM      5  C   UNL     1       0.994  -6.159  -3.209  0.00  0.00    +0.100 C 
ATOM      6  C   UNL     1       1.773  -6.051  -4.530  0.00  0.00    -0.004 C 
ATOM      7  C   UNL     1       2.790  -4.921  -4.316  0.00  0.00    +0.115 C 
ATOM      8  C   UNL     1       0.828  -5.692  -5.673  0.00  0.00    -0.010 C 
ATOM      9  C   UNL     1       1.615  -5.647  -6.985  0.00  0.00    -0.082 C 
ATOM     10  N   UNL     1       2.237  -6.954  -7.230  0.00  0.00    +0.379 N 
ATOM     11  C   UNL     1       3.213  -7.250  -6.175  0.00  0.00    -0.082 C 
ATOM     12  C   UNL     1       2.493  -7.363  -4.828  0.00  0.00    -0.010 C 
ATOM     13  H   UNL     1       1.524  -7.668  -7.237  0.00  0.00    -0.086 HD
ATOM     14  H   UNL     1       2.705  -6.941  -8.124  0.00  0.00    -0.086 HD
ENDROOT
BRANCH   5  15
ATOM     15  C   UNL     1       1.172  -7.527  -2.602  0.00  0.00    +0.219 C 
ATOM     16  O   UNL     1       2.139  -7.762  -1.910  0.00  0.00    -0.275 OA
ATOM     17  N   UNL     1       0.255  -8.489  -2.829  0.00  0.00    -0.309 N 
ATOM     18  H   UNL     1      -0.518  -8.301  -3.383  0.00  0.00    +0.149 HD
BRANCH  17  19
ATOM     19  C   UNL     1       0.428  -9.819  -2.239  0.00  0.00    +0.100 C 
ATOM     20  C   UNL     1      -0.099  -9.812  -0.803  0.00  0.00    +0.033 C 
BRANCH  19  21
ATOM     21  C   UNL     1      -0.337 -10.832  -3.051  0.00  0.00    -0.001 C 
ATOM     22  C   UNL     1       0.136 -11.911  -3.677  0.00  0.00    +0.063 C 
ATOM     23  N   UNL     1      -0.859 -12.579  -4.303  0.00  0.00    -0.159 NA
ATOM     24  N   UNL     1      -1.975 -12.071  -4.174  0.00  0.00    -0.180 NA
ATOM     25  C   UNL     1      -1.827 -10.866  -3.341  0.00  0.00    +0.154 C 
ATOM     26  C   UNL     1      -2.256  -9.619  -4.117  0.00  0.00    +0.039 C 
ATOM     27  C   UNL     1       1.584 -12.329  -3.686  0.00  0.00    +0.067 C 
ENDBRANCH  19  21
ENDBRANCH  17  19
ENDBRANCH   5  15
BRANCH   1  28
ATOM     28  C   UNL     1       1.572  -2.090  -1.930  0.00  0.00    +0.072 C 
ATOM     29  C   UNL     1       2.253  -2.570  -0.647  0.00  0.00    +0.017 C 
BRANCH  28  30
ATOM     30  C   UNL     1       1.719  -0.572  -2.049  0.00  0.00    +0.012 C 
BRANCH  30  32
ATOM     31  C   UNL     1       1.104   1.624  -1.028  0.00  0.00    +0.004 C 
ATOM     32  C   UNL     1       0.957   0.106  -0.909  0.00  0.00    -0.003 C 
ENDBRANCH  30  32
ENDBRANCH  28  30
ENDBRANCH   1  28
TORSDOF 6
