REMARK  Name = ZINC17129371
REMARK  5 active torsions:
REMARK  status: ('A' for Active; 'I' for Inactive)
REMARK    1  A    between atoms: C_1  and  C_2
REMARK    2  A    between atoms: N_8  and  O_9
REMARK    3  A    between atoms: C_10  and  C_12
REMARK    4  A    between atoms: C_15  and  O_18
REMARK    5  A    between atoms: O_18  and  C_19
REMARK                            x       y       z     vdW  Elec       q    Type
REMARK                         _______ _______ _______ _____ _____    ______ ____
ROOT
ATOM      1  C   UNL     1      -0.131   1.003  -2.488  0.00  0.00    +0.008 C 
ATOM      2  C   UNL     1      -0.761   1.597  -1.227  0.00  0.00    -0.001 C 
ATOM      3  C   UNL     1      -2.233   1.175  -1.135  0.00  0.00    +0.004 C 
ATOM      4  C   UNL     1      -2.890   1.837   0.077  0.00  0.00    +0.006 C 
ATOM      5  C   UNL     1      -2.217   1.335   1.359  0.00  0.00    +0.055 C 
ATOM      6  C   UNL     1      -0.728   1.577   1.247  0.00  0.00    +0.065 C 
ATOM      7  N   UNL     1      -0.090   2.183   2.176  0.00  0.00    -0.096 NA
ATOM      8  C   UNL     1      -0.013   1.086   0.008  0.00  0.00    +0.069 C 
ENDROOT
BRANCH   8   9
ATOM      9  C   UNL     1       1.400   1.611  -0.003  0.00  0.00    -0.038 A 
ATOM     10  C   UNL     1       1.629   2.975  -0.003  0.00  0.00    +0.008 A 
ATOM     11  C   UNL     1       2.923   3.459  -0.007  0.00  0.00    +0.046 A 
ATOM     12  C   UNL     1       3.993   2.576  -0.022  0.00  0.00    +0.120 A 
ATOM     13  C   UNL     1       3.760   1.208  -0.027  0.00  0.00    +0.046 A 
ATOM     14  C   UNL     1       2.464   0.729  -0.018  0.00  0.00    +0.008 A 
BRANCH  12  15
ATOM     15  O   UNL     1       5.266   3.050  -0.031  0.00  0.00    -0.495 OA
ATOM     16  C   UNL     1       5.430   4.469  -0.025  0.00  0.00    +0.277 C 
ENDBRANCH  12  15
ENDBRANCH   8   9
BRANCH   7  17
ATOM     17  O   UNL     1      -0.778   2.635   3.328  0.00  0.00    -0.409 OA
ATOM     18  H   UNL     1      -0.230   3.155   4.128  0.00  0.00    +0.328 HD
ENDBRANCH   7  17
TORSDOF 3
