REMARK  Name = ZINC59166835
REMARK  8 active torsions:
REMARK  status: ('A' for Active; 'I' for Inactive)
REMARK    1  A    between atoms: C_1  and  C_2
REMARK    2  A    between atoms: C_2  and  C_3
REMARK    3  A    between atoms: C_2  and  C_4
REMARK    4  A    between atoms: C_4  and  C_5
REMARK    5  A    between atoms: C_5  and  C_7
REMARK    6  A    between atoms: C_5  and  N_23
REMARK    7  A    between atoms: N_9  and  N_10
REMARK    8  A    between atoms: N_18  and  C_21
REMARK                            x       y       z     vdW  Elec       q    Type
REMARK                         _______ _______ _______ _____ _____    ______ ____
ROOT
ATOM      1  C   UNL     1      -3.584  -0.930  -1.463  0.00  0.00    +0.218 C 
ATOM      2  O   UNL     1      -4.541  -0.224  -1.227  0.00  0.00    -0.276 OA
ATOM      3  N   UNL     1      -3.765  -2.234  -1.754  0.00  0.00    -0.208 N 
ATOM      4  H   UNL     1      -3.000  -2.799  -1.942  0.00  0.00    +0.177 HD
ENDROOT
BRANCH   3   5
ATOM      5  N   UNL     1      -5.058  -2.772  -1.784  0.00  0.00    -0.175 NA
ATOM      6  C   UNL     1      -5.228  -4.060  -1.964  0.00  0.00    +0.153 C 
ATOM      7  C   UNL     1      -4.184  -5.110  -2.011  0.00  0.00    +0.029 A 
ATOM      8  C   UNL     1      -2.799  -5.081  -1.891  0.00  0.00    +0.027 A 
ATOM      9  C   UNL     1      -2.079  -6.256  -1.982  0.00  0.00    +0.019 A 
ATOM     10  C   UNL     1      -2.736  -7.458  -2.191  0.00  0.00    +0.017 A 
ATOM     11  C   UNL     1      -4.110  -7.496  -2.311  0.00  0.00    +0.025 A 
ATOM     12  C   UNL     1      -4.851  -6.322  -2.222  0.00  0.00    +0.046 A 
ATOM     13  N   UNL     1      -6.220  -6.086  -2.306  0.00  0.00    -0.269 N 
ATOM     14  C   UNL     1      -6.503  -4.781  -2.156  0.00  0.00    +0.271 C 
ATOM     15  O   UNL     1      -7.612  -4.281  -2.178  0.00  0.00    -0.268 OA
ATOM     16  C   UNL     1      -7.225  -7.128  -2.524  0.00  0.00    +0.138 C 
ATOM     17 BR   UNL     1      -0.195  -6.225  -1.821  0.00  0.00    -0.050 Br
ENDBRANCH   3   5
BRANCH   1  18
ATOM     18  C   UNL     1      -2.193  -0.351  -1.430  0.00  0.00    +0.015 C 
BRANCH  18  19
ATOM     19  N   UNL     1      -2.268   1.109  -1.571  0.00  0.00    +0.386 N 
ATOM     20  H   UNL     1      -2.865   1.487  -0.851  0.00  0.00    -0.089 HD
ATOM     21  H   UNL     1      -1.343   1.503  -1.482  0.00  0.00    -0.089 HD
ATOM     22  H   UNL     1      -2.646   1.341  -2.478  0.00  0.00    -0.089 HD
ENDBRANCH  18  19
BRANCH  18  23
ATOM     23  C   UNL     1      -1.526  -0.702  -0.098  0.00  0.00    -0.004 C 
BRANCH  23  25
ATOM     24  C   UNL     1       0.542  -0.426   1.275  0.00  0.00    +0.007 C 
ATOM     25  C   UNL     1      -0.084  -0.192  -0.101  0.00  0.00    -0.018 C 
ATOM     26  C   UNL     1       0.721  -0.945  -1.162  0.00  0.00    +0.007 C 
ENDBRANCH  23  25
ENDBRANCH  18  23
ENDBRANCH   1  18
TORSDOF 5
