REMARK  Name = ZINC01588457
REMARK  1 active torsions:
REMARK  status: ('A' for Active; 'I' for Inactive)
REMARK    1  A    between atoms: C_14  and  C_15
REMARK                            x       y       z     vdW  Elec       q    Type
REMARK                         _______ _______ _______ _____ _____    ______ ____
ROOT
ATOM      1  C   UNL     1       0.259   2.341  -4.021  0.00  0.00    +0.000 A 
ATOM      2  C   UNL     1      -0.204   1.390  -3.128  0.00  0.00    +0.001 A 
ATOM      3  C   UNL     1       0.626   0.917  -2.131  0.00  0.00    +0.010 A 
ATOM      4  C   UNL     1       1.929   1.391  -2.034  0.00  0.00    +0.004 A 
ATOM      5  C   UNL     1       2.402   2.329  -2.953  0.00  0.00    -0.038 A 
ATOM      6  C   UNL     1       1.558   2.807  -3.935  0.00  0.00    +0.004 A 
ATOM      7  C   UNL     1       3.833   2.791  -2.892  0.00  0.00    +0.040 C 
ATOM      8  C   UNL     1       4.311   2.892  -1.446  0.00  0.00    +0.044 C 
ATOM      9  C   UNL     1       4.004   1.627  -0.696  0.00  0.00    +0.007 A 
ATOM     10  C   UNL     1       2.841   0.909  -0.972  0.00  0.00    +0.080 A 
ATOM     11  N   UNL     1       2.576  -0.194  -0.281  0.00  0.00    -0.214 NA
ATOM     12  C   UNL     1       3.416  -0.618   0.654  0.00  0.00    +0.214 A 
ATOM     13  N   UNL     1       4.536   0.029   0.935  0.00  0.00    -0.213 NA
ATOM     14  C   UNL     1       4.864   1.148   0.288  0.00  0.00    +0.098 A 
ATOM     15  N   UNL     1       3.111  -1.770   1.358  0.00  0.00    -0.327 N 
ATOM     16  H   UNL     1       3.715  -2.093   2.045  0.00  0.00    +0.145 HD
ATOM     17  H   UNL     1       2.294  -2.255   1.164  0.00  0.00    +0.145 HD
ENDROOT
BRANCH  14  18
ATOM     18  C   UNL     1       6.122   1.868   0.610  0.00  0.00    +0.098 A 
ATOM     19  C   UNL     1       7.332   1.185   0.679  0.00  0.00    +0.007 A 
ATOM     20  C   UNL     1       8.489   1.907   0.972  0.00  0.00    +0.080 A 
ATOM     21  N   UNL     1       8.403   3.213   1.195  0.00  0.00    -0.214 NA
ATOM     22  C   UNL     1       7.231   3.829   1.127  0.00  0.00    +0.214 A 
ATOM     23  N   UNL     1       6.114   3.182   0.833  0.00  0.00    -0.213 NA
ATOM     24  N   UNL     1       7.174   5.192   1.365  0.00  0.00    -0.327 N 
ATOM     25  C   UNL     1       9.788   1.200   1.016  0.00  0.00    +0.004 A 
ATOM     26  C   UNL     1      10.911   1.798   1.579  0.00  0.00    +0.010 A 
ATOM     27  C   UNL     1      12.107   1.111   1.620  0.00  0.00    +0.001 A 
ATOM     28  C   UNL     1      12.190  -0.166   1.094  0.00  0.00    +0.000 A 
ATOM     29  C   UNL     1      11.083  -0.756   0.511  0.00  0.00    +0.004 A 
ATOM     30  C   UNL     1       9.884  -0.074   0.455  0.00  0.00    -0.038 A 
ATOM     31  C   UNL     1       8.696  -0.688  -0.235  0.00  0.00    +0.040 C 
ATOM     32  C   UNL     1       7.399  -0.301   0.471  0.00  0.00    +0.044 C 
ATOM     33  H   UNL     1       7.984   5.681   1.578  0.00  0.00    +0.145 HD
ATOM     34  H   UNL     1       6.324   5.657   1.319  0.00  0.00    +0.145 HD
ENDBRANCH  14  18
TORSDOF 1
