REMARK  Name = ZINC05376412
REMARK  6 active torsions:
REMARK  status: ('A' for Active; 'I' for Inactive)
REMARK    1  A    between atoms: C_1  and  C_2
REMARK    2  A    between atoms: C_2  and  C_3
REMARK    3  A    between atoms: C_6  and  N_9
REMARK    4  A    between atoms: C_15  and  C_16
REMARK    5  A    between atoms: C_19  and  O_22
REMARK    6  A    between atoms: O_22  and  C_23
REMARK                            x       y       z     vdW  Elec       q    Type
REMARK                         _______ _______ _______ _____ _____    ______ ____
ROOT
ATOM      1  N   UNL     1      -5.035  -2.775  -1.085  0.00  0.00    -0.226 NA
ATOM      2  C   UNL     1      -5.995  -2.061  -1.629  0.00  0.00    +0.166 C 
ATOM      3  N   UNL     1      -7.336  -2.362  -1.725  0.00  0.00    -0.260 N 
ATOM      4  C   UNL     1      -8.175  -1.523  -2.310  0.00  0.00    +0.256 C 
ATOM      5  O   UNL     1      -9.363  -1.773  -2.403  0.00  0.00    -0.269 OA
ATOM      6  C   UNL     1      -7.605  -0.272  -2.845  0.00  0.00    +0.078 C 
ATOM      7  C   UNL     1      -8.225   0.752  -3.484  0.00  0.00    +0.028 C 
ATOM      8  S   UNL     1      -5.881  -0.463  -2.416  0.00  0.00    -0.049 S 
ATOM      9  H   UNL     1      -7.669  -3.197  -1.360  0.00  0.00    +0.157 HD
ENDROOT
BRANCH   1  13
ATOM     10  C   UNL     1      -1.151  -1.348  -1.071  0.00  0.00    -0.047 A 
ATOM     11  C   UNL     1      -1.683  -1.908   0.077  0.00  0.00    +0.006 A 
ATOM     12  C   UNL     1      -2.977  -2.386   0.080  0.00  0.00    +0.028 A 
ATOM     13  C   UNL     1      -3.751  -2.303  -1.080  0.00  0.00    +0.067 A 
ATOM     14  C   UNL     1      -3.207  -1.736  -2.236  0.00  0.00    +0.028 A 
ATOM     15  C   UNL     1      -1.913  -1.258  -2.222  0.00  0.00    +0.006 A 
BRANCH  10  17
ATOM     16  C   UNL     1       0.266   0.642  -0.647  0.00  0.00    +0.009 C 
ATOM     17  C   UNL     1       0.264  -0.829  -1.066  0.00  0.00    +0.032 C 
ENDBRANCH  10  17
ENDBRANCH   1  13
BRANCH   7  18
ATOM     18  C   UNL     1      -7.431   1.834  -4.080  0.00  0.00    -0.024 A 
ATOM     19  C   UNL     1      -6.060   1.657  -4.306  0.00  0.00    +0.011 A 
ATOM     20  C   UNL     1      -5.321   2.675  -4.866  0.00  0.00    +0.046 A 
ATOM     21  C   UNL     1      -5.932   3.876  -5.207  0.00  0.00    +0.120 A 
ATOM     22  C   UNL     1      -7.292   4.057  -4.984  0.00  0.00    +0.046 A 
ATOM     23  C   UNL     1      -8.043   3.044  -4.431  0.00  0.00    +0.011 A 
BRANCH  21  24
ATOM     24  O   UNL     1      -5.197   4.875  -5.758  0.00  0.00    -0.495 OA
ATOM     25  C   UNL     1      -5.888   6.083  -6.085  0.00  0.00    +0.277 C 
ENDBRANCH  21  24
ENDBRANCH   7  18
TORSDOF 4
