REMARK  Name = ZINC35806546
REMARK  13 active torsions:
REMARK  status: ('A' for Active; 'I' for Inactive)
REMARK    1  A    between atoms: CB_1  and  CA_2
REMARK    2  A    between atoms: CA_2  and  C_4
REMARK    3  A    between atoms: CA_2  and  N_7
REMARK    4  A    between atoms: C_8  and  C_10
REMARK    5  A    between atoms: C_10  and  C_11
REMARK    6  A    between atoms: C_11  and  C_12
REMARK    7  A    between atoms: C_12  and  O_14
REMARK    8  A    between atoms: O_14  and  C_15
REMARK    9  A    between atoms: C_15  and  C_16
REMARK   10  A    between atoms: C_16  and  C_18
REMARK   11  A    between atoms: C_18  and  O_41
REMARK   12  A    between atoms: C_23  and  C_40
REMARK   13  A    between atoms: C_38  and  C_39
REMARK                            x       y       z     vdW  Elec       q    Type
REMARK                         _______ _______ _______ _____ _____    ______ ____
ROOT
ATOM      1  C   UNK A   0       9.279  -2.664  -5.651  0.00  0.00    +0.133 C 
ATOM      2  C   UNK A   0       9.750  -1.478  -6.532  0.00  0.00    +0.043 C 
ATOM      3  C   UNK A   0      11.300  -1.583  -6.615  0.00  0.00    +0.008 C 
ATOM      4  C   UNK A   0      11.534  -3.066  -6.275  0.00  0.00    +0.002 C 
ATOM      5  C   UNK A   0      10.583  -3.254  -5.078  0.00  0.00    +0.007 C 
ATOM      6  C   UNK A   0      10.495  -4.698  -4.649  0.00  0.00    +0.010 C 
ATOM      7  C   UNK A   0      11.772  -5.459  -5.053  0.00  0.00    +0.005 C 
ATOM      8  C   UNK A   0      12.968  -4.538  -4.883  0.00  0.00    +0.002 C 
ATOM      9  C   UNK A   0      12.942  -3.480  -5.993  0.00  0.00    -0.003 C 
ATOM     10  C   UNK A   0      13.942  -2.376  -5.696  0.00  0.00    +0.008 C 
ATOM     11  C   UNK A   0      15.351  -3.006  -5.717  0.00  0.00    +0.032 C 
ATOM     12  C   UNK A   0      15.358  -4.142  -4.706  0.00  0.00    -0.060 C 
ATOM     13  C   UNK A   0      16.274  -4.124  -3.744  0.00  0.00    +0.046 C 
ATOM     14  C   UNK A   0      16.265  -5.163  -2.707  0.00  0.00    +0.156 C 
ATOM     15  O   UNK A   0      17.245  -5.436  -2.050  0.00  0.00    -0.293 OA
ATOM     16  C   UNK A   0      14.928  -5.843  -2.473  0.00  0.00    +0.080 C 
ATOM     17  C   UNK A   0      14.406  -6.325  -3.822  0.00  0.00    +0.019 C 
ATOM     18  C   UNK A   0      14.323  -5.227  -4.856  0.00  0.00    -0.007 C 
ATOM     19  C   UNK A   0      14.565  -5.911  -6.201  0.00  0.00    +0.016 C 
ATOM     20  C   UNK A   0      10.987  -2.374  -3.891  0.00  0.00    +0.015 C 
ENDROOT
BRANCH   1  21
ATOM     21  C   UNK A   0       8.400  -2.174  -4.534  0.00  0.00    +0.202 C 
ATOM     22  O   UNK A   0       8.450  -1.017  -4.191  0.00  0.00    -0.291 OA
BRANCH  21  23
ATOM     23  C   UNK A   0       7.458  -3.125  -3.844  0.00  0.00    +0.309 C 
BRANCH  23  24
ATOM     24  O   UNK A   0       6.737  -2.427  -2.826  0.00  0.00    -0.457 OA
BRANCH  24  25
ATOM     25  C   UNK A   0       5.849  -3.137  -2.112  0.00  0.00    +0.308 C 
ATOM     26  O   UNK A   0       5.690  -4.312  -2.343  0.00  0.00    -0.251 OA
BRANCH  25  27
ATOM     27  C   UNK A   0       5.052  -2.468  -1.023  0.00  0.00    +0.130 C 
BRANCH  27  28
ATOM     28  C   UNK A   0       4.121  -3.492  -0.370  0.00  0.00    +0.107 C 
BRANCH  28  30
ATOM     29  N   ALA A   1       2.432  -3.536   1.437  0.00  0.00    -0.302 N 
ATOM     30  C   UNK A   0       3.324  -2.823   0.720  0.00  0.00    +0.214 C 
ATOM     31  O   UNK A   0       3.483  -1.644   0.952  0.00  0.00    -0.276 OA
ATOM     32  H   ALA A   1       2.304  -4.480   1.252  0.00  0.00    +0.150 HD
BRANCH  29  34
ATOM     33  CB  ALA A   1       0.418  -2.224   1.889  0.00  0.00    +0.040 C 
ATOM     34  CA  ALA A   1       1.657  -2.886   2.496  0.00  0.00    +0.183 C 
BRANCH  34  35
ATOM     35  C   ALA A   1       1.230  -3.916   3.511  0.00  0.00    +0.376 C 
ATOM     36  O   ALA A   1       1.383  -5.102   3.276  0.00  0.00    -0.244 OA
ATOM     37  OXT ALA A   1       0.732  -3.562   4.566  0.00  0.00    -0.244 OA
ENDBRANCH  34  35
ENDBRANCH  29  34
ENDBRANCH  28  30
ENDBRANCH  27  28
ENDBRANCH  25  27
ENDBRANCH  24  25
ENDBRANCH  23  24
ENDBRANCH  21  23
ENDBRANCH   1  21
BRANCH   1  38
ATOM     38  O   UNK A   0       8.601  -3.631  -6.447  0.00  0.00    -0.380 OA
ATOM     39  H   UNK A   0       7.787  -3.305  -6.854  0.00  0.00    +0.211 HD
ENDBRANCH   1  38
TORSDOF 10
