REMARK  Name = ZINC08683800
REMARK  4 active torsions:
REMARK  status: ('A' for Active; 'I' for Inactive)
REMARK    1  A    between atoms: C_6  and  N_7
REMARK    2  A    between atoms: C_14  and  S_16
REMARK    3  A    between atoms: S_16  and  C_17
REMARK    4  A    between atoms: C_17  and  C_18
REMARK                            x       y       z     vdW  Elec       q    Type
REMARK                         _______ _______ _______ _____ _____    ______ ____
ROOT
ATOM      1  N   UNL     1      -1.201  -0.722   0.010  0.00  0.00    -0.214 N 
ATOM      2  C   UNL     1      -1.428  -1.907  -0.623  0.00  0.00    +0.171 A 
ATOM      3  C   UNL     1      -2.760  -2.261  -0.347  0.00  0.00    +0.103 A 
ATOM      4  C   UNL     1      -3.300  -1.244   0.467  0.00  0.00    +0.150 A 
ATOM      5  N   UNL     1      -2.376  -0.348   0.675  0.00  0.00    -0.172 NA
ATOM      6  C   UNL     1      -3.269  -3.468  -0.888  0.00  0.00    +0.263 A 
ATOM      7  N   UNL     1      -2.447  -4.226  -1.649  0.00  0.00    -0.301 N 
ATOM      8  C   UNL     1      -1.162  -3.829  -1.881  0.00  0.00    +0.172 A 
ATOM      9  N   UNL     1      -0.677  -2.712  -1.385  0.00  0.00    -0.204 NA
ATOM     10  O   UNL     1      -4.418  -3.813  -0.674  0.00  0.00    -0.267 OA
ATOM     11  H   UNL     1      -2.773  -5.056  -2.030  0.00  0.00    +0.171 HD
ENDROOT
BRANCH   1  17
ATOM     12  C   UNL     1      -0.017   1.384   0.010  0.00  0.00    +0.030 A 
ATOM     13  C   UNL     1       1.170   2.090   0.002  0.00  0.00    +0.040 A 
ATOM     14  C   UNL     1       2.379   1.414  -0.013  0.00  0.00    +0.124 A 
ATOM     15  C   UNL     1       2.400   0.029  -0.021  0.00  0.00    +0.040 A 
ATOM     16  C   UNL     1       1.215  -0.680  -0.013  0.00  0.00    +0.030 A 
ATOM     17  C   UNL     1       0.002  -0.004   0.002  0.00  0.00    +0.068 A 
ATOM     18  F   UNL     1       3.539   2.106  -0.022  0.00  0.00    -0.205 F 
ENDBRANCH   1  17
BRANCH   8  19
ATOM     19  S   UNL     1      -0.122  -4.845  -2.876  0.00  0.00    -0.078 S 
BRANCH  19  20
ATOM     20  C   UNL     1       1.456  -3.950  -2.915  0.00  0.00    +0.173 C 
BRANCH  20  21
ATOM     21  C   UNL     1       2.450  -4.722  -3.745  0.00  0.00    +0.229 C 
ATOM     22  O   UNL     1       2.126  -5.771  -4.260  0.00  0.00    -0.275 OA
ATOM     23  N   UNL     1       3.699  -4.245  -3.916  0.00  0.00    -0.264 N 
ATOM     24  C   UNL     1       4.615  -4.956  -4.682  0.00  0.00    +0.164 A 
ATOM     25  N   UNL     1       4.442  -6.097  -5.314  0.00  0.00    -0.233 NA
ATOM     26  C   UNL     1       5.421  -6.650  -6.005  0.00  0.00    +0.120 A 
ATOM     27  C   UNL     1       6.605  -5.989  -6.033  0.00  0.00    +0.068 A 
ATOM     28  S   UNL     1       6.214  -4.564  -5.032  0.00  0.00    -0.061 S 
ATOM     29  H   UNL     1       3.958  -3.406  -3.505  0.00  0.00    +0.157 HD
ENDBRANCH  20  21
ENDBRANCH  19  20
ENDBRANCH   8  19
TORSDOF 4
