REMARK  Name = ZINC54545480
REMARK  3 active torsions:
REMARK  status: ('A' for Active; 'I' for Inactive)
REMARK    1  A    between atoms: C_9  and  O_24
REMARK    2  A    between atoms: C_10  and  C_11
REMARK    3  A    between atoms: C_11  and  N_12
REMARK                            x       y       z     vdW  Elec       q    Type
REMARK                         _______ _______ _______ _____ _____    ______ ____
ROOT
ATOM      1  C   UNL     1      -0.016   1.357   0.009  0.00  0.00    +0.001 A 
ATOM      2  C   UNL     1       1.168   2.091   0.002  0.00  0.00    +0.001 A 
ATOM      3  C   UNL     1       2.378   1.468  -0.013  0.00  0.00    +0.009 A 
ATOM      4  C   UNL     1       2.438   0.064  -0.021  0.00  0.00    -0.010 A 
ATOM      5  C   UNL     1       1.232  -0.683  -0.013  0.00  0.00    -0.017 A 
ATOM      6  C   UNL     1       0.002  -0.004   0.002  0.00  0.00    +0.008 A 
ATOM      7  C   UNL     1       1.290  -2.087  -0.021  0.00  0.00    +0.012 A 
ATOM      8  C   UNL     1       2.497  -2.713  -0.036  0.00  0.00    +0.046 A 
ATOM      9  C   UNL     1       3.687  -1.979  -0.043  0.00  0.00    +0.122 A 
ATOM     10  C   UNL     1       3.668  -0.613  -0.037  0.00  0.00    +0.016 A 
ENDROOT
BRANCH   9  11
ATOM     11  O   UNL     1       4.878  -2.633  -0.057  0.00  0.00    -0.506 OA
ATOM     12  H   UNL     1       5.215  -2.818  -0.945  0.00  0.00    +0.292 HD
ENDBRANCH   9  11
BRANCH  10  13
ATOM     13  C   UNL     1       4.960   0.163  -0.046  0.00  0.00    +0.124 C 
BRANCH  13  14
ATOM     14  N   UNL     1       5.393   0.408   1.336  0.00  0.00    -0.290 NA
ATOM     15  C   UNL     1       4.462   1.311   2.028  0.00  0.00    +0.113 C 
ATOM     16  C   UNL     1       4.915   1.494   3.478  0.00  0.00    +0.175 C 
ATOM     17  O   UNL     1       6.260   1.981   3.497  0.00  0.00    -0.374 OA
ATOM     18  C   UNL     1       7.189   1.123   2.831  0.00  0.00    +0.135 C 
ATOM     19  C   UNL     1       6.761   0.951   1.371  0.00  0.00    +0.086 C 
ATOM     20  C   UNL     1       6.775   2.312   0.671  0.00  0.00    +0.021 C 
ATOM     21  C   UNL     1       8.184   2.905   0.731  0.00  0.00    +0.002 C 
ATOM     22  C   UNL     1       8.597   3.087   2.193  0.00  0.00    +0.003 C 
ATOM     23  C   UNL     1       8.589   1.731   2.886  0.00  0.00    +0.033 C 
ENDBRANCH  13  14
ENDBRANCH  10  13
TORSDOF 3
