REMARK  Name = ZINC12034720
REMARK  9 active torsions:
REMARK  status: ('A' for Active; 'I' for Inactive)
REMARK    1  A    between atoms: C_1  and  C_2
REMARK    2  A    between atoms: C_2  and  C_3
REMARK    3  A    between atoms: C_2  and  C_4
REMARK    4  A    between atoms: N_6  and  C_7
REMARK    5  A    between atoms: C_7  and  C_9
REMARK    6  A    between atoms: C_7  and  C_10
REMARK    7  A    between atoms: C_19  and  C_20
REMARK    8  A    between atoms: C_19  and  N_58
REMARK    9  A    between atoms: C_23  and  C_25
REMARK                            x       y       z     vdW  Elec       q    Type
REMARK                         _______ _______ _______ _____ _____    ______ ____
ROOT
ATOM      1  C   UNL     1       4.777   7.038   1.621  0.00  0.00    +0.154 A 
ATOM      2  N   UNL     1       5.551   6.786   2.643  0.00  0.00    -0.132 NA
ATOM      3  N   UNL     1       5.062   5.811   3.329  0.00  0.00    -0.134 NA
ATOM      4  C   UNL     1       3.955   5.406   2.779  0.00  0.00    +0.132 A 
ATOM      5  N   UNL     1       3.752   6.161   1.671  0.00  0.00    -0.315 N 
ATOM      6  C   UNL     1       2.647   6.018   0.723  0.00  0.00    +0.106 C 
ATOM      7  C   UNL     1       1.433   5.432   1.449  0.00  0.00    -0.056 C 
ATOM      8  C   UNL     1       2.665   3.424   2.059  0.00  0.00    -0.071 C 
ATOM      9  C   UNL     1       3.036   4.309   3.253  0.00  0.00    +0.058 C 
ATOM     10  N   UNL     1       1.448   3.951   1.405  0.00  0.00    +0.384 N 
ATOM     11  H   UNL     1       0.624   3.598   1.906  0.00  0.00    -0.081 HD
ENDROOT
BRANCH   1  12
ATOM     12  C   UNL     1       4.987   8.109   0.582  0.00  0.00    +0.138 C 
ATOM     13  C   UNL     1       4.641   9.475   1.179  0.00  0.00    +0.036 C 
BRANCH  12  16
ATOM     14  C   UNL     1       6.722   8.577  -1.064  0.00  0.00    +0.216 C 
ATOM     15  O   UNL     1       5.863   9.007  -1.804  0.00  0.00    -0.276 OA
ATOM     16  N   UNL     1       6.388   8.105   0.153  0.00  0.00    -0.306 N 
ATOM     17  H   UNL     1       7.075   7.761   0.745  0.00  0.00    +0.149 HD
BRANCH  14  19
ATOM     18  C   UNL     1       8.267   9.158  -2.915  0.00  0.00    +0.017 C 
ATOM     19  C   UNL     1       8.163   8.572  -1.505  0.00  0.00    +0.069 C 
ATOM     20  C   UNL     1       8.995   9.418  -0.539  0.00  0.00    +0.017 C 
ENDBRANCH  14  19
ENDBRANCH  12  16
ENDBRANCH   1  12
BRANCH  10  21
ATOM     21  C   UNL     1       1.390   3.490   0.007  0.00  0.00    -0.034 C 
BRANCH  21  22
ATOM     22  C   UNL     1       1.154   2.002   0.002  0.00  0.00    -0.007 A 
ATOM     23  C   UNL     1      -0.016   1.308   0.009  0.00  0.00    +0.120 A 
ATOM     24  N   UNL     1       0.002  -0.004   0.002  0.00  0.00    -0.247 NA
ATOM     25  C   UNL     1       1.144  -0.677  -0.013  0.00  0.00    +0.108 A 
ATOM     26  S   UNL     1       2.334   0.658  -0.017  0.00  0.00    -0.074 S 
BRANCH  25  27
ATOM     27  C   UNL     1       1.373  -2.138  -0.022  0.00  0.00    +0.007 A 
ATOM     28  C   UNL     1       2.673  -2.643  -0.043  0.00  0.00    +0.010 A 
ATOM     29  C   UNL     1       2.880  -4.008  -0.047  0.00  0.00    +0.001 A 
ATOM     30  C   UNL     1       1.801  -4.874  -0.042  0.00  0.00    +0.000 A 
ATOM     31  C   UNL     1       0.509  -4.379  -0.027  0.00  0.00    +0.001 A 
ATOM     32  C   UNL     1       0.289  -3.017  -0.017  0.00  0.00    +0.010 A 
ENDBRANCH  25  27
ENDBRANCH  21  22
ENDBRANCH  10  21
TORSDOF 6
