REMARK  Name = ZINC14992358
REMARK  5 active torsions:
REMARK  status: ('A' for Active; 'I' for Inactive)
REMARK    1  A    between atoms: C_9  and  N_58
REMARK    2  A    between atoms: C_13  and  C_14
REMARK    3  A    between atoms: C_13  and  N_58
REMARK    4  A    between atoms: C_14  and  O_20
REMARK    5  A    between atoms: N_23  and  C_24
REMARK                            x       y       z     vdW  Elec       q    Type
REMARK                         _______ _______ _______ _____ _____    ______ ____
ROOT
ATOM      1  C   UNL     1      -0.016   1.354   0.009  0.00  0.00    +0.203 A 
ATOM      2  N   UNL     1       1.092   2.045   0.003  0.00  0.00    -0.230 NA
ATOM      3  C   UNL     1       2.276   1.438  -0.012  0.00  0.00    +0.116 A 
ATOM      4  C   UNL     1       2.396   0.039  -0.020  0.00  0.00    +0.076 A 
ATOM      5  C   UNL     1       3.760  -0.486  -0.034  0.00  0.00    -0.023 A 
ATOM      6  C   UNL     1       4.764   0.417  -0.040  0.00  0.00    -0.006 A 
ATOM      7  S   UNL     1       3.960   1.997  -0.026  0.00  0.00    -0.073 S 
ATOM      8  C   UNL     1       6.236   0.138  -0.054  0.00  0.00    +0.027 C 
ATOM      9  C   UNL     1       6.452  -1.337   0.316  0.00  0.00    -0.067 C 
ATOM     10  C   UNL     1       5.497  -2.197  -0.516  0.00  0.00    -0.011 C 
ATOM     11  C   UNL     1       4.059  -1.983  -0.043  0.00  0.00    +0.035 C 
ATOM     12  C   UNL     1       1.161  -0.689  -0.012  0.00  0.00    +0.263 A 
ATOM     13  O   UNL     1       1.160  -1.908  -0.019  0.00  0.00    -0.267 OA
ATOM     14  N   UNL     1       0.002  -0.004   0.002  0.00  0.00    -0.296 N 
ENDROOT
BRANCH  14  15
ATOM     15  C   UNL     1      -1.265  -0.739   0.010  0.00  0.00    +0.092 C 
ATOM     16  C   UNL     1      -2.128  -0.317  -1.198  0.00  0.00    +0.025 C 
ATOM     17  C   UNL     1      -3.576  -0.316  -0.648  0.00  0.00    +0.002 C 
ATOM     18  C   UNL     1      -3.397   0.240   0.787  0.00  0.00    +0.002 C 
ATOM     19  C   UNL     1      -2.072  -0.385   1.272  0.00  0.00    +0.025 C 
ENDBRANCH  14  15
BRANCH   9  20
ATOM     20  N   UNL     1       7.844  -1.724   0.015  0.00  0.00    +0.383 N 
ATOM     21  H   UNL     1       8.163  -1.218  -0.820  0.00  0.00    -0.085 HD
ATOM     22  H   UNL     1       7.884  -2.734  -0.161  0.00  0.00    -0.085 HD
BRANCH  20  23
ATOM     23  C   UNL     1       8.725  -1.393   1.151  0.00  0.00    -0.047 C 
BRANCH  23  24
ATOM     24  C   UNL     1      10.158  -1.804   0.810  0.00  0.00    +0.051 C 
ATOM     25  C   UNL     1      10.185  -3.284   0.422  0.00  0.00    +0.033 C 
ATOM     26  C   UNL     1      11.619  -3.696   0.082  0.00  0.00    +0.003 C 
ATOM     27  C   UNL     1      12.517  -3.471   1.300  0.00  0.00    +0.000 C 
ATOM     28  C   UNL     1      12.490  -1.991   1.688  0.00  0.00    +0.003 C 
ATOM     29  C   UNL     1      11.056  -1.579   2.028  0.00  0.00    +0.033 C 
BRANCH  24  30
ATOM     30  O   UNL     1      10.633  -1.016  -0.283  0.00  0.00    -0.390 OA
ATOM     31  H   UNL     1      10.110  -1.109  -1.091  0.00  0.00    +0.210 HD
ENDBRANCH  24  30
ENDBRANCH  23  24
ENDBRANCH  20  23
ENDBRANCH   9  20
TORSDOF 5
