REMARK  Name = ZINC13498809
REMARK  13 active torsions:
REMARK  status: ('A' for Active; 'I' for Inactive)
REMARK    1  A    between atoms: C_1  and  C_2
REMARK    2  A    between atoms: C_2  and  C_3
REMARK    3  A    between atoms: C_2  and  C_4
REMARK    4  A    between atoms: C_4  and  C_6
REMARK    5  A    between atoms: C_4  and  N_66
REMARK    6  A    between atoms: N_10  and  C_11
REMARK    7  A    between atoms: C_11  and  C_12
REMARK    8  A    between atoms: C_17  and  C_18
REMARK    9  A    between atoms: C_17  and  N_66
REMARK   10  A    between atoms: C_18  and  C_19
REMARK   11  A    between atoms: C_19  and  O_20
REMARK   12  A    between atoms: C_21  and  C_22
REMARK   13  A    between atoms: C_21  and  N_66
REMARK                            x       y       z     vdW  Elec       q    Type
REMARK                         _______ _______ _______ _____ _____    ______ ____
ROOT
ATOM      1  N   UNL     1      -5.789   3.552  -1.850  0.00  0.00    +0.389 N 
ATOM      2  H   UNL     1      -6.104   2.582  -1.971  0.00  0.00    -0.080 HD
ENDROOT
BRANCH   1   3
ATOM      3  C   UNL     1      -6.726   4.452  -2.553  0.00  0.00    +0.006 C 
BRANCH   3   4
ATOM      4  C   UNL     1      -6.890   3.973  -3.972  0.00  0.00    +0.139 A 
ATOM      5  N   UNL     1      -5.952   3.891  -4.883  0.00  0.00    -0.115 NA
ATOM      6  N   UNL     1      -6.485   3.434  -5.964  0.00  0.00    -0.023 NA
ATOM      7  N   UNL     1      -7.741   3.230  -5.767  0.00  0.00    -0.044 NA
ATOM      8  N   UNL     1      -8.029   3.550  -4.551  0.00  0.00    -0.223 N 
BRANCH   8   9
ATOM      9  C   UNL     1      -9.349   3.470  -3.919  0.00  0.00    +0.221 C 
BRANCH   9  10
ATOM     10  C   UNL     1     -10.131   4.720  -4.229  0.00  0.00    +0.126 A 
ATOM     11  C   UNL     1     -10.877   4.929  -5.329  0.00  0.00    +0.046 A 
ATOM     12  C   UNL     1     -11.431   6.224  -5.208  0.00  0.00    +0.041 A 
ATOM     13  C   UNL     1     -10.984   6.732  -4.045  0.00  0.00    +0.195 A 
ATOM     14  O   UNL     1     -10.197   5.817  -3.457  0.00  0.00    -0.466 OA
ENDBRANCH   9  10
ENDBRANCH   8   9
ENDBRANCH   3   4
BRANCH   3  16
ATOM     15  C   UNL     1      -5.180   6.049  -3.695  0.00  0.00    +0.006 C 
ATOM     16  C   UNL     1      -6.191   5.886  -2.558  0.00  0.00    -0.024 C 
ATOM     17  C   UNL     1      -7.351   6.863  -2.762  0.00  0.00    +0.006 C 
ENDBRANCH   3  16
ENDBRANCH   1   3
BRANCH   1  18
ATOM     18  C   UNL     1      -4.432   3.691  -2.419  0.00  0.00    -0.075 C 
BRANCH  18  19
ATOM     19  C   UNL     1      -3.596   2.481  -1.996  0.00  0.00    +0.009 C 
BRANCH  19  20
ATOM     20  C   UNL     1      -2.162   2.650  -2.503  0.00  0.00    +0.154 C 
BRANCH  20  21
ATOM     21  O   UNL     1      -1.382   1.520  -2.108  0.00  0.00    -0.395 OA
ATOM     22  H   UNL     1      -0.459   1.559  -2.397  0.00  0.00    +0.209 HD
ENDBRANCH  20  21
ENDBRANCH  19  20
ENDBRANCH  18  19
ENDBRANCH   1  18
BRANCH   1  23
ATOM     23  C   UNL     1      -5.767   3.872  -0.407  0.00  0.00    -0.037 C 
BRANCH  23  24
ATOM     24  C   UNL     1      -6.997   3.285   0.237  0.00  0.00    +0.001 A 
ATOM     25  C   UNL     1      -6.944   2.049   0.794  0.00  0.00    +0.017 A 
ATOM     26  C   UNL     1      -8.156   1.505   1.405  0.00  0.00    +0.002 A 
ATOM     27  C   UNL     1      -8.165   0.228   1.979  0.00  0.00    +0.059 A 
ATOM     28  C   UNL     1      -9.324  -0.260   2.546  0.00  0.00    +0.163 A 
ATOM     29  C   UNL     1     -10.486   0.518   2.552  0.00  0.00    +0.164 A 
ATOM     30  C   UNL     1     -10.485   1.782   1.988  0.00  0.00    +0.075 A 
ATOM     31  C   UNL     1      -9.329   2.284   1.406  0.00  0.00    +0.053 A 
ATOM     32  N   UNL     1      -9.312   3.540   0.833  0.00  0.00    -0.322 N 
ATOM     33  H   UNL     1     -10.119   4.078   0.838  0.00  0.00    +0.169 HD
ATOM     34  C   UNL     1      -8.194   4.028   0.268  0.00  0.00    +0.251 A 
ATOM     35  O   UNL     1      -8.217   5.141  -0.230  0.00  0.00    -0.268 OA
ATOM     36  O   UNL     1     -11.632   0.046   3.114  0.00  0.00    -0.485 OA
ATOM     37  C   UNL     1     -11.706  -1.366   3.336  0.00  0.00    +0.270 C 
ATOM     38  C   UNL     1     -10.393  -1.820   3.988  0.00  0.00    +0.270 C 
ATOM     39  O   UNL     1      -9.318  -1.506   3.096  0.00  0.00    -0.485 OA
ENDBRANCH  23  24
ENDBRANCH   1  23
TORSDOF 11
