REMARK  Name = ZINC39659623
REMARK  8 active torsions:
REMARK  status: ('A' for Active; 'I' for Inactive)
REMARK    1  A    between atoms: C_1  and  C_2
REMARK    2  A    between atoms: C_5  and  C_9
REMARK    3  A    between atoms: C_6  and  C_8
REMARK    4  A    between atoms: C_13  and  C_22
REMARK    5  A    between atoms: N_24  and  C_25
REMARK    6  A    between atoms: C_25  and  C_26
REMARK    7  A    between atoms: C_30  and  C_32
REMARK    8  A    between atoms: C_30  and  C_33
REMARK                            x       y       z     vdW  Elec       q    Type
REMARK                         _______ _______ _______ _____ _____    ______ ____
ROOT
ATOM      1  C   UNL     1       0.059  -4.412   0.065  0.00  0.00    +0.247 C 
ATOM      2  O   UNL     1       0.240  -4.977   1.126  0.00  0.00    -0.270 OA
ATOM      3  N   UNL     1      -0.080  -5.132  -1.066  0.00  0.00    -0.296 N 
ATOM      4  C   UNL     1      -0.204  -4.628  -2.454  0.00  0.00    +0.121 C 
ATOM      5  C   UNL     1       0.629  -5.614  -3.304  0.00  0.00    +0.100 C 
ATOM      6  C   UNL     1       0.662  -6.911  -2.478  0.00  0.00    -0.004 C 
ATOM      7  C   UNL     1      -0.138  -6.607  -1.204  0.00  0.00    +0.115 C 
ATOM      8  C   UNL     1       2.100  -7.271  -2.118  0.00  0.00    -0.010 C 
ATOM      9  C   UNL     1       2.112  -8.594  -1.346  0.00  0.00    -0.082 C 
ATOM     10  N   UNL     1       1.515  -9.650  -2.173  0.00  0.00    +0.379 N 
ATOM     11  C   UNL     1       0.105  -9.341  -2.438  0.00  0.00    -0.082 C 
ATOM     12  C   UNL     1       0.008  -8.050  -3.255  0.00  0.00    -0.010 C 
ATOM     13  H   UNL     1       2.014  -9.713  -3.047  0.00  0.00    -0.086 HD
ATOM     14  H   UNL     1       1.579 -10.532  -1.687  0.00  0.00    -0.086 HD
ENDROOT
BRANCH   1  19
ATOM     15  C   UNL     1      -0.201   1.333  -0.130  0.00  0.00    +0.044 C 
ATOM     16  C   UNL     1      -0.133  -0.172  -0.080  0.00  0.00    -0.050 A 
ATOM     17  C   UNL     1       0.719  -0.852  -0.932  0.00  0.00    +0.004 A 
ATOM     18  C   UNL     1       0.786  -2.229  -0.890  0.00  0.00    +0.013 A 
ATOM     19  C   UNL     1      -0.007  -2.936   0.015  0.00  0.00    +0.040 A 
ATOM     20  C   UNL     1      -0.864  -2.244   0.872  0.00  0.00    -0.038 A 
ATOM     21  C   UNL     1      -0.917  -0.866   0.824  0.00  0.00    +0.007 A 
ATOM     22  C   UNL     1      -1.723  -2.999   1.853  0.00  0.00    +0.044 C 
ENDBRANCH   1  19
BRANCH   5  23
ATOM     23  C   UNL     1      -0.038  -5.853  -4.634  0.00  0.00    +0.218 C 
ATOM     24  O   UNL     1      -1.248  -5.842  -4.717  0.00  0.00    -0.275 OA
ATOM     25  N   UNL     1       0.710  -6.079  -5.732  0.00  0.00    -0.312 N 
ATOM     26  H   UNL     1       1.678  -6.088  -5.666  0.00  0.00    +0.149 HD
BRANCH  25  27
ATOM     27  C   UNL     1       0.062  -6.311  -7.025  0.00  0.00    +0.138 C 
BRANCH  27  28
ATOM     28  C   UNL     1       1.130  -6.539  -8.097  0.00  0.00    +0.164 C 
ATOM     29  C   UNL     1       0.477  -6.729  -9.489  0.00  0.00    +0.196 C 
ATOM     30  O   UNL     1       1.538  -6.295 -10.373  0.00  0.00    -0.347 OA
ATOM     31  C   UNL     1       2.174  -5.209  -9.679  0.00  0.00    +0.165 C 
ATOM     32  O   UNL     1       1.938  -5.358  -8.270  0.00  0.00    -0.342 OA
ATOM     33  C   UNL     1       3.679  -5.236  -9.951  0.00  0.00    +0.074 C 
ATOM     34  C   UNL     1       1.591  -3.879 -10.162  0.00  0.00    +0.074 C 
ENDBRANCH  27  28
ENDBRANCH  25  27
ENDBRANCH   5  23
TORSDOF 4
