REMARK  Name = ZINC36500667
REMARK  10 active torsions:
REMARK  status: ('A' for Active; 'I' for Inactive)
REMARK    1  A    between atoms: C_1  and  C_2
REMARK    2  A    between atoms: C_5  and  C_8
REMARK    3  A    between atoms: C_8  and  C_10
REMARK    4  A    between atoms: C_8  and  N_19
REMARK    5  A    between atoms: N_12  and  C_13
REMARK    6  A    between atoms: N_19  and  C_20
REMARK    7  A    between atoms: C_20  and  C_21
REMARK    8  A    between atoms: C_26  and  C_28
REMARK    9  A    between atoms: C_29  and  O_35
REMARK   10  A    between atoms: C_33  and  O_34
REMARK                            x       y       z     vdW  Elec       q    Type
REMARK                         _______ _______ _______ _____ _____    ______ ____
ROOT
ATOM      1  N   UNL     1       0.272  -6.382  -1.731  0.00  0.00    -0.274 N 
ATOM      2  C   UNL     1       0.285  -5.768  -2.931  0.00  0.00    +0.255 C 
ATOM      3  O   UNL     1      -0.339  -4.736  -3.093  0.00  0.00    -0.270 OA
ENDROOT
BRANCH   2   4
ATOM      4  C   UNL     1       1.054  -6.345  -4.045  0.00  0.00    +0.119 A 
ATOM      5  C   UNL     1       0.451  -7.259  -4.922  0.00  0.00    +0.133 A 
ATOM      6  C   UNL     1       1.184  -7.796  -5.968  0.00  0.00    +0.046 A 
ATOM      7  C   UNL     1       2.506  -7.434  -6.148  0.00  0.00    +0.007 A 
ATOM      8  C   UNL     1       3.111  -6.535  -5.290  0.00  0.00    +0.046 A 
ATOM      9  C   UNL     1       2.395  -5.982  -4.241  0.00  0.00    +0.133 A 
BRANCH   9  10
ATOM     10  O   UNL     1       2.989  -5.095  -3.404  0.00  0.00    -0.506 OA
ATOM     11  H   UNL     1       3.418  -5.503  -2.639  0.00  0.00    +0.292 HD
ENDBRANCH   9  10
BRANCH   5  12
ATOM     12  O   UNL     1      -0.846  -7.615  -4.747  0.00  0.00    -0.506 OA
ATOM     13  H   UNL     1      -1.476  -7.051  -5.216  0.00  0.00    +0.292 HD
ENDBRANCH   5  12
ENDBRANCH   2   4
BRANCH   1  14
ATOM     14  C   UNL     1      -0.494  -5.807  -0.623  0.00  0.00    +0.193 C 
BRANCH  14  19
ATOM     15  C   UNL     1       3.058  -2.848   2.845  0.00  0.00    +0.044 C 
ATOM     16  C   UNL     1       2.131  -3.620   1.940  0.00  0.00    -0.050 A 
ATOM     17  C   UNL     1       0.880  -3.115   1.640  0.00  0.00    +0.004 A 
ATOM     18  C   UNL     1       0.030  -3.823   0.811  0.00  0.00    +0.006 A 
ATOM     19  C   UNL     1       0.432  -5.035   0.281  0.00  0.00    -0.018 A 
ATOM     20  C   UNL     1       1.684  -5.539   0.580  0.00  0.00    +0.006 A 
ATOM     21  C   UNL     1       2.535  -4.829   1.407  0.00  0.00    +0.004 A 
ENDBRANCH  14  19
BRANCH  14  22
ATOM     22  C   UNL     1      -1.152  -6.914   0.160  0.00  0.00    +0.238 C 
ATOM     23  O   UNL     1      -0.525  -7.913   0.442  0.00  0.00    -0.273 OA
ATOM     24  N   UNL     1      -2.438  -6.793   0.548  0.00  0.00    -0.311 N 
ATOM     25  H   UNL     1      -2.939  -5.994   0.323  0.00  0.00    +0.149 HD
BRANCH  24  26
ATOM     26  C   UNL     1      -3.077  -7.869   1.309  0.00  0.00    +0.073 C 
ATOM     27  C   UNL     1      -3.621  -8.924   0.343  0.00  0.00    +0.022 C 
ATOM     28  C   UNL     1      -4.289 -10.048   1.137  0.00  0.00    +0.002 C 
ATOM     29  C   UNL     1      -5.440  -9.472   1.965  0.00  0.00    +0.000 C 
ATOM     30  C   UNL     1      -4.897  -8.418   2.931  0.00  0.00    +0.002 C 
ATOM     31  C   UNL     1      -4.229  -7.294   2.136  0.00  0.00    +0.022 C 
ENDBRANCH  24  26
ENDBRANCH  14  22
ENDBRANCH   1  14
BRANCH   1  32
ATOM     32  C   UNL     1       1.023  -7.624  -1.536  0.00  0.00    +0.183 C 
BRANCH  32  33
ATOM     33  C   UNL     1       0.222  -8.785  -2.068  0.00  0.00    +0.122 A 
ATOM     34  C   UNL     1       0.695  -9.776  -2.846  0.00  0.00    +0.046 A 
ATOM     35  C   UNL     1      -0.391 -10.643  -3.108  0.00  0.00    +0.041 A 
ATOM     36  C   UNL     1      -1.461 -10.130  -2.475  0.00  0.00    +0.195 A 
ATOM     37  O   UNL     1      -1.083  -9.008  -1.842  0.00  0.00    -0.466 OA
ENDBRANCH  32  33
ENDBRANCH   1  32
TORSDOF 9
