REMARK  Name = ZINC02137851
REMARK  7 active torsions:
REMARK  status: ('A' for Active; 'I' for Inactive)
REMARK    1  A    between atoms: C_1  and  C_2
REMARK    2  A    between atoms: C_2  and  C_3
REMARK    3  A    between atoms: C_3  and  C_4
REMARK    4  A    between atoms: C_11  and  O_22
REMARK    5  A    between atoms: C_18  and  C_20
REMARK    6  A    between atoms: C_18  and  C_21
REMARK    7  A    between atoms: O_22  and  C_23
REMARK                            x       y       z     vdW  Elec       q    Type
REMARK                         _______ _______ _______ _____ _____    ______ ____
ROOT
ATOM      1  C   UNL     1       3.620   2.162  -0.013  0.00  0.00    -0.026 A 
ATOM      2  C   UNL     1       4.785   1.468   0.085  0.00  0.00    +0.096 A 
ATOM      3  C   UNL     1       4.760   0.061   0.071  0.00  0.00    +0.338 A 
ATOM      4  O   UNL     1       5.810  -0.549   0.161  0.00  0.00    -0.245 OA
ATOM      5  O   UNL     1       3.617  -0.628  -0.037  0.00  0.00    -0.421 OA
ATOM      6  C   UNL     1       2.447   0.029  -0.135  0.00  0.00    +0.157 A 
ATOM      7  C   UNL     1       2.409   1.432  -0.127  0.00  0.00    +0.063 A 
ATOM      8  C   UNL     1       1.175   2.104  -0.232  0.00  0.00    +0.135 A 
ATOM      9  C   UNL     1      -0.003   1.387  -0.338  0.00  0.00    +0.092 A 
ATOM     10  C   UNL     1       0.016  -0.001  -0.344  0.00  0.00    +0.139 A 
ATOM     11  C   UNL     1       1.242  -0.684  -0.249  0.00  0.00    +0.102 A 
ATOM     12  C   UNL     1       1.247  -2.151  -0.273  0.00  0.00    +0.174 C 
ATOM     13  O   UNL     1       2.274  -2.783  -0.415  0.00  0.00    -0.292 OA
ATOM     14  C   UNL     1      -0.097  -2.838  -0.111  0.00  0.00    +0.127 C 
ATOM     15  C   UNL     1      -1.120  -2.027  -0.920  0.00  0.00    +0.112 C 
ATOM     16  O   UNL     1      -1.149  -0.685  -0.435  0.00  0.00    -0.485 OA
ATOM     17  C   UNL     1      -0.720  -2.028  -2.397  0.00  0.00    +0.056 C 
ATOM     18  C   UNL     1      -2.506  -2.656  -0.766  0.00  0.00    +0.056 C 
ENDROOT
BRANCH   8  19
ATOM     19  O   UNL     1       1.142   3.458  -0.230  0.00  0.00    -0.494 OA
ATOM     20  C   UNL     1      -0.141   4.076  -0.340  0.00  0.00    +0.277 C 
ENDBRANCH   8  19
BRANCH   1  21
ATOM     21  C   UNL     1       3.616   3.669  -0.001  0.00  0.00    +0.036 C 
BRANCH  21  23
ATOM     22  C   UNL     1       3.474   5.720  -1.422  0.00  0.00    +0.004 C 
ATOM     23  C   UNL     1       3.479   4.190  -1.434  0.00  0.00    +0.001 C 
ENDBRANCH  21  23
ENDBRANCH   1  21
TORSDOF 3
