REMARK  Name = ZINC39654927
REMARK  6 active torsions:
REMARK  status: ('A' for Active; 'I' for Inactive)
REMARK    1  A    between atoms: C_3  and  O_8
REMARK    2  A    between atoms: O_8  and  C_9
REMARK    3  A    between atoms: C_9  and  C_10
REMARK    4  A    between atoms: C_14  and  C_23
REMARK    5  A    between atoms: N_25  and  C_26
REMARK    6  A    between atoms: C_26  and  C_27
REMARK                            x       y       z     vdW  Elec       q    Type
REMARK                         _______ _______ _______ _____ _____    ______ ____
ROOT
ATOM      1  C   UNL     1       6.042   2.402  -0.009  0.00  0.00    +0.253 C 
ATOM      2  O   UNL     1       5.897   3.605  -0.056  0.00  0.00    -0.272 OA
ATOM      3  N   UNL     1       7.279   1.870  -0.059  0.00  0.00    -0.297 N 
ATOM      4  C   UNL     1       7.654   0.437  -0.021  0.00  0.00    +0.121 C 
ATOM      5  C   UNL     1       8.815   0.310  -1.033  0.00  0.00    +0.100 C 
ATOM      6  C   UNL     1       9.415   1.724  -1.121  0.00  0.00    -0.004 C 
ATOM      7  C   UNL     1       8.572   2.587  -0.170  0.00  0.00    +0.115 C 
ATOM      8  C   UNL     1       9.304   2.257  -2.545  0.00  0.00    -0.010 C 
ATOM      9  C   UNL     1       9.958   3.640  -2.620  0.00  0.00    -0.082 C 
ATOM     10  N   UNL     1      11.368   3.539  -2.222  0.00  0.00    +0.379 N 
ATOM     11  C   UNL     1      11.463   3.113  -0.820  0.00  0.00    -0.082 C 
ATOM     12  C   UNL     1      10.872   1.709  -0.670  0.00  0.00    -0.010 C 
ATOM     13  H   UNL     1      11.834   2.863  -2.809  0.00  0.00    -0.086 HD
ATOM     14  H   UNL     1      11.812   4.438  -2.330  0.00  0.00    -0.086 HD
ENDROOT
BRANCH   5  15
ATOM     15  C   UNL     1       9.844  -0.669  -0.530  0.00  0.00    +0.219 C 
ATOM     16  O   UNL     1      10.021  -0.804   0.662  0.00  0.00    -0.275 OA
ATOM     17  N   UNL     1      10.568  -1.394  -1.406  0.00  0.00    -0.308 N 
ATOM     18  H   UNL     1      10.426  -1.286  -2.359  0.00  0.00    +0.149 HD
BRANCH  17  19
ATOM     19  C   UNL     1      11.569  -2.346  -0.917  0.00  0.00    +0.178 C 
BRANCH  19  20
ATOM     20  C   UNL     1      12.232  -3.023  -2.089  0.00  0.00    +0.122 A 
ATOM     21  C   UNL     1      13.340  -2.594  -2.721  0.00  0.00    +0.046 A 
ATOM     22  C   UNL     1      13.609  -3.523  -3.752  0.00  0.00    +0.041 A 
ATOM     23  C   UNL     1      12.649  -4.464  -3.688  0.00  0.00    +0.195 A 
ATOM     24  O   UNL     1      11.822  -4.159  -2.676  0.00  0.00    -0.466 OA
ENDBRANCH  19  20
ENDBRANCH  17  19
ENDBRANCH   5  15
BRANCH   1  25
ATOM     25  C   UNL     1       4.839   1.502   0.105  0.00  0.00    +0.324 C 
BRANCH  25  26
ATOM     26  O   UNL     1       3.651   2.296   0.140  0.00  0.00    -0.483 OA
BRANCH  26  29
ATOM     27  C   UNL     1       0.076   1.667   0.384  0.00  0.00    +0.005 A 
ATOM     28  C   UNL     1       1.277   2.342   0.281  0.00  0.00    +0.046 A 
ATOM     29  C   UNL     1       2.469   1.634   0.242  0.00  0.00    +0.123 A 
ATOM     30  C   UNL     1       2.452   0.248   0.307  0.00  0.00    +0.065 A 
ATOM     31  C   UNL     1       1.248  -0.423   0.410  0.00  0.00    +0.044 A 
ATOM     32  C   UNL     1       0.060   0.287   0.449  0.00  0.00    +0.020 A 
ATOM     33 CL   UNL     1       1.226  -2.157   0.491  0.00  0.00    -0.083 Cl
ENDBRANCH  26  29
ENDBRANCH  25  26
ENDBRANCH   1  25
TORSDOF 6
