REMARK  Name = ZINC13253664
REMARK  7 active torsions:
REMARK  status: ('A' for Active; 'I' for Inactive)
REMARK    1  A    between atoms: C_1  and  C_2
REMARK    2  A    between atoms: C_3  and  C_32
REMARK    3  A    between atoms: C_9  and  C_13
REMARK    4  A    between atoms: C_13  and  S_14
REMARK    5  A    between atoms: S_14  and  C_15
REMARK    6  A    between atoms: N_28  and  C_29
REMARK    7  A    between atoms: C_29  and  C_30
REMARK                            x       y       z     vdW  Elec       q    Type
REMARK                         _______ _______ _______ _____ _____    ______ ____
ROOT
ATOM      1  S   UNL     1      -6.811   5.010  -2.406  0.00  0.00    -0.078 S 
ENDROOT
BRANCH   1   2
ATOM      2  C   UNL     1      -5.411   4.471  -1.481  0.00  0.00    +0.198 A 
ATOM      3  N   UNL     1      -5.415   4.102  -0.224  0.00  0.00    -0.120 NA
ATOM      4  N   UNL     1      -4.106   3.750   0.128  0.00  0.00    -0.109 NA
ATOM      5  C   UNL     1      -3.340   3.914  -0.927  0.00  0.00    +0.240 A 
ATOM      6  N   UNL     1      -4.130   4.365  -1.950  0.00  0.00    -0.256 N 
ATOM      7  C   UNL     1      -3.582   4.628  -3.203  0.00  0.00    +0.064 A 
ATOM      8  C   UNL     1      -4.374   5.085  -4.246  0.00  0.00    +0.027 A 
ATOM      9  C   UNL     1      -3.806   5.338  -5.479  0.00  0.00    +0.002 A 
ATOM     10  C   UNL     1      -2.450   5.140  -5.686  0.00  0.00    +0.001 A 
ATOM     11  C   UNL     1      -1.648   4.687  -4.660  0.00  0.00    +0.015 A 
ATOM     12  C   UNL     1      -2.209   4.427  -3.410  0.00  0.00    +0.064 A 
ATOM     13  C   UNL     1      -1.385   3.947  -2.286  0.00  0.00    +0.263 A 
ATOM     14  O   UNL     1      -0.191   3.766  -2.427  0.00  0.00    -0.267 OA
ATOM     15  N   UNL     1      -1.980   3.706  -1.100  0.00  0.00    -0.273 N 
BRANCH  15  16
ATOM     16  C   UNL     1      -1.176   3.222   0.025  0.00  0.00    +0.155 C 
BRANCH  16  17
ATOM     17  C   UNL     1      -1.156   1.715   0.017  0.00  0.00    -0.013 C 
ATOM     18  C   UNL     1      -0.013   1.076   0.008  0.00  0.00    +0.005 C 
ENDBRANCH  16  17
ENDBRANCH  15  16
ENDBRANCH   1   2
BRANCH   1  19
ATOM     19  C   UNL     1      -8.181   4.922  -1.220  0.00  0.00    +0.151 C 
BRANCH  19  28
ATOM     20  C   UNL     1     -12.645   7.334  -6.524  0.00  0.00    +0.087 C 
ATOM     21  C   UNL     1     -12.043   6.840  -5.234  0.00  0.00    +0.119 A 
ATOM     22  C   UNL     1     -12.730   6.630  -4.076  0.00  0.00    +0.118 A 
ATOM     23  C   UNL     1     -11.731   6.154  -3.105  0.00  0.00    +0.118 A 
ATOM     24  C   UNL     1     -11.764   5.761  -1.750  0.00  0.00    +0.263 A 
ATOM     25  O   UNL     1     -12.807   5.774  -1.119  0.00  0.00    -0.267 OA
ATOM     26  N   UNL     1     -10.605   5.370  -1.172  0.00  0.00    -0.309 N 
ATOM     27  H   UNL     1     -10.596   5.094  -0.242  0.00  0.00    +0.170 HD
ATOM     28  C   UNL     1      -9.456   5.363  -1.892  0.00  0.00    +0.124 A 
ATOM     29  N   UNL     1      -9.413   5.728  -3.143  0.00  0.00    -0.198 NA
ATOM     30  C   UNL     1     -10.518   6.125  -3.793  0.00  0.00    +0.235 A 
ATOM     31  O   UNL     1     -10.751   6.540  -5.049  0.00  0.00    -0.441 OA
BRANCH  22  32
ATOM     32  C   UNL     1     -14.168   6.835  -3.845  0.00  0.00    +0.391 C 
ATOM     33  O   UNL     1     -14.573   7.913  -3.457  0.00  0.00    -0.240 OA
ATOM     34  O   UNL     1     -15.036   5.827  -4.065  0.00  0.00    -0.240 OA
ENDBRANCH  22  32
ENDBRANCH  19  28
ENDBRANCH   1  19
TORSDOF 6
