REMARK  Name = ZINC12377847
REMARK  4 active torsions:
REMARK  status: ('A' for Active; 'I' for Inactive)
REMARK    1  A    between atoms: C_1  and  C_2
REMARK    2  A    between atoms: C_2  and  C_5
REMARK    3  A    between atoms: N_3  and  O_4
REMARK    4  A    between atoms: N_15  and  C_18
REMARK                            x       y       z     vdW  Elec       q    Type
REMARK                         _______ _______ _______ _____ _____    ______ ____
ROOT
ATOM      1  C   UNL     1      -0.229  -0.810  -1.212  0.00  0.00    +0.001 A 
ATOM      2  C   UNL     1      -0.128  -0.215  -2.475  0.00  0.00    +0.010 A 
ATOM      3  C   UNL     1      -0.341  -0.954  -3.602  0.00  0.00    +0.011 A 
ATOM      4  C   UNL     1      -0.660  -2.308  -3.501  0.00  0.00    +0.008 A 
ATOM      5  C   UNL     1      -0.943  -3.356  -4.497  0.00  0.00    +0.008 A 
ATOM      6  C   UNL     1      -0.990  -3.366  -5.890  0.00  0.00    +0.010 A 
ATOM      7  C   UNL     1      -1.290  -4.534  -6.556  0.00  0.00    +0.001 A 
ATOM      8  C   UNL     1      -1.545  -5.698  -5.846  0.00  0.00    +0.002 A 
ATOM      9  C   UNL     1      -1.502  -5.702  -4.468  0.00  0.00    +0.026 A 
ATOM     10  C   UNL     1      -1.200  -4.533  -3.777  0.00  0.00    +0.050 A 
ATOM     11  N   UNL     1      -1.089  -4.251  -2.428  0.00  0.00    -0.343 N 
ATOM     12  C   UNL     1      -0.765  -2.918  -2.241  0.00  0.00    +0.050 A 
ATOM     13  C   UNL     1      -0.542  -2.163  -1.097  0.00  0.00    +0.036 A 
ATOM     14  C   UNL     1      -1.287  -5.224  -1.350  0.00  0.00    +0.149 C 
ENDROOT
BRANCH   1  16
ATOM     15  C   UNL     1      -0.391   1.450   0.026  0.00  0.00    +0.069 C 
ATOM     16  C   UNL     1       0.002  -0.004   0.002  0.00  0.00    +0.084 C 
ATOM     17  N   UNL     1       0.542  -0.546   1.045  0.00  0.00    -0.092 NA
BRANCH  17  18
ATOM     18  O   UNL     1       1.033  -1.873   0.981  0.00  0.00    -0.409 OA
ATOM     19  H   UNL     1       1.418  -2.191   1.808  0.00  0.00    +0.328 HD
ENDBRANCH  17  18
ENDBRANCH   1  16
TORSDOF 2
