REMARK  Name = ZINC00411298
REMARK  8 active torsions:
REMARK  status: ('A' for Active; 'I' for Inactive)
REMARK    1  A    between atoms: C_1  and  C_2
REMARK    2  A    between atoms: C_2  and  N_3
REMARK    3  A    between atoms: N_3  and  C_4
REMARK    4  A    between atoms: N_3  and  C_6
REMARK    5  A    between atoms: C_4  and  C_5
REMARK    6  A    between atoms: C_10  and  N_17
REMARK    7  A    between atoms: N_17  and  C_18
REMARK    8  A    between atoms: C_24  and  C_26
REMARK                            x       y       z     vdW  Elec       q    Type
REMARK                         _______ _______ _______ _____ _____    ______ ____
ROOT
ATOM      1  C   UNL     1      -2.635   2.183  -5.862  0.00  0.00    +0.033 A 
ATOM      2  C   UNL     1      -2.766   2.906  -4.677  0.00  0.00    +0.024 A 
ATOM      3  C   UNL     1      -2.121   2.498  -3.545  0.00  0.00    +0.015 A 
ATOM      4  C   UNL     1      -1.324   1.350  -3.575  0.00  0.00    +0.039 A 
ATOM      5  C   UNL     1      -0.618   0.887  -2.370  0.00  0.00    +0.045 A 
ATOM      6  C   UNL     1       0.148  -0.260  -2.471  0.00  0.00    +0.115 A 
ATOM      7  C   UNL     1       0.230  -0.930  -3.696  0.00  0.00    +0.339 A 
ATOM      8  O   UNL     1       0.908  -1.941  -3.774  0.00  0.00    -0.245 OA
ATOM      9  O   UNL     1      -0.416  -0.493  -4.789  0.00  0.00    -0.422 OA
ATOM     10  C   UNL     1      -1.182   0.619  -4.767  0.00  0.00    +0.143 A 
ATOM     11  C   UNL     1      -1.839   1.048  -5.910  0.00  0.00    +0.070 A 
ENDROOT
BRANCH   5  12
ATOM     12  N   UNL     1      -0.721   1.571  -1.179  0.00  0.00    -0.340 N 
ATOM     13  H   UNL     1      -1.263   2.374  -1.126  0.00  0.00    +0.146 HD
BRANCH  12  14
ATOM     14  C   UNL     1      -0.013   1.086   0.008  0.00  0.00    +0.073 C 
ATOM     15  C   UNL     1       1.423   1.615  -0.003  0.00  0.00    +0.022 C 
ATOM     16  C   UNL     1       1.402   3.145   0.006  0.00  0.00    +0.002 C 
ATOM     17  C   UNL     1       0.686   3.639   1.264  0.00  0.00    +0.000 C 
ATOM     18  C   UNL     1      -0.750   3.109   1.275  0.00  0.00    +0.005 C 
ATOM     19  C   UNL     1      -0.729   1.579   1.267  0.00  0.00    +0.006 C 
ATOM     20  C   UNL     1      -2.164   1.050   1.278  0.00  0.00    +0.009 C 
ENDBRANCH  12  14
ENDBRANCH   5  12
BRANCH   1  21
ATOM     21  N   UNL     1      -3.299   2.611  -7.009  0.00  0.00    -0.330 N 
BRANCH  21  23
ATOM     22  C   UNL     1      -3.278   5.037  -7.316  0.00  0.00    +0.024 C 
ATOM     23  C   UNL     1      -4.131   3.815  -6.968  0.00  0.00    +0.102 C 
ENDBRANCH  21  23
BRANCH  21  24
ATOM     24  C   UNL     1      -3.165   1.855  -8.257  0.00  0.00    +0.102 C 
ATOM     25  C   UNL     1      -4.261   0.790  -8.329  0.00  0.00    +0.024 C 
ENDBRANCH  21  24
ENDBRANCH   1  21
TORSDOF 5
