REMARK  Name = ZINC49476038
REMARK  6 active torsions:
REMARK  status: ('A' for Active; 'I' for Inactive)
REMARK    1  A    between atoms: C_1  and  C_2
REMARK    2  A    between atoms: C_3  and  N_8
REMARK    3  A    between atoms: C_9  and  C_11
REMARK    4  A    between atoms: C_11  and  C_13
REMARK    5  A    between atoms: C_11  and  N_14
REMARK    6  A    between atoms: C_15  and  C_17
REMARK                            x       y       z     vdW  Elec       q    Type
REMARK                         _______ _______ _______ _____ _____    ______ ____
ROOT
ATOM      1  C   UNL     1      -0.010  -0.794  -4.913  0.00  0.00    +0.156 C 
ATOM      2  C   UNL     1      -1.272   0.034  -5.163  0.00  0.00    +0.038 C 
ENDROOT
BRANCH   1   4
ATOM      3  N   UNL     1      -0.004  -0.375  -2.475  0.00  0.00    -0.281 N 
ATOM      4  C   UNL     1       0.003  -1.269  -3.483  0.00  0.00    +0.237 C 
ATOM      5  O   UNL     1       0.021  -2.458  -3.239  0.00  0.00    -0.273 OA
ATOM      6  H   UNL     1      -0.019   0.576  -2.670  0.00  0.00    +0.155 HD
BRANCH   3   9
ATOM      7  C   UNL     1      -0.018   1.503   0.010  0.00  0.00    +0.069 C 
ATOM      8  C   UNL     1       0.002  -0.004   0.002  0.00  0.00    +0.081 A 
ATOM      9  C   UNL     1       0.008  -0.819  -1.140  0.00  0.00    +0.074 A 
ATOM     10  C   UNL     1       0.028  -2.112  -0.727  0.00  0.00    +0.128 A 
ATOM     11  N   UNL     1       0.034  -2.109   0.631  0.00  0.00    -0.283 N 
ATOM     12  H   UNL     1       0.048  -2.892   1.203  0.00  0.00    +0.188 HD
ATOM     13  N   UNL     1       0.023  -0.776   1.058  0.00  0.00    -0.177 NA
ENDBRANCH   3   9
ENDBRANCH   1   4
BRANCH   1  14
ATOM     14  N   UNL     1       0.002  -1.950  -5.812  0.00  0.00    -0.300 N 
ATOM     15  C   UNL     1       0.487  -1.826  -7.063  0.00  0.00    +0.251 C 
ATOM     16  O   UNL     1       0.916  -0.753  -7.446  0.00  0.00    -0.270 OA
ATOM     17  H   UNL     1      -0.340  -2.805  -5.508  0.00  0.00    +0.150 HD
BRANCH  15  18
ATOM     18  C   UNL     1       0.499  -2.982  -7.963  0.00  0.00    +0.075 A 
ATOM     19  C   UNL     1       0.954  -3.068  -9.270  0.00  0.00    +0.022 A 
ATOM     20  C   UNL     1       0.834  -4.301  -9.864  0.00  0.00    +0.024 A 
ATOM     21  C   UNL     1       0.293  -5.324  -9.156  0.00  0.00    +0.056 A 
ATOM     22  S   UNL     1      -0.061  -4.647  -7.659  0.00  0.00    -0.077 S 
ATOM     23 BR   UNL     1       0.010  -7.107  -9.720  0.00  0.00    -0.043 Br
ENDBRANCH  15  18
ENDBRANCH   1  14
TORSDOF 4
