REMARK  Name = ZINC09884581
REMARK  15 active torsions:
REMARK  status: ('A' for Active; 'I' for Inactive)
REMARK    1  A    between atoms: C_1  and  C_2
REMARK    2  A    between atoms: C_5  and  C_7
REMARK    3  A    between atoms: C_10  and  C_12
REMARK    4  A    between atoms: C_12  and  N_69
REMARK    5  A    between atoms: C_13  and  N_69
REMARK    6  A    between atoms: C_14  and  C_15
REMARK    7  A    between atoms: C_14  and  N_69
REMARK    8  A    between atoms: N_17  and  C_18
REMARK    9  A    between atoms: N_17  and  C_22
REMARK   10  A    between atoms: C_18  and  C_19
REMARK   11  A    between atoms: C_19  and  O_20
REMARK   12  A    between atoms: O_20  and  C_21
REMARK   13  A    between atoms: C_23  and  N_38
REMARK   14  A    between atoms: N_24  and  C_31
REMARK   15  A    between atoms: C_31  and  C_32
REMARK                            x       y       z     vdW  Elec       q    Type
REMARK                         _______ _______ _______ _____ _____    ______ ____
ROOT
ATOM      1  C   UNL     1      -2.372   5.062  -0.200  0.00  0.00    +0.203 C 
ATOM      2  O   UNL     1      -1.300   5.630  -0.238  0.00  0.00    -0.277 OA
ATOM      3  N   UNL     1      -2.427   3.742   0.072  0.00  0.00    -0.264 N 
ENDROOT
BRANCH   3   4
ATOM      4  C   UNL     1      -1.234   3.004   0.228  0.00  0.00    +0.140 A 
ATOM      5  C   UNL     1      -0.890   2.026  -0.684  0.00  0.00    +0.128 A 
ATOM      6  N   UNL     1       0.279   1.324  -0.505  0.00  0.00    -0.276 N 
ATOM      7  C   UNL     1       1.078   1.586   0.545  0.00  0.00    +0.331 A 
ATOM      8  O   UNL     1       2.107   0.954   0.686  0.00  0.00    -0.246 OA
ATOM      9  N   UNL     1       0.758   2.535   1.444  0.00  0.00    -0.273 N 
ATOM     10  H   UNL     1       1.371   2.713   2.214  0.00  0.00    +0.173 HD
ATOM     11  C   UNL     1      -0.378   3.248   1.318  0.00  0.00    +0.277 A 
ATOM     12  O   UNL     1      -0.661   4.102   2.141  0.00  0.00    -0.266 OA
BRANCH   5  13
ATOM     13  N   UNL     1      -1.705   1.759  -1.757  0.00  0.00    -0.343 N 
ATOM     14  H   UNL     1      -1.424   1.122  -2.433  0.00  0.00    +0.144 HD
ATOM     15  H   UNL     1      -2.562   2.206  -1.839  0.00  0.00    +0.144 HD
ENDBRANCH   5  13
BRANCH   6  16
ATOM     16  C   UNL     1       0.658   0.284  -1.466  0.00  0.00    +0.163 C 
BRANCH  16  17
ATOM     17  C   UNL     1       0.089  -1.039  -1.023  0.00  0.00    -0.028 A 
ATOM     18  C   UNL     1       0.827  -1.866  -0.196  0.00  0.00    +0.005 A 
ATOM     19  C   UNL     1       0.303  -3.078   0.214  0.00  0.00    +0.000 A 
ATOM     20  C   UNL     1      -0.953  -3.468  -0.211  0.00  0.00    +0.000 A 
ATOM     21  C   UNL     1      -1.688  -2.643  -1.042  0.00  0.00    +0.000 A 
ATOM     22  C   UNL     1      -1.167  -1.429  -1.448  0.00  0.00    +0.005 A 
ENDBRANCH  16  17
ENDBRANCH   6  16
ENDBRANCH   3   4
BRANCH   1  23
ATOM     23  C   UNL     1      -3.642   5.831  -0.459  0.00  0.00    +0.019 C 
BRANCH  23  25
ATOM     24  C   UNL     1      -2.565   7.373  -1.984  0.00  0.00    -0.095 C 
ATOM     25  N   UNL     1      -3.299   7.247  -0.707  0.00  0.00    +0.388 N 
ATOM     26  H   UNL     1      -2.702   7.585   0.056  0.00  0.00    -0.081 HD
BRANCH  25  27
ATOM     27  C   UNL     1      -4.530   8.065  -0.751  0.00  0.00    -0.003 C 
BRANCH  27  31
ATOM     28  C   UNL     1      -3.617  11.543  -0.117  0.00  0.00    +0.108 A 
ATOM     29  C   UNL     1      -3.601  11.560  -1.462  0.00  0.00    +0.045 A 
ATOM     30  C   UNL     1      -3.936  10.255  -1.892  0.00  0.00    +0.043 A 
ATOM     31  C   UNL     1      -4.145   9.521  -0.784  0.00  0.00    +0.089 A 
ATOM     32  O   UNL     1      -3.947  10.306   0.288  0.00  0.00    -0.466 OA
BRANCH  28  36
ATOM     33  C   UNL     1      -4.529  14.670   2.025  0.00  0.00    +0.008 C 
ATOM     34  C   UNL     1      -4.418  13.171   1.740  0.00  0.00    -0.003 C 
ATOM     35  C   UNL     1      -3.188  12.439   2.282  0.00  0.00    +0.015 C 
ATOM     36  C   UNL     1      -3.316  12.714   0.782  0.00  0.00    +0.058 C 
ENDBRANCH  28  36
ENDBRANCH  27  31
ENDBRANCH  25  27
ENDBRANCH  23  25
ENDBRANCH   1  23
BRANCH   3  37
ATOM     37  C   UNL     1      -3.724   3.075   0.207  0.00  0.00    +0.142 C 
BRANCH  37  38
ATOM     38  C   UNL     1      -4.141   3.062   1.679  0.00  0.00    +0.178 C 
BRANCH  38  39
ATOM     39  O   UNL     1      -4.357   4.403   2.124  0.00  0.00    -0.381 OA
ATOM     40  C   UNL     1      -4.753   4.504   3.494  0.00  0.00    +0.194 C 
ENDBRANCH  38  39
ENDBRANCH  37  38
ENDBRANCH   3  37
TORSDOF 12
