REMARK  Name = ZINC38573433
REMARK  11 active torsions:
REMARK  status: ('A' for Active; 'I' for Inactive)
REMARK    1  A    between atoms: C_1  and  C_2
REMARK    2  A    between atoms: C_5  and  O_35
REMARK    3  A    between atoms: C_6  and  C_8
REMARK    4  A    between atoms: C_11  and  C_13
REMARK    5  A    between atoms: N_15  and  C_16
REMARK    6  A    between atoms: C_18  and  C_27
REMARK    7  A    between atoms: N_29  and  C_30
REMARK    8  A    between atoms: C_30  and  C_31
REMARK    9  A    between atoms: C_31  and  C_32
REMARK   10  A    between atoms: C_32  and  O_33
REMARK   11  A    between atoms: O_33  and  C_34
REMARK                            x       y       z     vdW  Elec       q    Type
REMARK                         _______ _______ _______ _____ _____    ______ ____
ROOT
ATOM      1  C   UNL     1       0.574  -3.753   6.130  0.00  0.00    +0.261 C 
ATOM      2  O   UNL     1       1.060  -2.859   6.797  0.00  0.00    -0.269 OA
ATOM      3  N   UNL     1       0.061  -4.843   6.734  0.00  0.00    -0.294 N 
ATOM      4  H   UNL     1      -0.326  -5.556   6.202  0.00  0.00    +0.150 HD
ENDROOT
BRANCH   3   5
ATOM      5  C   UNL     1       0.090  -4.952   8.195  0.00  0.00    +0.167 C 
ATOM      6  C   UNL     1      -1.016  -5.861   8.698  0.00  0.00    +0.045 C 
ATOM      7  C   UNL     1      -1.763  -5.456   9.693  0.00  0.00    -0.046 C 
ATOM      8  C   UNL     1      -2.983  -6.197  10.240  0.00  0.00    +0.032 C 
ATOM      9  C   UNL     1      -3.349  -5.515  11.562  0.00  0.00    +0.004 C 
ATOM     10  C   UNL     1      -3.697  -4.046  11.367  0.00  0.00    +0.002 C 
ATOM     11  C   UNL     1      -2.774  -3.341  10.376  0.00  0.00    +0.018 C 
ATOM     12  C   UNL     1      -1.439  -4.085  10.305  0.00  0.00    +0.075 C 
ATOM     13  S   UNL     1      -0.379  -3.354   8.991  0.00  0.00    -0.126 S 
BRANCH   6  14
ATOM     14  C   UNL     1      -1.246  -7.174   8.076  0.00  0.00    +0.243 C 
ATOM     15  O   UNL     1      -2.203  -7.846   8.412  0.00  0.00    -0.270 OA
ATOM     16  N   UNL     1      -0.397  -7.633   7.136  0.00  0.00    -0.311 N 
ATOM     17  H   UNL     1       0.404  -7.130   6.919  0.00  0.00    +0.149 HD
BRANCH  16  18
ATOM     18  C   UNL     1      -0.684  -8.890   6.440  0.00  0.00    +0.107 C 
BRANCH  18  19
ATOM     19  C   UNL     1       0.429  -9.179   5.431  0.00  0.00    +0.047 C 
BRANCH  19  20
ATOM     20  C   UNL     1       0.130 -10.492   4.704  0.00  0.00    +0.161 C 
BRANCH  20  21
ATOM     21  O   UNL     1       1.169 -10.762   3.761  0.00  0.00    -0.383 OA
ATOM     22  C   UNL     1       0.985 -11.973   3.025  0.00  0.00    +0.193 C 
ENDBRANCH  20  21
ENDBRANCH  19  20
ENDBRANCH  18  19
ENDBRANCH  16  18
ENDBRANCH   6  14
ENDBRANCH   3   5
BRANCH   1  26
ATOM     23  C   UNL     1       0.743  -2.991   2.414  0.00  0.00    +0.080 C 
ATOM     24  N   UNL     1       0.167  -4.159   2.593  0.00  0.00    -0.153 NA
ATOM     25  N   UNL     1       0.062  -4.508   3.815  0.00  0.00    -0.148 NA
ATOM     26  C   UNL     1       0.545  -3.643   4.668  0.00  0.00    +0.131 C 
ATOM     27  C   UNL     1       1.076  -2.503   3.815  0.00  0.00    +0.120 C 
BRANCH  23  33
ATOM     28  C   UNL     1       2.575   0.914  -0.076  0.00  0.00    +0.044 C 
ATOM     29  C   UNL     1       1.893  -0.430  -0.064  0.00  0.00    -0.050 A 
ATOM     30  C   UNL     1       1.520  -1.025  -1.260  0.00  0.00    +0.007 A 
ATOM     31  C   UNL     1       0.894  -2.256  -1.266  0.00  0.00    +0.046 A 
ATOM     32  C   UNL     1       0.634  -2.910  -0.071  0.00  0.00    +0.126 A 
ATOM     33  C   UNL     1       1.011  -2.312   1.145  0.00  0.00    +0.040 A 
ATOM     34  C   UNL     1       1.650  -1.064   1.133  0.00  0.00    +0.016 A 
BRANCH  32  35
ATOM     35  O   UNL     1       0.019  -4.118  -0.075  0.00  0.00    -0.506 OA
ATOM     36  H   UNL     1       0.627  -4.869  -0.124  0.00  0.00    +0.292 HD
ENDBRANCH  32  35
ENDBRANCH  23  33
ENDBRANCH   1  26
TORSDOF 9
