REMARK  Name = ZINC04482466
REMARK  2 active torsions:
REMARK  status: ('A' for Active; 'I' for Inactive)
REMARK    1  A    between atoms: C_8  and  C_12
REMARK    2  A    between atoms: C_17  and  C_20
REMARK                            x       y       z     vdW  Elec       q    Type
REMARK                         _______ _______ _______ _____ _____    ______ ____
ROOT
ATOM      1  C   UNL     1       1.897  -4.693   0.511  0.00  0.00    +0.075 C 
ATOM      2  N   UNL     1       3.057  -5.256   0.331  0.00  0.00    -0.184 NA
ATOM      3  N   UNL     1       3.168  -6.650   0.409  0.00  0.00    -0.210 N 
ATOM      4  C   UNL     1       2.928  -7.265   1.627  0.00  0.00    +0.172 C 
ATOM      5  N   UNL     1       1.625  -7.401   2.044  0.00  0.00    -0.310 N 
ATOM      6  C   UNL     1       0.773  -6.205   2.138  0.00  0.00    +0.109 C 
ATOM      7  C   UNL     1       0.678  -5.550   0.759  0.00  0.00    +0.085 C 
ATOM      8  H   UNL     1       3.406  -7.172  -0.373  0.00  0.00    +0.177 HD
ATOM      9  H   UNL     1       4.862  -7.647   2.139  0.00  0.00    +0.158 HD
ATOM     10  H   UNL     1       1.272  -8.275   2.274  0.00  0.00    +0.149 HD
ATOM     11  N   UNL     1       3.884  -7.731   2.417  0.00  0.00    -0.374 N 
ATOM     12  H   UNL     1       3.641  -8.177   3.310  0.00  0.00    +0.158 HD
ENDROOT
BRANCH   1  20
ATOM     13  C   UNL     1      -0.776   0.874   0.725  0.00  0.00    +0.001 A 
ATOM     14  C   UNL     1       0.381   1.603   0.494  0.00  0.00    +0.004 A 
ATOM     15  C   UNL     1       1.591   0.966   0.314  0.00  0.00    +0.047 A 
ATOM     16  C   UNL     1       1.658  -0.422   0.364  0.00  0.00    +0.139 A 
ATOM     17  C   UNL     1       0.484  -1.158   0.598  0.00  0.00    +0.018 A 
ATOM     18  C   UNL     1      -0.735  -0.491   0.778  0.00  0.00    +0.011 A 
ATOM     19  C   UNL     1       0.544  -2.619   0.652  0.00  0.00    +0.028 A 
ATOM     20  C   UNL     1       1.773  -3.227   0.468  0.00  0.00    +0.083 A 
ATOM     21  C   UNL     1       2.951  -2.384   0.228  0.00  0.00    +0.346 A 
ATOM     22  O   UNL     1       4.039  -2.903   0.064  0.00  0.00    -0.244 OA
ATOM     23  O   UNL     1       2.841  -1.048   0.188  0.00  0.00    -0.422 OA
ENDBRANCH   1  20
BRANCH   6  24
ATOM     24  C   UNL     1       1.375  -5.231   3.118  0.00  0.00    -0.023 A 
ATOM     25  C   UNL     1       0.572  -4.613   4.058  0.00  0.00    +0.009 A 
ATOM     26  C   UNL     1       1.119  -3.719   4.959  0.00  0.00    +0.050 A 
ATOM     27  C   UNL     1       2.476  -3.440   4.922  0.00  0.00    +0.166 A 
ATOM     28  C   UNL     1       3.285  -4.062   3.974  0.00  0.00    +0.167 A 
ATOM     29  C   UNL     1       2.731  -4.961   3.078  0.00  0.00    +0.055 A 
ATOM     30  O   UNL     1       4.568  -3.626   4.142  0.00  0.00    -0.453 OA
ATOM     31  C   UNL     1       4.607  -3.045   5.459  0.00  0.00    +0.466 C 
ATOM     32  O   UNL     1       3.251  -2.614   5.683  0.00  0.00    -0.453 OA
ENDBRANCH   6  24
TORSDOF 2
