REMARK  Name = ZINC04675577
REMARK  5 active torsions:
REMARK  status: ('A' for Active; 'I' for Inactive)
REMARK    1  A    between atoms: C_1  and  N_2
REMARK    2  A    between atoms: C_10  and  C_11
REMARK    3  A    between atoms: N_13  and  N_14
REMARK    4  A    between atoms: C_15  and  C_17
REMARK    5  A    between atoms: C_17  and  C_18
REMARK                            x       y       z     vdW  Elec       q    Type
REMARK                         _______ _______ _______ _____ _____    ______ ____
ROOT
ATOM      1  C   UNL     1       1.916   7.423  -0.010  0.00  0.00    +0.277 C 
ATOM      2  O   UNL     1       3.112   7.625  -0.097  0.00  0.00    -0.267 OA
ATOM      3  N   UNL     1       1.061   8.461   0.076  0.00  0.00    -0.229 N 
ATOM      4  H   UNL     1       0.115   8.300   0.220  0.00  0.00    +0.173 HD
ENDROOT
BRANCH   1  14
ATOM      5  C   UNL     1       3.641   4.864   0.060  0.00  0.00    +0.149 C 
ATOM      6  N   UNL     1       2.177   4.902   0.033  0.00  0.00    -0.339 N 
ATOM      7  C   UNL     1       1.348   3.804   0.034  0.00  0.00    +0.049 A 
ATOM      8  C   UNL     1       1.583   2.433   0.060  0.00  0.00    +0.028 A 
ATOM      9  C   UNL     1       0.522   1.555   0.059  0.00  0.00    +0.022 A 
ATOM     10  C   UNL     1      -0.786   2.026   0.022  0.00  0.00    +0.042 A 
ATOM     11  C   UNL     1      -1.041   3.367  -0.003  0.00  0.00    +0.030 A 
ATOM     12  C   UNL     1       0.022   4.279   0.003  0.00  0.00    +0.002 A 
ATOM     13  C   UNL     1       0.090   5.693  -0.018  0.00  0.00    +0.041 A 
ATOM     14  C   UNL     1       1.402   6.045   0.001  0.00  0.00    +0.107 A 
ATOM     15 CL   UNL     1      -2.105   0.898   0.014  0.00  0.00    -0.084 Cl
ENDBRANCH   1  14
BRANCH   3  16
ATOM     16  N   UNL     1       1.538   9.773  -0.042  0.00  0.00    -0.234 N 
ATOM     17  C   UNL     1       0.683  10.811   0.044  0.00  0.00    +0.229 C 
ATOM     18  O   UNL     1      -0.499  10.610   0.224  0.00  0.00    -0.274 OA
ATOM     19  H   UNL     1       2.484   9.934  -0.186  0.00  0.00    +0.173 HD
BRANCH  17  20
ATOM     20  C   UNL     1       1.197  12.223  -0.084  0.00  0.00    +0.101 C 
BRANCH  20  21
ATOM     21  C   UNL     1       0.030  13.204   0.050  0.00  0.00    -0.002 C 
ATOM     22  C   UNL     1      -0.932  13.015  -1.124  0.00  0.00    +0.004 C 
ATOM     23  C   UNL     1      -2.098  13.996  -0.990  0.00  0.00    +0.000 C 
ATOM     24  C   UNL     1      -1.562  15.430  -0.995  0.00  0.00    +0.000 C 
ATOM     25  C   UNL     1      -0.600  15.618   0.180  0.00  0.00    +0.000 C 
ATOM     26  C   UNL     1       0.566  14.637   0.046  0.00  0.00    +0.004 C 
ENDBRANCH  20  21
ENDBRANCH  17  20
ENDBRANCH   3  16
TORSDOF 4
