REMARK  Name = ZINC66558142
REMARK  5 active torsions:
REMARK  status: ('A' for Active; 'I' for Inactive)
REMARK    1  A    between atoms: C_1  and  C_2
REMARK    2  A    between atoms: C_6  and  C_7
REMARK    3  A    between atoms: N_9  and  N_10
REMARK    4  A    between atoms: C_11  and  C_13
REMARK    5  A    between atoms: C_14  and  C_15
REMARK                            x       y       z     vdW  Elec       q    Type
REMARK                         _______ _______ _______ _____ _____    ______ ____
ROOT
ATOM      1  N   UNL     1       0.059  -0.732   4.900  0.00  0.00    -0.231 N 
ATOM      2  C   UNL     1       0.081  -1.625   5.909  0.00  0.00    +0.253 C 
ATOM      3  O   UNL     1       0.094  -2.819   5.666  0.00  0.00    -0.269 OA
ATOM      4  H   UNL     1       0.049   0.219   5.094  0.00  0.00    +0.173 HD
ENDROOT
BRANCH   1   7
ATOM      5  C   UNL     1       0.031  -0.283   2.562  0.00  0.00    +0.267 C 
ATOM      6  O   UNL     1       0.017   0.910   2.805  0.00  0.00    -0.268 OA
ATOM      7  N   UNL     1       0.052  -1.176   3.571  0.00  0.00    -0.230 N 
ATOM      8  H   UNL     1       0.063  -2.126   3.378  0.00  0.00    +0.173 HD
BRANCH   5  14
ATOM      9  C   UNL     1      -0.018   1.503   0.010  0.00  0.00    +0.045 C 
ATOM     10  C   UNL     1       0.002  -0.004   0.002  0.00  0.00    -0.031 A 
ATOM     11  C   UNL     1       0.007  -0.729  -1.166  0.00  0.00    +0.011 A 
ATOM     12  C   UNL     1       0.025  -2.083  -1.101  0.00  0.00    +0.046 A 
ATOM     13  S   UNL     1       0.037  -2.416   0.545  0.00  0.00    -0.092 S 
ATOM     14  C   UNL     1       0.023  -0.748   1.172  0.00  0.00    +0.078 A 
ENDBRANCH   5  14
ENDBRANCH   1   7
BRANCH   2  15
ATOM     15  C   UNL     1       0.088  -1.178   7.246  0.00  0.00    +0.071 C 
ATOM     16  C   UNL     1       0.110  -2.080   8.265  0.00  0.00    +0.034 C 
BRANCH  16  17
ATOM     17  C   UNL     1       0.117  -1.633   9.602  0.00  0.00    +0.085 A 
ATOM     18  C   UNL     1       0.959  -0.674  10.156  0.00  0.00    +0.155 A 
ATOM     19  N   UNL     1       0.646  -0.541  11.435  0.00  0.00    -0.216 NA
ATOM     20  C   UNL     1      -0.356  -1.363  11.744  0.00  0.00    +0.140 A 
ATOM     21  N   UNL     1      -0.716  -2.057  10.622  0.00  0.00    -0.298 N 
ATOM     22  C   UNL     1      -1.727  -2.966  10.663  0.00  0.00    +0.093 A 
ATOM     23  C   UNL     1      -2.398  -3.199  11.814  0.00  0.00    +0.018 A 
ATOM     24  C   UNL     1      -2.056  -2.502  12.982  0.00  0.00    +0.005 A 
ATOM     25  C   UNL     1      -1.038  -1.595  12.951  0.00  0.00    +0.047 A 
ATOM     26 CL   UNL     1       2.204   0.196   9.316  0.00  0.00    -0.060 Cl
ENDBRANCH  16  17
ENDBRANCH   2  15
TORSDOF 4
