REMARK  Name = ZINC13109400
REMARK  6 active torsions:
REMARK  status: ('A' for Active; 'I' for Inactive)
REMARK    1  A    between atoms: C_1  and  C_2
REMARK    2  A    between atoms: C_5  and  C_8
REMARK    3  A    between atoms: C_8  and  C_10
REMARK    4  A    between atoms: C_12  and  C_24
REMARK    5  A    between atoms: C_18  and  C_19
REMARK    6  A    between atoms: C_18  and  O_23
REMARK                            x       y       z     vdW  Elec       q    Type
REMARK                         _______ _______ _______ _____ _____    ______ ____
ROOT
ATOM      1  C   UNL     1       1.285   4.099   1.450  0.00  0.00    +0.144 C 
ATOM      2  C   UNL     1       1.145   3.585   0.013  0.00  0.00    +0.117 C 
ATOM      3  N   UNL     1       2.262   4.088  -0.789  0.00  0.00    -0.319 N 
ATOM      4  C   UNL     1       2.861   5.253  -0.498  0.00  0.00    +0.133 C 
ATOM      5  S   UNL     1       4.152   5.783  -1.489  0.00  0.00    -0.019 S 
ATOM      6  N   UNL     1       2.486   6.019   0.537  0.00  0.00    -0.291 N 
ATOM      7  C   UNL     1       1.381   5.628   1.414  0.00  0.00    +0.241 C 
ATOM      8  H   UNL     1       2.576   3.567  -1.545  0.00  0.00    +0.148 HD
ATOM      9  H   UNL     1       2.958   6.850   0.708  0.00  0.00    +0.151 HD
ENDROOT
BRANCH   2  10
ATOM     10  C   UNL     1       1.162   2.079   0.013  0.00  0.00    -0.026 A 
ATOM     11  C   UNL     1      -0.021   1.374   0.134  0.00  0.00    +0.007 A 
ATOM     12  C   UNL     1      -0.006  -0.008   0.134  0.00  0.00    +0.020 A 
ATOM     13  C   UNL     1       1.194  -0.686   0.012  0.00  0.00    +0.041 A 
ATOM     14  C   UNL     1       2.378   0.019  -0.110  0.00  0.00    +0.020 A 
ATOM     15  C   UNL     1       2.361   1.401  -0.109  0.00  0.00    +0.007 A 
ATOM     16 CL   UNL     1       1.214  -2.422   0.011  0.00  0.00    -0.084 Cl
ENDBRANCH   2  10
BRANCH   7  17
ATOM     17  C   UNL     1       0.072   6.211   0.878  0.00  0.00    +0.436 C 
ATOM     18  F   UNL     1      -0.984   5.830   1.712  0.00  0.00    -0.166 F 
ATOM     19  F   UNL     1       0.162   7.606   0.845  0.00  0.00    -0.166 F 
ATOM     20  F   UNL     1      -0.158   5.728  -0.415  0.00  0.00    -0.166 F 
ENDBRANCH   7  17
BRANCH   1  21
ATOM     21  C   UNL     1       2.533   3.528   2.072  0.00  0.00    +0.173 C 
ATOM     22  O   UNL     1       3.523   3.354   1.395  0.00  0.00    -0.292 OA
BRANCH  21  27
ATOM     23  C   UNL     1       2.598   2.174   7.659  0.00  0.00    +0.044 C 
ATOM     24  C   UNL     1       2.581   2.529   6.194  0.00  0.00    -0.050 A 
ATOM     25  C   UNL     1       3.714   2.328   5.424  0.00  0.00    +0.004 A 
ATOM     26  C   UNL     1       3.706   2.650   4.083  0.00  0.00    +0.011 A 
ATOM     27  C   UNL     1       2.550   3.181   3.502  0.00  0.00    +0.018 A 
ATOM     28  C   UNL     1       1.411   3.385   4.288  0.00  0.00    +0.011 A 
ATOM     29  C   UNL     1       1.433   3.054   5.627  0.00  0.00    +0.004 A 
ENDBRANCH  21  27
ENDBRANCH   1  21
BRANCH   7  30
ATOM     30  O   UNL     1       1.620   6.122   2.733  0.00  0.00    -0.364 OA
ATOM     31  H   UNL     1       1.693   7.085   2.785  0.00  0.00    +0.212 HD
ENDBRANCH   7  30
TORSDOF 5
