REMARK  Name = ZINC09949786
REMARK  9 active torsions:
REMARK  status: ('A' for Active; 'I' for Inactive)
REMARK    1  A    between atoms: C_1  and  O_2
REMARK    2  A    between atoms: O_2  and  C_3
REMARK    3  A    between atoms: C_8  and  O_9
REMARK    4  A    between atoms: O_9  and  C_10
REMARK    5  A    between atoms: C_11  and  C_29
REMARK    6  A    between atoms: C_15  and  C_16
REMARK    7  A    between atoms: C_15  and  N_59
REMARK    8  A    between atoms: N_18  and  C_19
REMARK    9  A    between atoms: C_19  and  C_20
REMARK                            x       y       z     vdW  Elec       q    Type
REMARK                         _______ _______ _______ _____ _____    ______ ____
ROOT
ATOM      1  C   UNL     1       4.083   1.362   3.986  0.00  0.00    +0.162 A 
ATOM      2  C   UNL     1       4.887   1.774   2.938  0.00  0.00    +0.053 A 
ATOM      3  C   UNL     1       4.409   1.752   1.637  0.00  0.00    -0.043 A 
ATOM      4  C   UNL     1       3.126   1.317   1.381  0.00  0.00    -0.049 A 
ATOM      5  C   UNL     1       2.315   0.903   2.429  0.00  0.00    +0.052 A 
ATOM      6  C   UNL     1       2.787   0.924   3.730  0.00  0.00    +0.162 A 
ATOM      7  C   UNL     1       2.565   1.272  -0.016  0.00  0.00    +0.001 C 
ATOM      8  C   UNL     1       4.788   1.737  -0.821  0.00  0.00    -0.072 C 
ATOM      9  C   UNL     1       5.322   2.215   0.530  0.00  0.00    +0.017 C 
ATOM     10  N   UNL     1       3.366   2.127  -0.908  0.00  0.00    +0.393 N 
ATOM     11  H   UNL     1       3.268   3.105  -0.612  0.00  0.00    -0.080 HD
ENDROOT
BRANCH   7  12
ATOM     12  C   UNL     1       1.146   1.780   0.001  0.00  0.00    -0.019 A 
ATOM     13  C   UNL     1      -0.013   1.076   0.008  0.00  0.00    +0.010 A 
ATOM     14  C   UNL     1      -1.213   1.761   0.017  0.00  0.00    +0.008 A 
ATOM     15  C   UNL     1      -1.196   3.116   0.030  0.00  0.00    +0.045 A 
ATOM     16  S   UNL     1       0.555   3.464   0.015  0.00  0.00    -0.103 S 
ENDBRANCH   7  12
BRANCH   1  18
ATOM     17  C   UNL     1       5.896   1.846   5.447  0.00  0.00    +0.277 C 
ATOM     18  O   UNL     1       4.556   1.385   5.261  0.00  0.00    -0.491 OA
ENDBRANCH   1  18
BRANCH   6  19
ATOM     19  O   UNL     1       1.988   0.518   4.753  0.00  0.00    -0.491 OA
ATOM     20  C   UNL     1       0.670   0.082   4.413  0.00  0.00    +0.277 C 
ENDBRANCH   6  19
BRANCH  10  21
ATOM     21  C   UNL     1       2.887   1.994  -2.302  0.00  0.00    +0.020 C 
BRANCH  21  22
ATOM     22  C   UNL     1       3.564   3.038  -3.153  0.00  0.00    +0.197 C 
ATOM     23  O   UNL     1       4.367   3.799  -2.655  0.00  0.00    -0.278 OA
ATOM     24  N   UNL     1       3.277   3.125  -4.467  0.00  0.00    -0.313 N 
ATOM     25  H   UNL     1       2.635   2.517  -4.865  0.00  0.00    +0.149 HD
BRANCH  24  26
ATOM     26  C   UNL     1       3.936   4.140  -5.294  0.00  0.00    +0.139 C 
BRANCH  26  27
ATOM     27  C   UNL     1       3.444   4.026  -6.714  0.00  0.00    -0.027 A 
ATOM     28  C   UNL     1       4.105   3.207  -7.610  0.00  0.00    +0.009 A 
ATOM     29  C   UNL     1       3.655   3.095  -8.912  0.00  0.00    +0.050 A 
ATOM     30  C   UNL     1       2.545   3.814  -9.326  0.00  0.00    +0.166 A 
ATOM     31  C   UNL     1       1.882   4.644  -8.425  0.00  0.00    +0.167 A 
ATOM     32  C   UNL     1       2.336   4.746  -7.120  0.00  0.00    +0.054 A 
ATOM     33  O   UNL     1       0.833   5.236  -9.068  0.00  0.00    -0.453 OA
ATOM     34  C   UNL     1       1.105   5.077 -10.473  0.00  0.00    +0.466 C 
ATOM     35  O   UNL     1       1.912   3.886 -10.533  0.00  0.00    -0.453 OA
ENDBRANCH  26  27
ENDBRANCH  24  26
ENDBRANCH  21  22
ENDBRANCH  10  21
TORSDOF 7
