REMARK  Name = ZINC39665698
REMARK  10 active torsions:
REMARK  status: ('A' for Active; 'I' for Inactive)
REMARK    1  A    between atoms: C_1  and  C_2
REMARK    2  A    between atoms: C_6  and  C_9
REMARK    3  A    between atoms: C_13  and  C_22
REMARK    4  A    between atoms: N_24  and  C_25
REMARK    5  A    between atoms: C_25  and  C_26
REMARK    6  A    between atoms: C_26  and  C_28
REMARK    7  A    between atoms: C_26  and  O_29
REMARK    8  A    between atoms: O_29  and  C_30
REMARK    9  A    between atoms: C_33  and  O_36
REMARK   10  A    between atoms: O_36  and  C_37
REMARK                            x       y       z     vdW  Elec       q    Type
REMARK                         _______ _______ _______ _____ _____    ______ ____
ROOT
ATOM      1  C   UNL     1       0.090  -3.046   4.955  0.00  0.00    +0.252 C 
ATOM      2  O   UNL     1       0.930  -3.417   5.752  0.00  0.00    -0.270 OA
ATOM      3  N   UNL     1      -1.201  -3.394   5.126  0.00  0.00    -0.296 N 
ATOM      4  C   UNL     1      -2.357  -3.048   4.266  0.00  0.00    +0.121 C 
ATOM      5  C   UNL     1      -3.219  -4.330   4.235  0.00  0.00    +0.100 C 
ATOM      6  C   UNL     1      -2.841  -5.088   5.518  0.00  0.00    -0.004 C 
ATOM      7  C   UNL     1      -1.784  -4.216   6.213  0.00  0.00    +0.115 C 
ATOM      8  C   UNL     1      -4.064  -5.252   6.415  0.00  0.00    -0.010 C 
ATOM      9  C   UNL     1      -3.675  -6.059   7.657  0.00  0.00    -0.082 C 
ATOM     10  N   UNL     1      -3.163  -7.373   7.249  0.00  0.00    +0.379 N 
ATOM     11  C   UNL     1      -1.933  -7.209   6.465  0.00  0.00    -0.082 C 
ATOM     12  C   UNL     1      -2.248  -6.450   5.172  0.00  0.00    -0.010 C 
ATOM     13  H   UNL     1      -2.965  -7.925   8.070  0.00  0.00    -0.086 HD
ATOM     14  H   UNL     1      -3.857  -7.845   6.689  0.00  0.00    -0.086 HD
ENDROOT
BRANCH   1  20
ATOM     15  C   UNL     1       0.862   1.454   2.934  0.00  0.00    +0.047 C 
ATOM     16  C   UNL     1       0.857  -0.049   2.822  0.00  0.00    -0.014 A 
ATOM     17  C   UNL     1       1.221  -0.652   1.632  0.00  0.00    +0.009 A 
ATOM     18  C   UNL     1       1.220  -2.031   1.518  0.00  0.00    +0.039 A 
ATOM     19  C   UNL     1       0.853  -2.817   2.594  0.00  0.00    +0.138 A 
ATOM     20  C   UNL     1       0.483  -2.215   3.801  0.00  0.00    +0.107 A 
ATOM     21  C   UNL     1       0.493  -0.820   3.910  0.00  0.00    +0.141 A 
ATOM     22  F   UNL     1       0.143  -0.228   5.073  0.00  0.00    -0.204 F 
ATOM     23  F   UNL     1       0.851  -4.163   2.480  0.00  0.00    -0.205 F 
ENDBRANCH   1  20
BRANCH   5  24
ATOM     24  C   UNL     1      -4.684  -3.977   4.244  0.00  0.00    +0.218 C 
ATOM     25  O   UNL     1      -5.063  -2.974   4.810  0.00  0.00    -0.275 OA
ATOM     26  N   UNL     1      -5.574  -4.777   3.622  0.00  0.00    -0.312 N 
ATOM     27  H   UNL     1      -5.271  -5.579   3.170  0.00  0.00    +0.149 HD
BRANCH  26  28
ATOM     28  C   UNL     1      -6.998  -4.434   3.631  0.00  0.00    +0.148 C 
BRANCH  28  29
ATOM     29  C   UNL     1      -7.783  -5.498   2.861  0.00  0.00    +0.187 C 
ATOM     30  C   UNL     1      -9.251  -5.077   2.763  0.00  0.00    +0.053 C 
BRANCH  29  31
ATOM     31  O   UNL     1      -7.691  -6.748   3.548  0.00  0.00    -0.488 OA
BRANCH  31  32
ATOM     32  C   UNL     1      -7.849  -7.875   2.803  0.00  0.00    +0.121 A 
ATOM     33  C   UNL     1      -7.667  -9.121   3.384  0.00  0.00    +0.049 A 
ATOM     34  C   UNL     1      -7.828 -10.265   2.628  0.00  0.00    +0.049 A 
ATOM     35  C   UNL     1      -8.172 -10.168   1.287  0.00  0.00    +0.120 A 
ATOM     36  C   UNL     1      -8.355  -8.922   0.707  0.00  0.00    +0.049 A 
ATOM     37  C   UNL     1      -8.198  -7.778   1.464  0.00  0.00    +0.049 A 
BRANCH  35  38
ATOM     38  O   UNL     1      -8.330 -11.295   0.543  0.00  0.00    -0.495 OA
ATOM     39  C   UNL     1      -8.684 -11.120  -0.831  0.00  0.00    +0.277 C 
ENDBRANCH  35  38
ENDBRANCH  31  32
ENDBRANCH  29  31
ENDBRANCH  28  29
ENDBRANCH  26  28
ENDBRANCH   5  24
TORSDOF 7
