REMARK  Name = ZINC38719981
REMARK  5 active torsions:
REMARK  status: ('A' for Active; 'I' for Inactive)
REMARK    1  A    between atoms: C_7  and  C_10
REMARK    2  A    between atoms: C_13  and  S_16
REMARK    3  A    between atoms: S_16  and  C_17
REMARK    4  A    between atoms: C_17  and  C_18
REMARK    5  A    between atoms: N_23  and  C_24
REMARK                            x       y       z     vdW  Elec       q    Type
REMARK                         _______ _______ _______ _____ _____    ______ ____
ROOT
ATOM      1  C   UNL     1      -0.050  -5.083  -2.875  0.00  0.00    +0.170 C 
ENDROOT
BRANCH   1   2
ATOM      2  C   UNL     1      -0.094  -5.819  -4.190  0.00  0.00    +0.230 C 
ATOM      3  O   UNL     1      -0.204  -7.026  -4.206  0.00  0.00    -0.274 OA
ATOM      4  N   UNL     1      -0.011  -5.134  -5.348  0.00  0.00    -0.240 N 
ATOM      5  C   UNL     1      -0.050  -5.792  -6.524  0.00  0.00    +0.306 C 
ATOM      6  O   UNL     1      -0.161  -7.002  -6.540  0.00  0.00    -0.252 OA
ATOM      7  N   UNL     1       0.033  -5.108  -7.682  0.00  0.00    -0.294 N 
ATOM      8  H   UNL     1       0.077  -4.168  -5.335  0.00  0.00    +0.159 HD
ATOM      9  H   UNL     1       0.121  -4.142  -7.669  0.00  0.00    +0.151 HD
BRANCH   7  10
ATOM     10  C   UNL     1      -0.010  -5.823  -8.960  0.00  0.00    +0.037 C 
ATOM     11  C   UNL     1      -1.332  -6.584  -9.074  0.00  0.00    +0.029 C 
ATOM     12  C   UNL     1      -1.377  -7.330 -10.409  0.00  0.00    -0.008 C 
ATOM     13  C   UNL     1      -1.265  -6.327 -11.559  0.00  0.00    +0.007 C 
ATOM     14  C   UNL     1       0.058  -5.566 -11.444  0.00  0.00    -0.008 C 
ATOM     15  C   UNL     1       0.102  -4.819 -10.110  0.00  0.00    +0.029 C 
ATOM     16  C   UNL     1       1.223  -6.555 -11.515  0.00  0.00    +0.007 C 
ATOM     17  C   UNL     1       1.111  -7.558 -10.365  0.00  0.00    -0.008 C 
ATOM     18  C   UNL     1      -0.211  -8.319 -10.479  0.00  0.00    +0.007 C 
ATOM     19  C   UNL     1       1.156  -6.811  -9.030  0.00  0.00    +0.029 C 
ENDBRANCH   7  10
ENDBRANCH   1   2
BRANCH   1  20
ATOM     20  S   UNL     1      -0.183  -6.272  -1.512  0.00  0.00    -0.087 S 
BRANCH  20  24
ATOM     21  C   UNL     1       0.676  -3.129  -0.021  0.00  0.00    +0.238 C 
ATOM     22  N   UNL     1      -0.625  -3.009  -0.013  0.00  0.00    -0.145 NA
ATOM     23  N   UNL     1      -1.227  -4.276  -0.013  0.00  0.00    -0.219 N 
ATOM     24  C   UNL     1      -0.115  -5.241  -0.021  0.00  0.00    +0.339 C 
ATOM     25  O   UNL     1       1.066  -4.427  -0.031  0.00  0.00    -0.443 OA
ATOM     26  H   UNL     1      -2.177  -4.474  -0.008  0.00  0.00    +0.173 HD
BRANCH  21  33
ATOM     27  C   UNL     1      -0.016   1.354   0.009  0.00  0.00    +0.001 A 
ATOM     28  C   UNL     1       1.163   2.101   0.002  0.00  0.00    +0.002 A 
ATOM     29  C   UNL     1       2.384   1.511  -0.013  0.00  0.00    +0.026 A 
ATOM     30  C   UNL     1       2.483   0.096  -0.021  0.00  0.00    +0.043 A 
ATOM     31  N   UNL     1       3.531  -0.705  -0.036  0.00  0.00    -0.380 N 
ATOM     32  C   UNL     1       3.075  -2.099  -0.039  0.00  0.00    +0.154 C 
ATOM     33  C   UNL     1       1.563  -2.044  -0.024  0.00  0.00    +0.043 C 
ATOM     34  C   UNL     1       1.237  -0.687  -0.013  0.00  0.00    +0.008 A 
ATOM     35  C   UNL     1       0.002  -0.004   0.002  0.00  0.00    +0.010 A 
ATOM     36  H   UNL     1       4.457  -0.418  -0.044  0.00  0.00    +0.160 HD
ENDBRANCH  21  33
ENDBRANCH  20  24
ENDBRANCH   1  20
TORSDOF 5
