REMARK  Name = ZINC66396515
REMARK  8 active torsions:
REMARK  status: ('A' for Active; 'I' for Inactive)
REMARK    1  A    between atoms: C_1  and  C_2
REMARK    2  A    between atoms: C_2  and  C_3
REMARK    3  A    between atoms: C_2  and  C_4
REMARK    4  A    between atoms: C_2  and  C_5
REMARK    5  A    between atoms: C_8  and  C_11
REMARK    6  A    between atoms: C_11  and  C_13
REMARK    7  A    between atoms: C_11  and  N_15
REMARK    8  A    between atoms: C_16  and  C_18
REMARK                            x       y       z     vdW  Elec       q    Type
REMARK                         _______ _______ _______ _____ _____    ______ ____
ROOT
ATOM      1  N   UNL     1       3.548  -0.795  -5.289  0.00  0.00    -0.292 N 
ATOM      2  C   UNL     1       3.868  -0.781  -6.598  0.00  0.00    +0.250 C 
ATOM      3  O   UNL     1       3.459  -1.659  -7.334  0.00  0.00    -0.270 OA
ATOM      4  H   UNL     1       3.874  -0.095  -4.702  0.00  0.00    +0.151 HD
ENDROOT
BRANCH   2   5
ATOM      5  C   UNL     1       4.709   0.293  -7.135  0.00  0.00    +0.101 A 
ATOM      6  C   UNL     1       5.259   1.369  -6.410  0.00  0.00    +0.150 A 
ATOM      7  N   UNL     1       5.948   2.114  -7.230  0.00  0.00    -0.172 NA
ATOM      8  N   UNL     1       5.885   1.573  -8.520  0.00  0.00    -0.213 N 
ATOM      9  C   UNL     1       5.125   0.442  -8.472  0.00  0.00    +0.172 A 
ATOM     10  N   UNL     1       4.886  -0.304  -9.557  0.00  0.00    -0.189 NA
ATOM     11  C   UNL     1       5.373   0.005 -10.741  0.00  0.00    +0.281 A 
ATOM     12  O   UNL     1       5.112  -0.771 -11.817  0.00  0.00    -0.265 OA
ATOM     13  C   UNL     1       6.204   1.207 -10.870  0.00  0.00    +0.067 A 
ATOM     14  C   UNL     1       6.438   1.983  -9.719  0.00  0.00    +0.080 A 
ATOM     15  C   UNL     1       7.222   3.125  -9.810  0.00  0.00    +0.028 A 
ATOM     16  C   UNL     1       7.750   3.493 -11.030  0.00  0.00    +0.002 A 
ATOM     17  C   UNL     1       7.506   2.734 -12.165  0.00  0.00    +0.001 A 
ATOM     18  C   UNL     1       6.753   1.595 -12.094  0.00  0.00    +0.015 A 
ENDBRANCH   2   5
BRANCH   1  19
ATOM     19  C   UNL     1       2.707  -1.868  -4.752  0.00  0.00    +0.207 C 
BRANCH  19  23
ATOM     20  C   UNL     1       0.707  -0.490  -1.238  0.00  0.00    -0.042 A 
ATOM     21  C   UNL     1       0.036  -1.284  -2.148  0.00  0.00    +0.004 A 
ATOM     22  C   UNL     1       0.683  -1.730  -3.286  0.00  0.00    +0.007 A 
ATOM     23  C   UNL     1       2.001  -1.381  -3.513  0.00  0.00    -0.013 A 
ATOM     24  C   UNL     1       2.672  -0.586  -2.603  0.00  0.00    +0.007 A 
ATOM     25  C   UNL     1       2.024  -0.137  -1.467  0.00  0.00    +0.004 A 
BRANCH  20  27
ATOM     26  C   UNL     1      -0.019   1.526   0.010  0.00  0.00    +0.015 C 
ATOM     27  C   UNL     1       0.002  -0.004   0.002  0.00  0.00    -0.013 C 
ATOM     28  C   UNL     1       0.742  -0.511   1.242  0.00  0.00    +0.015 C 
ATOM     29  C   UNL     1      -1.433  -0.534   0.013  0.00  0.00    +0.015 C 
ENDBRANCH  20  27
ENDBRANCH  19  23
BRANCH  19  30
ATOM     30  C   UNL     1       3.548  -3.028  -4.414  0.00  0.00    +0.090 C 
ATOM     31  N   UNL     1       4.197  -3.923  -4.154  0.00  0.00    -0.194 NA
ENDBRANCH  19  30
ENDBRANCH   1  19
TORSDOF 5
