REMARK  Name = ZINC13657876
REMARK  7 active torsions:
REMARK  status: ('A' for Active; 'I' for Inactive)
REMARK    1  A    between atoms: C_1  and  C_2
REMARK    2  A    between atoms: C_2  and  C_3
REMARK    3  A    between atoms: C_2  and  C_4
REMARK    4  A    between atoms: C_2  and  N_5
REMARK    5  A    between atoms: N_7  and  N_8
REMARK    6  A    between atoms: C_9  and  C_10
REMARK    7  A    between atoms: C_13  and  O_17
REMARK                            x       y       z     vdW  Elec       q    Type
REMARK                         _______ _______ _______ _____ _____    ______ ____
ROOT
ATOM      1  N   UNL     1       3.953  -0.807  -2.674  0.00  0.00    -0.188 NA
ATOM      2  C   UNL     1       4.540  -1.402  -3.667  0.00  0.00    +0.138 C 
ENDROOT
BRANCH   2   3
ATOM      3  C   UNL     1       5.979  -1.188  -3.908  0.00  0.00    -0.003 A 
ATOM      4  C   UNL     1       6.713  -0.350  -3.065  0.00  0.00    +0.028 A 
ATOM      5  C   UNL     1       8.059  -0.154  -3.294  0.00  0.00    +0.061 A 
ATOM      6  C   UNL     1       8.684  -0.786  -4.361  0.00  0.00    +0.145 A 
ATOM      7  C   UNL     1       7.957  -1.620  -5.202  0.00  0.00    +0.061 A 
ATOM      8  C   UNL     1       6.612  -1.827  -4.977  0.00  0.00    +0.028 A 
ATOM      9 BR   UNL     1       8.815  -2.477  -6.653  0.00  0.00    -0.046 Br
ATOM     10 BR   UNL     1       9.055   0.979  -2.153  0.00  0.00    -0.046 Br
BRANCH   6  11
ATOM     11  O   UNL     1      10.010  -0.589  -4.584  0.00  0.00    -0.505 OA
ATOM     12  H   UNL     1      10.584  -1.221  -4.129  0.00  0.00    +0.292 HD
ENDBRANCH   6  11
ENDBRANCH   2   3
BRANCH   1  15
ATOM     13  N   UNL     1       0.633  -0.583  -1.175  0.00  0.00    -0.361 N 
ATOM     14  C   UNL     1       1.968  -0.384  -1.398  0.00  0.00    +0.159 C 
ATOM     15  N   UNL     1       2.586  -1.010  -2.445  0.00  0.00    -0.217 N 
ATOM     16  S   UNL     1       2.837   0.616  -0.399  0.00  0.00    -0.015 SA
ATOM     17  H   UNL     1       2.078  -1.595  -3.029  0.00  0.00    +0.176 HD
ATOM     18  H   UNL     1       0.107  -1.097  -1.806  0.00  0.00    +0.162 HD
BRANCH  13  20
ATOM     19  C   UNL     1       0.078   1.509  -0.034  0.00  0.00    +0.033 C 
ATOM     20  C   UNL     1      -0.001  -0.018   0.019  0.00  0.00    +0.032 C 
ATOM     21  C   UNL     1       0.723  -0.523   1.269  0.00  0.00    +0.033 C 
ATOM     22  C   UNL     1      -1.468  -0.451   0.070  0.00  0.00    +0.033 C 
ENDBRANCH  13  20
ENDBRANCH   1  15
TORSDOF 4
