REMARK  Name = ZINC08740389
REMARK  4 active torsions:
REMARK  status: ('A' for Active; 'I' for Inactive)
REMARK    1  A    between atoms: C_11  and  C_15
REMARK    2  A    between atoms: C_20  and  O_21
REMARK    3  A    between atoms: O_21  and  C_22
REMARK    4  A    between atoms: C_22  and  C_23
REMARK                            x       y       z     vdW  Elec       q    Type
REMARK                         _______ _______ _______ _____ _____    ______ ____
ROOT
ATOM      1  C   UNL     1       6.178  -1.596   5.412  0.00  0.00    +0.001 A 
ATOM      2  C   UNL     1       5.851  -0.263   5.596  0.00  0.00    +0.002 A 
ATOM      3  C   UNL     1       5.227   0.487   4.613  0.00  0.00    +0.026 A 
ATOM      4  C   UNL     1       4.938  -0.160   3.413  0.00  0.00    +0.047 A 
ATOM      5  C   UNL     1       5.277  -1.526   3.230  0.00  0.00    +0.003 A 
ATOM      6  C   UNL     1       5.906  -2.260   4.241  0.00  0.00    +0.010 A 
ATOM      7  C   UNL     1       4.841  -1.868   1.895  0.00  0.00    -0.022 A 
ATOM      8  C   UNL     1       4.287  -0.756   1.358  0.00  0.00    +0.010 A 
ATOM      9  N   UNL     1       4.342   0.270   2.262  0.00  0.00    -0.359 N 
ATOM     10  H   UNL     1       4.009   1.167   2.108  0.00  0.00    +0.166 HD
ATOM     11  C   UNL     1       3.711  -0.715  -0.037  0.00  0.00    +0.011 C 
ATOM     12  C   UNL     1       4.708  -2.912  -0.330  0.00  0.00    -0.076 C 
ATOM     13  C   UNL     1       4.945  -3.182   1.162  0.00  0.00    +0.018 C 
ATOM     14  N   UNL     1       3.483  -2.103  -0.499  0.00  0.00    +0.388 N 
ATOM     15  H   UNL     1       3.221  -2.089  -1.491  0.00  0.00    -0.084 HD
ATOM     16  H   UNL     1       2.724  -2.521   0.051  0.00  0.00    -0.084 HD
ENDROOT
BRANCH  11  17
ATOM     17  C   UNL     1       2.397   0.023  -0.020  0.00  0.00    -0.013 A 
ATOM     18  C   UNL     1       1.214  -0.674   0.131  0.00  0.00    +0.021 A 
ATOM     19  C   UNL     1       0.008   0.003   0.146  0.00  0.00    +0.018 A 
ATOM     20  C   UNL     1      -0.017   1.379   0.010  0.00  0.00    +0.019 A 
ATOM     21  C   UNL     1       1.164   2.080  -0.142  0.00  0.00    +0.047 A 
ATOM     22  C   UNL     1       2.374   1.403  -0.158  0.00  0.00    +0.123 A 
ATOM     23 BR   UNL     1      -1.610  -0.954   0.353  0.00  0.00    -0.050 Br
BRANCH  22  24
ATOM     24  O   UNL     1       3.537   2.091  -0.306  0.00  0.00    -0.486 OA
BRANCH  24  25
ATOM     25  C   UNL     1       3.439   3.510  -0.442  0.00  0.00    +0.284 C 
BRANCH  25  26
ATOM     26  C   UNL     1       4.818   4.097  -0.596  0.00  0.00    +0.078 A 
ATOM     27  C   UNL     1       5.920   3.263  -0.587  0.00  0.00    +0.027 A 
ATOM     28  C   UNL     1       7.185   3.813  -0.730  0.00  0.00    +0.003 A 
ATOM     29  C   UNL     1       7.294   5.188  -0.876  0.00  0.00    +0.020 A 
ATOM     30  C   UNL     1       6.147   5.958  -0.875  0.00  0.00    +0.111 A 
ATOM     31  N   UNL     1       4.959   5.400  -0.742  0.00  0.00    -0.256 NA
ENDBRANCH  25  26
ENDBRANCH  24  25
ENDBRANCH  22  24
ENDBRANCH  11  17
TORSDOF 4
