REMARK  Name = ZINC66368456
REMARK  6 active torsions:
REMARK  status: ('A' for Active; 'I' for Inactive)
REMARK    1  A    between atoms: C_1  and  C_2
REMARK    2  A    between atoms: C_2  and  C_3
REMARK    3  A    between atoms: C_3  and  C_5
REMARK    4  A    between atoms: C_3  and  N_8
REMARK    5  A    between atoms: C_5  and  C_6
REMARK    6  A    between atoms: C_5  and  C_7
REMARK                            x       y       z     vdW  Elec       q    Type
REMARK                         _______ _______ _______ _____ _____    ______ ____
ROOT
ATOM      1  N   UNL     1      -2.105  -0.144  -1.229  0.00  0.00    -0.296 N 
ATOM      2  C   UNL     1      -3.448  -0.040  -1.265  0.00  0.00    +0.302 C 
ATOM      3  O   UNL     1      -4.109  -0.353  -0.293  0.00  0.00    -0.253 OA
ATOM      4  N   UNL     1      -4.060   0.412  -2.378  0.00  0.00    -0.285 N 
ATOM      5  C   UNL     1      -5.510   0.645  -2.393  0.00  0.00    +0.114 C 
ATOM      6  C   UNL     1      -6.122  -0.127  -3.567  0.00  0.00    +0.084 C 
ATOM      7  C   UNL     1      -5.404   0.265  -4.860  0.00  0.00    +0.173 C 
ATOM      8  C   UNL     1      -3.920  -0.092  -4.762  0.00  0.00    +0.084 C 
ATOM      9  C   UNL     1      -3.287   0.685  -3.598  0.00  0.00    +0.114 C 
ATOM     10  O   UNL     1      -5.547   1.674  -5.081  0.00  0.00    -0.346 OA
ATOM     11  C   UNL     1      -6.247   1.842  -6.331  0.00  0.00    +0.191 C 
ATOM     12  C   UNL     1      -6.964   0.481  -6.517  0.00  0.00    +0.191 C 
ATOM     13  O   UNL     1      -5.993  -0.440  -5.965  0.00  0.00    -0.346 OA
ATOM     14  H   UNL     1      -1.582   0.046  -2.024  0.00  0.00    +0.151 HD
ENDROOT
BRANCH   1  15
ATOM     15  C   UNL     1      -1.434  -0.543   0.011  0.00  0.00    +0.077 C 
BRANCH  15  16
ATOM     16  C   UNL     1      -1.409  -2.070   0.108  0.00  0.00    +0.003 C 
ATOM     17  C   UNL     1      -0.708  -2.486   1.403  0.00  0.00    +0.009 C 
ATOM     18  C   UNL     1      -2.842  -2.605   0.109  0.00  0.00    +0.009 C 
ENDBRANCH  15  16
BRANCH  15  20
ATOM     19  C   UNL     1      -0.028   1.522   0.039  0.00  0.00    +0.006 C 
ATOM     20  C   UNL     1      -0.001  -0.008   0.011  0.00  0.00    +0.019 C 
ENDBRANCH  15  20
ENDBRANCH   1  15
TORSDOF 3
