REMARK  Name = ZINC22607186
REMARK  4 active torsions:
REMARK  status: ('A' for Active; 'I' for Inactive)
REMARK    1  A    between atoms: N_9  and  N_28
REMARK    2  A    between atoms: C_10  and  S_12
REMARK    3  A    between atoms: S_12  and  C_13
REMARK    4  A    between atoms: N_18  and  C_21
REMARK                            x       y       z     vdW  Elec       q    Type
REMARK                         _______ _______ _______ _____ _____    ______ ____
ROOT
ATOM      1  S   UNL     1       5.487  -3.033  -0.172  0.00  0.00    -0.073 S 
ENDROOT
BRANCH   1  11
ATOM      2  C   UNL     1      -0.410  -0.048  -0.750  0.00  0.00    +0.001 A 
ATOM      3  C   UNL     1       0.614   0.889  -0.690  0.00  0.00    +0.002 A 
ATOM      4  C   UNL     1       1.918   0.500  -0.570  0.00  0.00    +0.028 A 
ATOM      5  C   UNL     1       2.230  -0.862  -0.506  0.00  0.00    +0.079 A 
ATOM      6  C   UNL     1       1.185  -1.812  -0.568  0.00  0.00    +0.066 A 
ATOM      7  C   UNL     1      -0.136  -1.386  -0.690  0.00  0.00    +0.015 A 
ATOM      8  C   UNL     1       1.538  -3.236  -0.498  0.00  0.00    +0.279 A 
ATOM      9  O   UNL     1       0.684  -4.102  -0.546  0.00  0.00    -0.265 OA
ATOM     10  N   UNL     1       2.850  -3.550  -0.379  0.00  0.00    -0.209 N 
ATOM     11  C   UNL     1       3.795  -2.566  -0.327  0.00  0.00    +0.190 A 
ATOM     12  N   UNL     1       3.503  -1.290  -0.388  0.00  0.00    -0.222 NA
BRANCH  10  13
ATOM     13  N   UNL     1       3.230  -4.860  -0.310  0.00  0.00    -0.293 N 
ATOM     14  H   UNL     1       2.430  -5.472  -0.360  0.00  0.00    +0.163 HD
ATOM     15  H   UNL     1       3.900  -5.081  -1.032  0.00  0.00    +0.163 HD
ENDBRANCH  10  13
ENDBRANCH   1  11
BRANCH   1  16
ATOM     16  C   UNL     1       6.378  -1.453  -0.141  0.00  0.00    +0.150 C 
ATOM     17  C   UNL     1       7.888  -1.686   0.065  0.00  0.00    +0.120 C 
ATOM     18  C   UNL     1       8.509  -1.114  -1.191  0.00  0.00    +0.228 C 
ATOM     19  O   UNL     1       9.696  -1.092  -1.440  0.00  0.00    -0.275 OA
ATOM     20  N   UNL     1       7.542  -0.636  -1.983  0.00  0.00    -0.209 N 
ATOM     21  C   UNL     1       6.301  -0.772  -1.490  0.00  0.00    +0.240 C 
ATOM     22  O   UNL     1       5.281  -0.411  -2.037  0.00  0.00    -0.274 OA
BRANCH  20  23
ATOM     23  C   UNL     1       7.803  -0.040  -3.225  0.00  0.00    +0.044 A 
ATOM     24  C   UNL     1       7.568   1.316  -3.409  0.00  0.00    +0.025 A 
ATOM     25  C   UNL     1       7.825   1.901  -4.633  0.00  0.00    +0.022 A 
ATOM     26  C   UNL     1       8.318   1.137  -5.676  0.00  0.00    +0.041 A 
ATOM     27  C   UNL     1       8.553  -0.215  -5.496  0.00  0.00    +0.022 A 
ATOM     28  C   UNL     1       8.302  -0.803  -4.272  0.00  0.00    +0.025 A 
ATOM     29 CL   UNL     1       8.641   1.875  -7.214  0.00  0.00    -0.084 Cl
ENDBRANCH  20  23
ENDBRANCH   1  16
TORSDOF 4
