REMARK  Name = ZINC21243400
REMARK  6 active torsions:
REMARK  status: ('A' for Active; 'I' for Inactive)
REMARK    1  A    between atoms: C_1  and  C_2
REMARK    2  A    between atoms: C_2  and  C_4
REMARK    3  A    between atoms: C_2  and  S_20
REMARK    4  A    between atoms: N_9  and  C_10
REMARK    5  A    between atoms: S_20  and  C_21
REMARK    6  A    between atoms: N_26  and  C_27
REMARK                            x       y       z     vdW  Elec       q    Type
REMARK                         _______ _______ _______ _____ _____    ______ ____
ROOT
ATOM      1  C   UNL     1       0.048   8.154  -0.080  0.00  0.00    +0.233 C 
ATOM      2  O   UNL     1      -1.040   8.534   0.297  0.00  0.00    -0.274 OA
ATOM      3  N   UNL     1       0.927   9.034  -0.599  0.00  0.00    -0.239 N 
ATOM      4  C   UNL     1       0.597  10.336  -0.700  0.00  0.00    +0.306 C 
ATOM      5  O   UNL     1      -0.494  10.717  -0.323  0.00  0.00    -0.252 OA
ATOM      6  N   UNL     1       1.476  11.216  -1.219  0.00  0.00    -0.294 N 
ATOM      7  H   UNL     1       1.914   8.688  -0.940  0.00  0.00    +0.159 HD
ATOM      8  H   UNL     1       2.463  10.871  -1.561  0.00  0.00    +0.151 HD
ENDROOT
BRANCH   6   9
ATOM      9  C   UNL     1       1.116  12.632  -1.329  0.00  0.00    +0.037 C 
ATOM     10  C   UNL     1      -0.121  12.777  -2.218  0.00  0.00    +0.029 C 
ATOM     11  C   UNL     1      -0.496  14.256  -2.332  0.00  0.00    -0.008 C 
ATOM     12  C   UNL     1       0.669  15.031  -2.950  0.00  0.00    +0.007 C 
ATOM     13  C   UNL     1       1.906  14.886  -2.061  0.00  0.00    -0.008 C 
ATOM     14  C   UNL     1       2.282  13.408  -1.946  0.00  0.00    +0.029 C 
ATOM     15  C   UNL     1       1.603  15.445  -0.669  0.00  0.00    +0.007 C 
ATOM     16  C   UNL     1       0.437  14.669  -0.052  0.00  0.00    -0.008 C 
ATOM     17  C   UNL     1      -0.800  14.814  -0.941  0.00  0.00    +0.007 C 
ATOM     18  C   UNL     1       0.812  13.191   0.063  0.00  0.00    +0.029 C 
ENDBRANCH   6   9
BRANCH   1  20
ATOM     19  C   UNL     1       1.192   6.466   1.333  0.00  0.00    +0.029 C 
ATOM     20  C   UNL     1       0.418   6.697   0.033  0.00  0.00    +0.136 C 
BRANCH  20  21
ATOM     21  S   UNL     1      -1.091   5.689   0.042  0.00  0.00    -0.084 S 
BRANCH  21  22
ATOM     22  C   UNL     1      -0.496   4.031   0.028  0.00  0.00    +0.161 A 
ATOM     23  N   UNL     1       0.747   3.589   0.014  0.00  0.00    -0.133 NA
ATOM     24  N   UNL     1       0.992   2.235   0.005  0.00  0.00    -0.125 NA
ATOM     25  C   UNL     1      -0.017   1.386   0.010  0.00  0.00    +0.183 A 
ATOM     26  S   UNL     1      -1.414   2.499   0.021  0.00  0.00    -0.025 S 
ATOM     27  N   UNL     1       0.002  -0.004   0.002  0.00  0.00    -0.319 N 
ATOM     28  H   UNL     1      -0.943  -0.567   0.007  0.00  0.00    +0.148 HD
BRANCH  27  29
ATOM     29  C   UNL     1       1.281  -0.719  -0.013  0.00  0.00    +0.072 C 
ATOM     30  C   UNL     1       1.774  -0.851  -1.456  0.00  0.00    +0.022 C 
ATOM     31  C   UNL     1       3.109  -1.598  -1.472  0.00  0.00    +0.002 C 
ATOM     32  C   UNL     1       2.921  -2.991  -0.868  0.00  0.00    +0.000 C 
ATOM     33  C   UNL     1       2.428  -2.859   0.574  0.00  0.00    +0.002 C 
ATOM     34  C   UNL     1       1.093  -2.112   0.590  0.00  0.00    +0.022 C 
ENDBRANCH  27  29
ENDBRANCH  21  22
ENDBRANCH  20  21
ENDBRANCH   1  20
TORSDOF 5
