REMARK  Name = ZINC63547274
REMARK  8 active torsions:
REMARK  status: ('A' for Active; 'I' for Inactive)
REMARK    1  A    between atoms: C_1  and  O_2
REMARK    2  A    between atoms: O_2  and  C_3
REMARK    3  A    between atoms: C_6  and  C_9
REMARK    4  A    between atoms: C_13  and  C_23
REMARK    5  A    between atoms: C_17  and  C_19
REMARK    6  A    between atoms: N_25  and  C_26
REMARK    7  A    between atoms: C_26  and  C_27
REMARK    8  A    between atoms: C_27  and  C_28
REMARK                            x       y       z     vdW  Elec       q    Type
REMARK                         _______ _______ _______ _____ _____    ______ ____
ROOT
ATOM      1  C   UNL     1       2.493  -2.493  -4.363  0.00  0.00    +0.050 C 
ATOM      2  N   UNL     1       2.534  -3.807  -4.434  0.00  0.00    -0.342 N 
ATOM      3  C   UNL     1       3.131  -4.431  -5.480  0.00  0.00    +0.116 C 
ATOM      4  C   UNL     1       3.268  -5.752  -5.718  0.00  0.00    +0.045 C 
ATOM      5  C   UNL     1       4.014  -5.883  -7.026  0.00  0.00    +0.185 C 
ATOM      6  N   UNL     1       4.256  -4.494  -7.453  0.00  0.00    -0.218 NA
ATOM      7  N   UNL     1       3.709  -3.683  -6.495  0.00  0.00    -0.215 N 
ATOM      8  C   UNL     1       3.673  -2.310  -6.433  0.00  0.00    +0.133 C 
ATOM      9  C   UNL     1       3.071  -1.705  -5.390  0.00  0.00    +0.055 C 
ATOM     10  H   UNL     1       5.244  -4.315  -7.558  0.00  0.00    +0.146 HD
ATOM     11  H   UNL     1       2.132  -4.336  -3.727  0.00  0.00    +0.167 HD
ENDROOT
BRANCH   1  15
ATOM     12  C   UNL     1       0.605  -0.607  -1.055  0.00  0.00    +0.120 A 
ATOM     13  C   UNL     1       1.172   0.165  -2.061  0.00  0.00    +0.046 A 
ATOM     14  C   UNL     1       1.785  -0.443  -3.135  0.00  0.00    +0.013 A 
ATOM     15  C   UNL     1       1.836  -1.836  -3.211  0.00  0.00    -0.001 A 
ATOM     16  C   UNL     1       1.265  -2.608  -2.198  0.00  0.00    +0.013 A 
ATOM     17  C   UNL     1       0.659  -1.993  -1.124  0.00  0.00    +0.046 A 
BRANCH  12  19
ATOM     18  C   UNL     1      -0.017   1.425   0.010  0.00  0.00    +0.277 C 
ATOM     19  O   UNL     1       0.002  -0.004   0.002  0.00  0.00    -0.495 OA
ENDBRANCH  12  19
ENDBRANCH   1  15
BRANCH   8  20
ATOM     20  C   UNL     1       4.298  -1.485  -7.529  0.00  0.00    +0.432 C 
ATOM     21  F   UNL     1       4.133  -0.126  -7.241  0.00  0.00    -0.165 F 
ATOM     22  F   UNL     1       5.662  -1.782  -7.615  0.00  0.00    -0.165 F 
ATOM     23  F   UNL     1       3.678  -1.782  -8.747  0.00  0.00    -0.165 F 
ENDBRANCH   8  20
BRANCH   5  24
ATOM     24  C   UNL     1       5.319  -6.607  -6.817  0.00  0.00    +0.236 C 
ATOM     25  O   UNL     1       6.368  -6.050  -7.063  0.00  0.00    -0.274 OA
ATOM     26  N   UNL     1       5.321  -7.874  -6.356  0.00  0.00    -0.313 N 
ATOM     27  H   UNL     1       4.482  -8.320  -6.159  0.00  0.00    +0.149 HD
BRANCH  26  28
ATOM     28  C   UNL     1       6.590  -8.578  -6.153  0.00  0.00    +0.108 C 
BRANCH  28  29
ATOM     29  C   UNL     1       6.312  -9.988  -5.628  0.00  0.00    +0.052 C 
BRANCH  29  30
ATOM     30  C   UNL     1       7.617 -10.712  -5.419  0.00  0.00    -0.040 C 
ATOM     31  C   UNL     1       8.314 -10.816  -4.264  0.00  0.00    +0.000 A 
ATOM     32  C   UNL     1       8.074 -10.304  -2.910  0.00  0.00    +0.030 A 
ATOM     33  C   UNL     1       8.974 -10.577  -1.936  0.00  0.00    +0.042 A 
ATOM     34  C   UNL     1      10.127 -11.335  -2.190  0.00  0.00    +0.022 A 
ATOM     35  C   UNL     1      10.415 -11.839  -3.409  0.00  0.00    +0.027 A 
ATOM     36  C   UNL     1       9.538 -11.613  -4.505  0.00  0.00    +0.043 A 
ATOM     37  N   UNL     1       9.596 -11.988  -5.760  0.00  0.00    -0.380 N 
ATOM     38  C   UNL     1       8.410 -11.475  -6.457  0.00  0.00    +0.144 C 
ATOM     39 CL   UNL     1       8.694  -9.974  -0.333  0.00  0.00    -0.084 Cl
ATOM     40  H   UNL     1      10.302 -12.518  -6.161  0.00  0.00    +0.160 HD
ENDBRANCH  29  30
ENDBRANCH  28  29
ENDBRANCH  26  28
ENDBRANCH   5  24
TORSDOF 7
