REMARK  Name = ZINC15969303
REMARK  5 active torsions:
REMARK  status: ('A' for Active; 'I' for Inactive)
REMARK    1  A    between atoms: C_1  and  C_2
REMARK    2  A    between atoms: C_2  and  C_4
REMARK    3  A    between atoms: C_2  and  O_37
REMARK    4  A    between atoms: N_12  and  C_15
REMARK    5  A    between atoms: C_15  and  C_16
REMARK                            x       y       z     vdW  Elec       q    Type
REMARK                         _______ _______ _______ _____ _____    ______ ____
ROOT
ATOM      1  C   UNL     1       0.718  -0.497  -1.257  0.00  0.00    +0.096 C 
ATOM      2  C   UNL     1       0.609  -2.033  -1.370  0.00  0.00    +0.109 C 
ATOM      3  C   UNL     1       0.439  -2.309  -2.890  0.00  0.00    +0.123 C 
ATOM      4  C   UNL     1       1.707  -3.045  -3.255  0.00  0.00    +0.229 C 
ATOM      5  O   UNL     1       1.989  -3.449  -4.363  0.00  0.00    -0.275 OA
ATOM      6  N   UNL     1       2.471  -3.182  -2.165  0.00  0.00    -0.237 N 
ATOM      7  C   UNL     1       1.947  -2.652  -1.036  0.00  0.00    +0.228 C 
ATOM      8  O   UNL     1       2.458  -2.664   0.064  0.00  0.00    -0.275 OA
ATOM      9  C   UNL     1       0.423  -0.919  -3.536  0.00  0.00    +0.136 C 
ATOM     10  N   UNL     1       0.044   0.025  -2.475  0.00  0.00    -0.293 NA
ATOM     11  C   UNL     1       1.765  -0.557  -4.106  0.00  0.00    +0.005 A 
ATOM     12  C   UNL     1       3.024  -0.431  -3.562  0.00  0.00    +0.008 A 
ATOM     13  C   UNL     1       4.092  -0.072  -4.363  0.00  0.00    +0.002 A 
ATOM     14  C   UNL     1       3.894   0.161  -5.712  0.00  0.00    +0.022 A 
ATOM     15  C   UNL     1       2.635   0.035  -6.263  0.00  0.00    +0.062 A 
ATOM     16  C   UNL     1       1.553  -0.327  -5.462  0.00  0.00    +0.057 A 
ATOM     17  N   UNL     1       0.205  -0.516  -5.779  0.00  0.00    -0.282 N 
ATOM     18  C   UNL     1      -0.525  -0.865  -4.703  0.00  0.00    +0.243 C 
ATOM     19  O   UNL     1      -1.717  -1.093  -4.679  0.00  0.00    -0.273 OA
ATOM     20 CL   UNL     1       2.398   0.328  -7.957  0.00  0.00    -0.082 Cl
ATOM     21  H   UNL     1      -0.958   0.037  -2.356  0.00  0.00    +0.124 HD
ATOM     22  H   UNL     1      -0.162  -0.408  -6.670  0.00  0.00    +0.155 HD
ENDROOT
BRANCH   1  24
ATOM     23  C   UNL     1      -0.019   1.526   0.010  0.00  0.00    +0.039 C 
ATOM     24  C   UNL     1       0.002  -0.004   0.002  0.00  0.00    +0.129 C 
BRANCH  24  25
ATOM     25  O   UNL     1      -1.339  -0.499   0.012  0.00  0.00    -0.390 OA
ATOM     26  H   UNL     1      -1.853  -0.225   0.784  0.00  0.00    +0.210 HD
ENDBRANCH  24  25
ENDBRANCH   1  24
BRANCH   6  27
ATOM     27  C   UNL     1       3.770  -3.860  -2.188  0.00  0.00    +0.151 C 
BRANCH  27  28
ATOM     28  C   UNL     1       4.854  -2.857  -2.488  0.00  0.00    -0.026 A 
ATOM     29  C   UNL     1       5.216  -2.603  -3.798  0.00  0.00    +0.009 A 
ATOM     30  C   UNL     1       6.209  -1.684  -4.078  0.00  0.00    +0.050 A 
ATOM     31  C   UNL     1       6.845  -1.014  -3.046  0.00  0.00    +0.166 A 
ATOM     32  C   UNL     1       6.481  -1.269  -1.726  0.00  0.00    +0.167 A 
ATOM     33  C   UNL     1       5.480  -2.188  -1.453  0.00  0.00    +0.054 A 
ATOM     34  O   UNL     1       7.245  -0.493  -0.904  0.00  0.00    -0.453 OA
ATOM     35  C   UNL     1       8.360  -0.063  -1.709  0.00  0.00    +0.466 C 
ATOM     36  O   UNL     1       7.838  -0.077  -3.051  0.00  0.00    -0.453 OA
ENDBRANCH  27  28
ENDBRANCH   6  27
TORSDOF 4
