REMARK  Name = ZINC05763171
REMARK  5 active torsions:
REMARK  status: ('A' for Active; 'I' for Inactive)
REMARK    1  A    between atoms: C_3  and  C_10
REMARK    2  A    between atoms: C_5  and  N_7
REMARK    3  A    between atoms: C_10  and  C_11
REMARK    4  A    between atoms: N_17  and  N_18
REMARK    5  A    between atoms: C_19  and  C_20
REMARK                            x       y       z     vdW  Elec       q    Type
REMARK                         _______ _______ _______ _____ _____    ______ ____
ROOT
ATOM      1  C   UNL     1       4.124   2.436   1.417  0.00  0.00    +0.144 C 
ATOM      2  C   UNL     1       5.445   3.188   1.455  0.00  0.00    +0.232 C 
ATOM      3  O   UNL     1       6.465   2.724   0.990  0.00  0.00    -0.274 OA
ATOM      4  N   UNL     1       5.412   4.380   2.025  0.00  0.00    -0.263 N 
ATOM      5  C   UNL     1       4.257   4.916   2.556  0.00  0.00    +0.183 C 
ATOM      6  N   UNL     1       4.097   6.083   3.144  0.00  0.00    -0.127 NA
ATOM      7  S   UNL     1       3.027   3.653   2.256  0.00  0.00    -0.075 S 
ATOM      8  H   UNL     1       6.231   4.898   2.073  0.00  0.00    +0.157 HD
ENDROOT
BRANCH   6   9
ATOM      9  N   UNL     1       2.936   6.428   3.586  0.00  0.00    -0.152 NA
ATOM     10  C   UNL     1       2.777   7.588   4.171  0.00  0.00    +0.181 C 
BRANCH  10  11
ATOM     11  C   UNL     1       1.460   7.980   4.672  0.00  0.00    +0.147 A 
ATOM     12  C   UNL     1       1.156   9.158   5.295  0.00  0.00    +0.051 A 
ATOM     13  C   UNL     1      -0.216   9.109   5.604  0.00  0.00    +0.042 A 
ATOM     14  C   UNL     1      -0.680   7.922   5.163  0.00  0.00    +0.196 A 
ATOM     15  O   UNL     1       0.332   7.245   4.596  0.00  0.00    -0.462 OA
ENDBRANCH  10  11
ENDBRANCH   6   9
BRANCH   1  16
ATOM     16  C   UNL     1       3.672   2.182  -0.022  0.00  0.00    +0.059 C 
BRANCH  16  19
ATOM     17  C   UNL     1      -0.017   1.378   0.010  0.00  0.00    +0.002 A 
ATOM     18  C   UNL     1       1.171   2.085   0.002  0.00  0.00    +0.004 A 
ATOM     19  C   UNL     1       2.377   1.411  -0.013  0.00  0.00    -0.044 A 
ATOM     20  C   UNL     1       2.396   0.028  -0.020  0.00  0.00    +0.036 A 
ATOM     21  C   UNL     1       1.209  -0.679  -0.012  0.00  0.00    +0.126 A 
ATOM     22  C   UNL     1       0.002  -0.004   0.002  0.00  0.00    +0.033 A 
BRANCH  21  23
ATOM     23  N   UNL     1       1.229  -2.159  -0.020  0.00  0.00    +0.056 N 
ATOM     24  O   UNL     1       2.284  -2.749  -0.035  0.00  0.00    -0.126 OA
ATOM     25  O   UNL     1       0.190  -2.778  -0.013  0.00  0.00    -0.126 OA
ENDBRANCH  21  23
ENDBRANCH  16  19
ENDBRANCH   1  16
TORSDOF 5
