REMARK  Name = ZINC13110058
REMARK  5 active torsions:
REMARK  status: ('A' for Active; 'I' for Inactive)
REMARK    1  A    between atoms: C_3  and  C_6
REMARK    2  A    between atoms: C_9  and  S_14
REMARK    3  A    between atoms: N_10  and  C_11
REMARK    4  A    between atoms: S_14  and  C_15
REMARK    5  A    between atoms: C_15  and  C_16
REMARK                            x       y       z     vdW  Elec       q    Type
REMARK                         _______ _______ _______ _____ _____    ______ ____
ROOT
ATOM      1  C   UNL     1       0.872   5.169   0.263  0.00  0.00    +0.172 A 
ATOM      2  N   UNL     1       0.183   6.228  -0.103  0.00  0.00    -0.128 NA
ATOM      3  N   UNL     1       0.974   7.223  -0.289  0.00  0.00    -0.122 NA
ATOM      4  C   UNL     1       2.217   6.862  -0.062  0.00  0.00    +0.192 A 
ATOM      5  N   UNL     1       2.197   5.543   0.297  0.00  0.00    -0.299 N 
ENDROOT
BRANCH   1   8
ATOM      6  C   UNL     1      -1.238   2.143   1.086  0.00  0.00    +0.008 A 
ATOM      7  C   UNL     1      -0.967   3.467   0.825  0.00  0.00    +0.019 A 
ATOM      8  C   UNL     1       0.330   3.836   0.571  0.00  0.00    +0.056 A 
ATOM      9  S   UNL     1       1.190   2.277   0.712  0.00  0.00    -0.094 S 
ATOM     10  C   UNL     1      -0.217   1.247   1.095  0.00  0.00    +0.046 A 
ENDBRANCH   1   8
BRANCH   5  11
ATOM     11  C   UNL     1       3.346   4.702   0.645  0.00  0.00    +0.091 C 
ATOM     12  C   UNL     1       4.658   5.408   0.993  0.00  0.00    +0.027 C 
ATOM     13  C   UNL     1       4.518   4.666  -0.338  0.00  0.00    +0.027 C 
ENDBRANCH   5  11
BRANCH   4  14
ATOM     14  S   UNL     1       3.644   7.887  -0.196  0.00  0.00    -0.081 S 
BRANCH  14  15
ATOM     15  C   UNL     1       2.867   9.442  -0.702  0.00  0.00    +0.113 C 
BRANCH  15  16
ATOM     16  C   UNL     1       3.927  10.498  -0.882  0.00  0.00    -0.020 A 
ATOM     17  C   UNL     1       4.291  11.300   0.184  0.00  0.00    +0.055 A 
ATOM     18  C   UNL     1       5.270  12.268   0.023  0.00  0.00    +0.162 A 
ATOM     19  C   UNL     1       5.878  12.437  -1.216  0.00  0.00    +0.163 A 
ATOM     20  C   UNL     1       5.506  11.634  -2.283  0.00  0.00    +0.065 A 
ATOM     21  C   UNL     1       4.531  10.666  -2.114  0.00  0.00    +0.026 A 
ATOM     22 BR   UNL     1       4.024   9.574  -3.572  0.00  0.00    -0.050 Br
ATOM     23  O   UNL     1       6.842  13.382  -1.395  0.00  0.00    -0.485 OA
ATOM     24  C   UNL     1       6.924  14.413  -0.406  0.00  0.00    +0.270 C 
ATOM     25  C   UNL     1       6.859  13.756   0.980  0.00  0.00    +0.270 C 
ATOM     26  O   UNL     1       5.618  13.049   1.082  0.00  0.00    -0.485 OA
ENDBRANCH  15  16
ENDBRANCH  14  15
ENDBRANCH   4  14
TORSDOF 5
