REMARK  Name = ZINC01295109
REMARK  7 active torsions:
REMARK  status: ('A' for Active; 'I' for Inactive)
REMARK    1  A    between atoms: C_1  and  C_2
REMARK    2  A    between atoms: C_2  and  N_3
REMARK    3  A    between atoms: C_5  and  C_12
REMARK    4  A    between atoms: C_14  and  O_29
REMARK    5  A    between atoms: N_18  and  C_21
REMARK    6  A    between atoms: C_23  and  C_28
REMARK    7  A    between atoms: C_26  and  C_27
REMARK                            x       y       z     vdW  Elec       q    Type
REMARK                         _______ _______ _______ _____ _____    ______ ____
ROOT
ATOM      1  C   UNL     1       3.630   1.963  -0.022  0.00  0.00    +0.028 C 
ATOM      2  C   UNL     1       2.463   1.333   0.404  0.00  0.00    +0.097 C 
ATOM      3  C   UNL     1       2.312  -0.126   0.336  0.00  0.00    +0.218 C 
ATOM      4  N   UNL     1       1.177  -0.663   0.757  0.00  0.00    -0.127 NA
ATOM      5  C   UNL     1       0.181   0.077   1.235  0.00  0.00    +0.340 C 
ATOM      6  O   UNL     1      -0.833  -0.490   1.603  0.00  0.00    -0.250 OA
ATOM      7  N   UNL     1       0.231   1.413   1.333  0.00  0.00    -0.188 N 
ATOM      8  C   UNL     1       1.326   2.100   0.942  0.00  0.00    +0.263 C 
ATOM      9  O   UNL     1       1.372   3.313   1.030  0.00  0.00    -0.269 OA
ENDROOT
BRANCH   1  12
ATOM     10  N   UNL     1       3.117   5.474  -0.587  0.00  0.00    -0.346 N 
ATOM     11  C   UNL     1       2.716   4.195  -0.679  0.00  0.00    +0.094 A 
ATOM     12  C   UNL     1       3.676   3.366  -0.120  0.00  0.00    +0.001 A 
ATOM     13  C   UNL     1       4.755   4.256   0.357  0.00  0.00    +0.007 A 
ATOM     14  C   UNL     1       4.349   5.559   0.031  0.00  0.00    +0.050 A 
ATOM     15  C   UNL     1       5.174   6.630   0.356  0.00  0.00    +0.026 A 
ATOM     16  C   UNL     1       6.379   6.404   0.987  0.00  0.00    +0.002 A 
ATOM     17  C   UNL     1       6.780   5.115   1.302  0.00  0.00    +0.001 A 
ATOM     18  C   UNL     1       5.976   4.041   0.988  0.00  0.00    +0.010 A 
BRANCH  10  20
ATOM     19  C   UNL     1       2.822   6.990  -2.484  0.00  0.00    +0.027 C 
ATOM     20  C   UNL     1       2.350   6.623  -1.075  0.00  0.00    +0.118 C 
ENDBRANCH  10  20
ENDBRANCH   1  12
BRANCH   7  21
ATOM     21  C   UNL     1      -0.872   2.109   1.844  0.00  0.00    +0.049 A 
ATOM     22  C   UNL     1      -0.969   2.356   3.207  0.00  0.00    +0.027 A 
ATOM     23  C   UNL     1      -2.057   3.043   3.708  0.00  0.00    -0.049 A 
ATOM     24  C   UNL     1      -3.051   3.484   2.853  0.00  0.00    +0.004 A 
ATOM     25  C   UNL     1      -2.958   3.239   1.496  0.00  0.00    +0.005 A 
ATOM     26  C   UNL     1      -1.869   2.558   0.988  0.00  0.00    -0.029 A 
ATOM     27  C   UNL     1      -1.765   2.297  -0.493  0.00  0.00    +0.045 C 
ATOM     28  C   UNL     1      -2.163   3.311   5.187  0.00  0.00    +0.044 C 
ENDBRANCH   7  21
BRANCH   3  29
ATOM     29  O   UNL     1       3.306  -0.902  -0.143  0.00  0.00    -0.493 OA
ATOM     30  H   UNL     1       3.103  -1.848  -0.143  0.00  0.00    +0.294 HD
ENDBRANCH   3  29
TORSDOF 4
