REMARK  Name = ZINC00642385
REMARK  4 active torsions:
REMARK  status: ('A' for Active; 'I' for Inactive)
REMARK    1  A    between atoms: C_4  and  C_7
REMARK    2  A    between atoms: C_8  and  C_18
REMARK    3  A    between atoms: N_10  and  C_12
REMARK    4  A    between atoms: C_21  and  C_26
REMARK                            x       y       z     vdW  Elec       q    Type
REMARK                         _______ _______ _______ _____ _____    ______ ____
ROOT
ATOM      1  C   UNL     1       4.235   6.313  -1.408  0.00  0.00    +0.098 A 
ATOM      2  C   UNL     1       4.998   5.143  -1.227  0.00  0.00    +0.022 A 
ATOM      3  C   UNL     1       5.732   4.949  -2.344  0.00  0.00    +0.121 A 
ATOM      4  N   UNL     1       5.443   5.954  -3.212  0.00  0.00    -0.239 N 
ATOM      5  N   UNL     1       4.506   6.797  -2.602  0.00  0.00    -0.166 NA
ENDROOT
BRANCH   2   6
ATOM      6  C   UNL     1       5.000   4.266  -0.001  0.00  0.00    +0.131 C 
ATOM      7  C   UNL     1       3.752   3.409  -0.045  0.00  0.00    +0.024 C 
ATOM      8  C   UNL     1       3.903   2.083  -0.022  0.00  0.00    +0.038 C 
ATOM      9  N   UNL     1       5.169   1.506   0.030  0.00  0.00    -0.297 N 
ATOM     10  C   UNL     1       6.301   2.221   0.066  0.00  0.00    +0.135 C 
ATOM     11  S   UNL     1       7.801   1.398   0.129  0.00  0.00    -0.019 S 
ATOM     12  N   UNL     1       6.295   3.568   0.053  0.00  0.00    -0.316 N 
ATOM     13  H   UNL     1       5.234   0.538   0.042  0.00  0.00    +0.154 HD
ATOM     14  H   UNL     1       7.126   4.068   0.080  0.00  0.00    +0.149 HD
BRANCH   8  15
ATOM     15  C   UNL     1       2.706   1.212  -0.059  0.00  0.00    -0.004 A 
ATOM     16  C   UNL     1       1.431   1.776  -0.112  0.00  0.00    +0.010 A 
ATOM     17  C   UNL     1       0.320   0.959  -0.147  0.00  0.00    +0.001 A 
ATOM     18  C   UNL     1       0.467  -0.416  -0.129  0.00  0.00    +0.000 A 
ATOM     19  C   UNL     1       1.729  -0.982  -0.076  0.00  0.00    +0.001 A 
ATOM     20  C   UNL     1       2.848  -0.175  -0.041  0.00  0.00    +0.010 A 
ENDBRANCH   8  15
ENDBRANCH   2   6
BRANCH   1  24
ATOM     21  C   UNL     1       1.529   7.990   1.411  0.00  0.00    +0.000 A 
ATOM     22  C   UNL     1       2.763   7.528   1.832  0.00  0.00    +0.001 A 
ATOM     23  C   UNL     1       3.645   6.982   0.921  0.00  0.00    +0.010 A 
ATOM     24  C   UNL     1       3.291   6.899  -0.424  0.00  0.00    +0.002 A 
ATOM     25  C   UNL     1       2.049   7.372  -0.843  0.00  0.00    +0.010 A 
ATOM     26  C   UNL     1       1.172   7.910   0.078  0.00  0.00    +0.001 A 
ENDBRANCH   1  24
BRANCH   4  27
ATOM     27  C   UNL     1       5.991   6.120  -4.491  0.00  0.00    +0.065 A 
ATOM     28  C   UNL     1       6.920   5.208  -4.974  0.00  0.00    +0.028 A 
ATOM     29  C   UNL     1       7.454   5.372  -6.237  0.00  0.00    +0.002 A 
ATOM     30  C   UNL     1       7.072   6.449  -7.017  0.00  0.00    +0.000 A 
ATOM     31  C   UNL     1       6.151   7.361  -6.536  0.00  0.00    +0.002 A 
ATOM     32  C   UNL     1       5.609   7.200  -5.276  0.00  0.00    +0.028 A 
ENDBRANCH   4  27
TORSDOF 4
