REMARK  Name = ZINC14459702
REMARK  7 active torsions:
REMARK  status: ('A' for Active; 'I' for Inactive)
REMARK    1  A    between atoms: C_1  and  C_2
REMARK    2  A    between atoms: N_5  and  S_8
REMARK    3  A    between atoms: S_8  and  C_11
REMARK    4  A    between atoms: C_24  and  C_27
REMARK    5  A    between atoms: C_31  and  O_34
REMARK    6  A    between atoms: C_32  and  O_33
REMARK    7  A    between atoms: O_34  and  C_35
REMARK                            x       y       z     vdW  Elec       q    Type
REMARK                         _______ _______ _______ _____ _____    ______ ____
ROOT
ATOM      1  C   UNL     1       1.432  -3.945  -1.411  0.00  0.00    +0.106 A 
ATOM      2  C   UNL     1       2.745  -4.042  -1.834  0.00  0.00    +0.030 A 
ATOM      3  C   UNL     1       3.609  -2.980  -1.663  0.00  0.00    +0.025 A 
ATOM      4  C   UNL     1       3.167  -1.806  -1.066  0.00  0.00    +0.031 A 
ATOM      5  C   UNL     1       1.840  -1.718  -0.630  0.00  0.00    -0.018 A 
ATOM      6  C   UNL     1       0.984  -2.783  -0.811  0.00  0.00    +0.034 A 
ATOM      7  C   UNL     1       1.416  -0.460   0.020  0.00  0.00    +0.049 C 
ATOM      8  C   UNL     1       0.002  -0.004   0.002  0.00  0.00    -0.023 C 
ATOM      9  C   UNL     1      -0.016   1.323   0.009  0.00  0.00    -0.030 C 
ATOM     10  C   UNL     1       1.415   1.866  -0.001  0.00  0.00    +0.033 C 
ATOM     11  C   UNL     1       2.177   0.713  -0.668  0.00  0.00    +0.029 C 
ATOM     12  C   UNL     1       3.634   0.531  -0.282  0.00  0.00    +0.109 C 
ATOM     13  N   UNL     1       4.058  -0.736  -0.917  0.00  0.00    -0.336 N 
ATOM     14  H   UNL     1       4.970  -0.827  -1.236  0.00  0.00    +0.147 HD
ENDROOT
BRANCH  12  15
ATOM     15  C   UNL     1       4.459   1.678  -0.807  0.00  0.00    +0.018 A 
ATOM     16  C   UNL     1       5.121   1.558  -2.015  0.00  0.00    +0.009 A 
ATOM     17  C   UNL     1       5.873   2.610  -2.502  0.00  0.00    +0.004 A 
ATOM     18  C   UNL     1       5.977   3.783  -1.777  0.00  0.00    +0.049 A 
ATOM     19  C   UNL     1       5.322   3.908  -0.563  0.00  0.00    +0.162 A 
ATOM     20  C   UNL     1       4.559   2.851  -0.076  0.00  0.00    +0.163 A 
BRANCH  20  21
ATOM     21  O   UNL     1       3.913   2.969   1.115  0.00  0.00    -0.503 OA
ATOM     22  H   UNL     1       4.436   2.682   1.876  0.00  0.00    +0.292 HD
ENDBRANCH  20  21
BRANCH  19  23
ATOM     23  O   UNL     1       5.423   5.061   0.151  0.00  0.00    -0.491 OA
ATOM     24  C   UNL     1       6.223   6.104  -0.411  0.00  0.00    +0.277 C 
ENDBRANCH  19  23
ENDBRANCH  12  15
BRANCH   1  25
ATOM     25  S   UNL     1       0.330  -5.301  -1.640  0.00  0.00    +0.061 S 
ATOM     26  O   UNL     1      -0.984  -4.758  -1.653  0.00  0.00    -0.153 OA
ATOM     27  O   UNL     1       0.848  -6.068  -2.717  0.00  0.00    -0.153 OA
BRANCH  25  32
ATOM     28  C   UNL     1       2.164  -6.945   3.539  0.00  0.00    +0.007 C 
ATOM     29  C   UNL     1       1.326  -7.081   2.266  0.00  0.00    -0.012 C 
ATOM     30  C   UNL     1       0.416  -5.859   2.121  0.00  0.00    +0.020 C 
ATOM     31  C   UNL     1      -0.446  -6.016   0.864  0.00  0.00    +0.110 C 
ATOM     32  N   UNL     1       0.436  -6.251  -0.287  0.00  0.00    -0.177 NA
ATOM     33  C   UNL     1       1.409  -7.349  -0.219  0.00  0.00    +0.110 C 
ATOM     34  C   UNL     1       2.254  -7.175   1.052  0.00  0.00    +0.020 C 
ENDBRANCH  25  32
ENDBRANCH   1  25
TORSDOF 5
