REMARK  Name = ZINC35363843
REMARK  9 active torsions:
REMARK  status: ('A' for Active; 'I' for Inactive)
REMARK    1  A    between atoms: C_1  and  C_2
REMARK    2  A    between atoms: C_4  and  C_37
REMARK    3  A    between atoms: C_13  and  C_16
REMARK    4  A    between atoms: C_16  and  C_18
REMARK    5  A    between atoms: C_16  and  O_19
REMARK    6  A    between atoms: N_22  and  C_25
REMARK    7  A    between atoms: C_25  and  C_26
REMARK    8  A    between atoms: C_31  and  O_32
REMARK    9  A    between atoms: O_32  and  C_33
REMARK                            x       y       z     vdW  Elec       q    Type
REMARK                         _______ _______ _______ _____ _____    ______ ____
ROOT
ATOM      1  C   UNL     1      -0.968   1.869   0.464  0.00  0.00    +0.044 C 
ATOM      2  C   UNL     1      -0.688   0.395   0.313  0.00  0.00    -0.050 A 
ATOM      3  C   UNL     1      -0.847  -0.219  -0.916  0.00  0.00    +0.008 A 
ATOM      4  C   UNL     1      -0.592  -1.567  -1.060  0.00  0.00    -0.029 A 
ATOM      5  C   UNL     1      -0.172  -2.321   0.034  0.00  0.00    +0.042 A 
ATOM      6  C   UNL     1      -0.016  -1.692   1.265  0.00  0.00    +0.004 A 
ATOM      7  C   UNL     1      -0.266  -0.345   1.403  0.00  0.00    +0.011 A 
ATOM      8  C   UNL     1       0.439  -2.762   2.217  0.00  0.00    +0.136 C 
ATOM      9  C   UNL     1      -0.535  -2.921   3.391  0.00  0.00    +0.123 C 
ATOM     10  C   UNL     1       0.372  -3.246   4.611  0.00  0.00    +0.109 C 
ATOM     11  C   UNL     1       1.805  -3.284   4.041  0.00  0.00    +0.096 C 
ATOM     12  N   UNL     1       1.746  -2.431   2.816  0.00  0.00    -0.293 NA
ATOM     13  C   UNL     1       0.204  -2.037   5.502  0.00  0.00    +0.228 C 
ATOM     14  O   UNL     1       0.755  -1.871   6.569  0.00  0.00    -0.275 OA
ATOM     15  N   UNL     1      -0.647  -1.177   4.930  0.00  0.00    -0.237 N 
ATOM     16  C   UNL     1      -1.138  -1.577   3.734  0.00  0.00    +0.229 C 
ATOM     17  O   UNL     1      -1.927  -0.967   3.046  0.00  0.00    -0.275 OA
ATOM     18  C   UNL     1       0.514  -4.016   1.390  0.00  0.00    +0.243 C 
ATOM     19  O   UNL     1       0.843  -5.118   1.774  0.00  0.00    -0.273 OA
ATOM     20  N   UNL     1       0.144  -3.677   0.140  0.00  0.00    -0.283 N 
ATOM     21  C   UNL     1      -0.769  -2.225  -2.403  0.00  0.00    +0.045 C 
ATOM     22  H   UNL     1       2.500  -2.658   2.186  0.00  0.00    +0.124 HD
ATOM     23  H   UNL     1       0.102  -4.302  -0.601  0.00  0.00    +0.155 HD
ENDROOT
BRANCH  11  24
ATOM     24  C   UNL     1       2.793  -2.684   5.043  0.00  0.00    +0.129 C 
ATOM     25  C   UNL     1       2.881  -3.588   6.275  0.00  0.00    +0.039 C 
BRANCH  24  26
ATOM     26  O   UNL     1       4.082  -2.578   4.437  0.00  0.00    -0.390 OA
ATOM     27  H   UNL     1       4.450  -3.423   4.144  0.00  0.00    +0.210 HD
ENDBRANCH  24  26
ENDBRANCH  11  24
BRANCH  15  28
ATOM     28  C   UNL     1      -1.025   0.095   5.551  0.00  0.00    +0.155 C 
BRANCH  28  29
ATOM     29  C   UNL     1      -2.321  -0.078   6.301  0.00  0.00    +0.012 A 
ATOM     30  C   UNL     1      -3.510   0.335   5.732  0.00  0.00    +0.009 A 
ATOM     31  C   UNL     1      -4.698   0.177   6.420  0.00  0.00    +0.001 A 
ATOM     32  C   UNL     1      -4.700  -0.394   7.680  0.00  0.00    +0.004 A 
ATOM     33  C   UNL     1      -3.514  -0.809   8.253  0.00  0.00    +0.046 A 
ATOM     34  C   UNL     1      -2.321  -0.656   7.562  0.00  0.00    +0.125 A 
BRANCH  34  35
ATOM     35  O   UNL     1      -1.153  -1.069   8.122  0.00  0.00    -0.495 OA
ATOM     36  C   UNL     1      -1.240  -1.759   9.370  0.00  0.00    +0.277 C 
ENDBRANCH  34  35
ENDBRANCH  28  29
ENDBRANCH  15  28
TORSDOF 5
