REMARK  Name = ZINC14921547
REMARK  9 active torsions:
REMARK  status: ('A' for Active; 'I' for Inactive)
REMARK    1  A    between atoms: C_1  and  C_2
REMARK    2  A    between atoms: C_5  and  S_9
REMARK    3  A    between atoms: C_6  and  C_8
REMARK    4  A    between atoms: S_9  and  N_12
REMARK    5  A    between atoms: N_15  and  C_18
REMARK    6  A    between atoms: C_18  and  C_20
REMARK    7  A    between atoms: C_18  and  C_21
REMARK    8  A    between atoms: N_23  and  C_24
REMARK    9  A    between atoms: C_25  and  C_32
REMARK                            x       y       z     vdW  Elec       q    Type
REMARK                         _______ _______ _______ _____ _____    ______ ____
ROOT
ATOM      1  C   UNL     1       4.247  -7.942   1.851  0.00  0.00    +0.140 C 
ATOM      2  C   UNL     1       3.337  -8.815   0.984  0.00  0.00    +0.034 C 
ENDROOT
BRANCH   1   6
ATOM      3  N   UNL     1       1.875  -4.482   1.724  0.00  0.00    -0.174 NA
ATOM      4  C   UNL     1       2.920  -4.614   0.697  0.00  0.00    +0.125 C 
ATOM      5  C   UNL     1       3.320  -6.090   0.597  0.00  0.00    +0.102 C 
ATOM      6  N   UNL     1       3.693  -6.584   1.929  0.00  0.00    -0.289 NA
ATOM      7  C   UNL     1       2.553  -6.532   2.854  0.00  0.00    +0.102 C 
ATOM      8  C   UNL     1       2.124  -5.070   3.049  0.00  0.00    +0.125 C 
BRANCH   3   9
ATOM      9  S   UNL     1       0.459  -3.687   1.399  0.00  0.00    +0.061 S 
ATOM     10  O   UNL     1      -0.507  -4.188   2.313  0.00  0.00    -0.153 OA
ATOM     11  O   UNL     1       0.276  -3.743  -0.010  0.00  0.00    -0.153 OA
BRANCH   9  16
ATOM     12  C   UNL     1       1.308   2.120   2.798  0.00  0.00    +0.044 C 
ATOM     13  C   UNL     1       1.096   0.670   2.448  0.00  0.00    -0.050 A 
ATOM     14  C   UNL     1       0.866   0.301   1.136  0.00  0.00    +0.005 A 
ATOM     15  C   UNL     1       0.671  -1.029   0.815  0.00  0.00    +0.029 A 
ATOM     16  C   UNL     1       0.708  -1.991   1.807  0.00  0.00    +0.108 A 
ATOM     17  C   UNL     1       0.939  -1.623   3.119  0.00  0.00    -0.024 A 
ATOM     18  C   UNL     1       1.138  -0.293   3.439  0.00  0.00    +0.008 A 
ATOM     19  C   UNL     1       0.978  -2.672   4.200  0.00  0.00    +0.046 C 
ENDBRANCH   9  16
ENDBRANCH   3   9
ENDBRANCH   1   6
BRANCH   1  20
ATOM     20  C   UNL     1       5.623  -7.889   1.239  0.00  0.00    +0.235 C 
ATOM     21  O   UNL     1       6.001  -6.879   0.683  0.00  0.00    -0.274 OA
ATOM     22  N   UNL     1       6.434  -8.963   1.310  0.00  0.00    -0.278 N 
ATOM     23  H   UNL     1       6.132  -9.770   1.755  0.00  0.00    +0.155 HD
BRANCH  22  24
ATOM     24  C   UNL     1       7.701  -8.914   0.747  0.00  0.00    +0.084 A 
ATOM     25  C   UNL     1       8.658  -9.911   0.719  0.00  0.00    +0.068 A 
ATOM     26  C   UNL     1       9.925  -9.605   0.057  0.00  0.00    -0.023 A 
ATOM     27  C   UNL     1       9.993  -8.361  -0.449  0.00  0.00    -0.004 A 
ATOM     28  S   UNL     1       8.421  -7.634  -0.062  0.00  0.00    -0.077 S 
ATOM     29  C   UNL     1      11.316  -8.098  -1.115  0.00  0.00    +0.043 C 
ATOM     30  C   UNL     1      12.247  -9.211  -0.586  0.00  0.00    +0.010 C 
ATOM     31  C   UNL     1      11.239 -10.325  -0.236  0.00  0.00    +0.037 C 
BRANCH  25  32
ATOM     32  C   UNL     1       8.412 -11.222   1.329  0.00  0.00    +0.244 C 
ATOM     33  O   UNL     1       7.918 -12.117   0.670  0.00  0.00    -0.270 OA
ATOM     34  N   UNL     1       8.734 -11.435   2.621  0.00  0.00    -0.325 N 
ATOM     35  H   UNL     1       9.128 -10.721   3.147  0.00  0.00    +0.145 HD
ATOM     36  H   UNL     1       8.572 -12.302   3.024  0.00  0.00    +0.145 HD
ENDBRANCH  25  32
ENDBRANCH  22  24
ENDBRANCH   1  20
TORSDOF 6
