REMARK  Name = ZINC38903573
REMARK  9 active torsions:
REMARK  status: ('A' for Active; 'I' for Inactive)
REMARK    1  A    between atoms: C_1  and  C_2
REMARK    2  A    between atoms: C_5  and  C_8
REMARK    3  A    between atoms: C_12  and  S_21
REMARK    4  A    between atoms: N_13  and  C_14
REMARK    5  A    between atoms: C_17  and  C_20
REMARK    6  A    between atoms: S_21  and  C_22
REMARK    7  A    between atoms: C_22  and  C_23
REMARK    8  A    between atoms: N_25  and  N_26
REMARK    9  A    between atoms: C_27  and  C_28
REMARK                            x       y       z     vdW  Elec       q    Type
REMARK                         _______ _______ _______ _____ _____    ______ ____
ROOT
ATOM      1  C   UNL     1       0.051  -4.288  -0.021  0.00  0.00    +0.213 C 
ATOM      2  N   UNL     1       0.711  -4.784  -1.241  0.00  0.00    -0.242 N 
ATOM      3  N   UNL     1       1.837  -5.497  -0.814  0.00  0.00    -0.162 NA
ATOM      4  C   UNL     1       1.938  -5.494   0.473  0.00  0.00    +0.180 C 
ATOM      5  N   UNL     1       0.902  -4.787   1.073  0.00  0.00    -0.254 N 
ATOM      6  H   UNL     1       0.422  -4.644  -2.157  0.00  0.00    +0.170 HD
ENDROOT
BRANCH   1  11
ATOM      7  C   UNL     1      -0.100   1.489   0.001  0.00  0.00    +0.044 C 
ATOM      8  C   UNL     1      -0.061  -0.018  -0.005  0.00  0.00    -0.050 A 
ATOM      9  C   UNL     1      -0.023  -0.704  -1.205  0.00  0.00    +0.004 A 
ATOM     10  C   UNL     1       0.013  -2.086  -1.210  0.00  0.00    +0.007 A 
ATOM     11  C   UNL     1       0.013  -2.782  -0.015  0.00  0.00    -0.008 A 
ATOM     12  C   UNL     1      -0.024  -2.095   1.184  0.00  0.00    +0.007 A 
ATOM     13  C   UNL     1      -0.056  -0.714   1.190  0.00  0.00    +0.004 A 
ENDBRANCH   1  11
BRANCH   5  14
ATOM     14  C   UNL     1       0.705  -4.588   2.442  0.00  0.00    +0.038 A 
ATOM     15  C   UNL     1      -0.413  -5.124   3.069  0.00  0.00    +0.024 A 
ATOM     16  C   UNL     1      -0.604  -4.926   4.423  0.00  0.00    +0.005 A 
ATOM     17  C   UNL     1       0.315  -4.195   5.153  0.00  0.00    -0.050 A 
ATOM     18  C   UNL     1       1.429  -3.660   4.531  0.00  0.00    +0.005 A 
ATOM     19  C   UNL     1       1.629  -3.860   3.179  0.00  0.00    +0.024 A 
ATOM     20  C   UNL     1       0.102  -3.980   6.629  0.00  0.00    +0.044 C 
ENDBRANCH   5  14
BRANCH   4  21
ATOM     21  S   UNL     1       3.233  -6.292   1.363  0.00  0.00    -0.079 S 
BRANCH  21  22
ATOM     22  C   UNL     1       4.264  -7.033   0.068  0.00  0.00    +0.174 C 
BRANCH  22  23
ATOM     23  C   UNL     1       5.424  -7.757   0.702  0.00  0.00    +0.242 C 
ATOM     24  O   UNL     1       5.543  -7.771   1.908  0.00  0.00    -0.273 OA
ATOM     25  N   UNL     1       6.329  -8.388  -0.072  0.00  0.00    -0.206 N 
ATOM     26  H   UNL     1       6.233  -8.377  -1.038  0.00  0.00    +0.177 HD
BRANCH  25  27
ATOM     27  N   UNL     1       7.407  -9.061   0.517  0.00  0.00    -0.188 NA
ATOM     28  C   UNL     1       8.286  -9.674  -0.235  0.00  0.00    +0.136 C 
BRANCH  28  29
ATOM     29  C   UNL     1       9.365 -10.347   0.355  0.00  0.00    +0.000 C 
ATOM     30  C   UNL     1      10.384 -11.039  -0.296  0.00  0.00    +0.004 A 
ATOM     31  C   UNL     1      10.653 -11.279  -1.662  0.00  0.00    +0.010 A 
ATOM     32  C   UNL     1      11.743 -12.005  -2.015  0.00  0.00    +0.001 A 
ATOM     33  C   UNL     1      12.618 -12.528  -1.058  0.00  0.00    +0.002 A 
ATOM     34  C   UNL     1      12.422 -12.338   0.269  0.00  0.00    +0.026 A 
ATOM     35  C   UNL     1      11.302 -11.588   0.717  0.00  0.00    +0.043 A 
ATOM     36  N   UNL     1      10.896 -11.267   1.928  0.00  0.00    -0.380 N 
ATOM     37  C   UNL     1       9.671 -10.468   1.832  0.00  0.00    +0.150 C 
ATOM     38  H   UNL     1      11.341 -11.517   2.753  0.00  0.00    +0.160 HD
ENDBRANCH  28  29
ENDBRANCH  25  27
ENDBRANCH  22  23
ENDBRANCH  21  22
ENDBRANCH   4  21
TORSDOF 7
