REMARK  Name = ZINC63557108
REMARK  8 active torsions:
REMARK  status: ('A' for Active; 'I' for Inactive)
REMARK    1  A    between atoms: C_4  and  C_7
REMARK    2  A    between atoms: C_7  and  C_8
REMARK    3  A    between atoms: C_8  and  C_9
REMARK    4  A    between atoms: C_13  and  N_16
REMARK    5  A    between atoms: C_17  and  C_19
REMARK    6  A    between atoms: N_24  and  C_26
REMARK    7  A    between atoms: C_26  and  C_27
REMARK    8  A    between atoms: C_27  and  C_28
REMARK                            x       y       z     vdW  Elec       q    Type
REMARK                         _______ _______ _______ _____ _____    ______ ____
ROOT
ATOM      1  C   UNL     1      11.042  -3.537   1.840  0.00  0.00    +0.101 C 
ATOM      2  C   UNL     1      10.348  -4.904   1.639  0.00  0.00    +0.110 C 
ATOM      3  C   UNL     1      11.393  -5.915   2.060  0.00  0.00    +0.216 C 
ATOM      4  O   UNL     1      11.360  -7.098   1.796  0.00  0.00    -0.276 OA
ATOM      5  N   UNL     1      12.363  -5.311   2.767  0.00  0.00    -0.300 N 
ATOM      6  C   UNL     1      12.099  -3.874   2.915  0.00  0.00    +0.121 C 
ENDROOT
BRANCH   1   8
ATOM      7  N   UNL     1       9.027  -2.125   1.579  0.00  0.00    -0.284 N 
ATOM      8  C   UNL     1      10.066  -2.507   2.348  0.00  0.00    +0.220 C 
ATOM      9  O   UNL     1      10.215  -2.021   3.450  0.00  0.00    -0.275 OA
ATOM     10  H   UNL     1       8.908  -2.514   0.698  0.00  0.00    +0.152 HD
BRANCH   7  14
ATOM     11  C   UNL     1       5.507  -1.710   1.381  0.00  0.00    +0.188 C 
ATOM     12  N   UNL     1       5.998  -1.969   2.754  0.00  0.00    -0.175 NA
ATOM     13  N   UNL     1       7.144  -1.708   3.062  0.00  0.00    -0.157 NA
ATOM     14  C   UNL     1       8.079  -1.124   2.073  0.00  0.00    +0.275 C 
ATOM     15  S   UNL     1       6.873  -0.632   0.759  0.00  0.00    -0.085 S 
BRANCH  11  16
ATOM     16  C   UNL     1       4.171  -0.963   1.399  0.00  0.00    +0.044 C 
BRANCH  16  17
ATOM     17  C   UNL     1       3.711  -0.707  -0.038  0.00  0.00    +0.038 C 
BRANCH  17  21
ATOM     18  C   UNL     1      -0.017   1.378   0.010  0.00  0.00    +0.000 A 
ATOM     19  C   UNL     1       1.171   2.086   0.002  0.00  0.00    +0.000 A 
ATOM     20  C   UNL     1       2.377   1.411  -0.013  0.00  0.00    +0.003 A 
ATOM     21  C   UNL     1       2.396   0.029  -0.020  0.00  0.00    -0.047 A 
ATOM     22  C   UNL     1       1.208  -0.679  -0.012  0.00  0.00    +0.003 A 
ATOM     23  C   UNL     1       0.002  -0.004   0.002  0.00  0.00    +0.000 A 
ENDBRANCH  17  21
ENDBRANCH  16  17
ENDBRANCH  11  16
ENDBRANCH   7  14
ENDBRANCH   1   8
BRANCH   5  24
ATOM     24  C   UNL     1      13.533  -5.997   3.320  0.00  0.00    +0.112 C 
BRANCH  24  25
ATOM     25  C   UNL     1      14.668  -5.976   2.293  0.00  0.00    +0.052 C 
BRANCH  25  26
ATOM     26  C   UNL     1      15.872  -6.683   2.862  0.00  0.00    -0.040 C 
ATOM     27  C   UNL     1      16.219  -7.976   2.675  0.00  0.00    +0.000 A 
ATOM     28  C   UNL     1      15.602  -9.071   1.917  0.00  0.00    +0.030 A 
ATOM     29  C   UNL     1      16.197 -10.287   1.919  0.00  0.00    +0.042 A 
ATOM     30  C   UNL     1      17.384 -10.526   2.627  0.00  0.00    +0.022 A 
ATOM     31  C   UNL     1      18.009  -9.570   3.346  0.00  0.00    +0.027 A 
ATOM     32  C   UNL     1      17.472  -8.254   3.413  0.00  0.00    +0.043 A 
ATOM     33  N   UNL     1      17.883  -7.175   4.032  0.00  0.00    -0.380 N 
ATOM     34  C   UNL     1      16.940  -6.086   3.751  0.00  0.00    +0.144 C 
ATOM     35 CL   UNL     1      15.471 -11.585   1.023  0.00  0.00    -0.084 Cl
ATOM     36  H   UNL     1      18.680  -7.106   4.581  0.00  0.00    +0.160 HD
ENDBRANCH  25  26
ENDBRANCH  24  25
ENDBRANCH   5  24
TORSDOF 8
