REMARK  Name = ZINC63385423
REMARK  10 active torsions:
REMARK  status: ('A' for Active; 'I' for Inactive)
REMARK    1  A    between atoms: C_1  and  C_2
REMARK    2  A    between atoms: C_7  and  O_33
REMARK    3  A    between atoms: C_8  and  O_32
REMARK    4  A    between atoms: C_13  and  C_15
REMARK    5  A    between atoms: C_15  and  C_16
REMARK    6  A    between atoms: N_18  and  C_19
REMARK    7  A    between atoms: C_19  and  C_20
REMARK    8  A    between atoms: C_20  and  C_21
REMARK    9  A    between atoms: C_24  and  O_30
REMARK   10  A    between atoms: O_30  and  C_31
REMARK                            x       y       z     vdW  Elec       q    Type
REMARK                         _______ _______ _______ _____ _____    ______ ____
ROOT
ATOM      1  C   UNL     1       1.113  -0.147   3.667  0.00  0.00    +0.214 C 
ATOM      2  O   UNL     1       1.980  -0.986   3.541  0.00  0.00    -0.276 OA
ATOM      3  N   UNL     1       0.886   0.412   4.872  0.00  0.00    -0.315 N 
ATOM      4  H   UNL     1       0.193   1.083   4.973  0.00  0.00    +0.149 HD
ENDROOT
BRANCH   1   5
ATOM      5  C   UNL     1       0.290   0.270   2.476  0.00  0.00    +0.111 C 
BRANCH   5  17
ATOM      6  C   UNL     1      -0.019   1.526   0.010  0.00  0.00    +0.013 C 
ATOM      7  C   UNL     1       0.002  -0.004   0.002  0.00  0.00    +0.034 C 
ATOM      8  C   UNL     1      -1.413  -0.524   0.009  0.00  0.00    +0.003 A 
ATOM      9  C   UNL     1      -2.362   0.134  -0.760  0.00  0.00    +0.011 A 
ATOM     10  C   UNL     1      -3.669  -0.309  -0.792  0.00  0.00    +0.050 A 
ATOM     11  C   UNL     1      -4.043  -1.421  -0.052  0.00  0.00    +0.162 A 
ATOM     12  C   UNL     1      -3.099  -2.082   0.722  0.00  0.00    +0.202 A 
ATOM     13  C   UNL     1      -1.780  -1.630   0.754  0.00  0.00    +0.180 A 
ATOM     14  O   UNL     1      -0.889  -2.295   1.540  0.00  0.00    -0.421 OA
ATOM     15  C   UNL     1       0.414  -1.979   1.408  0.00  0.00    +0.317 C 
ATOM     16  O   UNL     1       1.276  -2.826   1.423  0.00  0.00    -0.250 OA
ATOM     17  C   UNL     1       0.747  -0.510   1.241  0.00  0.00    +0.114 C 
BRANCH  12  18
ATOM     18  O   UNL     1      -3.460  -3.174   1.449  0.00  0.00    -0.501 OA
ATOM     19  H   UNL     1      -3.369  -4.011   0.973  0.00  0.00    +0.292 HD
ENDBRANCH  12  18
BRANCH  11  20
ATOM     20  O   UNL     1      -5.329  -1.861  -0.084  0.00  0.00    -0.503 OA
ATOM     21  H   UNL     1      -5.505  -2.510  -0.778  0.00  0.00    +0.292 HD
ENDBRANCH  11  20
ENDBRANCH   5  17
ENDBRANCH   1   5
BRANCH   3  22
ATOM     22  C   UNL     1       1.686   0.006   6.030  0.00  0.00    +0.108 C 
BRANCH  22  23
ATOM     23  C   UNL     1       1.229   0.786   7.265  0.00  0.00    +0.052 C 
BRANCH  23  24
ATOM     24  C   UNL     1       2.053   0.368   8.456  0.00  0.00    -0.040 C 
ATOM     25  C   UNL     1       3.161   0.979   8.932  0.00  0.00    +0.002 A 
ATOM     26  C   UNL     1       3.905   2.168   8.502  0.00  0.00    +0.055 A 
ATOM     27  C   UNL     1       5.007   2.550   9.191  0.00  0.00    +0.121 A 
ATOM     28  C   UNL     1       5.472   1.845  10.315  0.00  0.00    +0.047 A 
ATOM     29  C   UNL     1       4.856   0.740  10.786  0.00  0.00    +0.029 A 
ATOM     30  C   UNL     1       3.652   0.237  10.117  0.00  0.00    +0.043 A 
ATOM     31  N   UNL     1       2.878  -0.791  10.362  0.00  0.00    -0.380 N 
ATOM     32  C   UNL     1       1.802  -0.815   9.364  0.00  0.00    +0.144 C 
ATOM     33  H   UNL     1       2.994  -1.427  11.085  0.00  0.00    +0.160 HD
BRANCH  27  34
ATOM     34  O   UNL     1       5.687   3.654   8.781  0.00  0.00    -0.495 OA
ATOM     35  C   UNL     1       6.843   4.021   9.536  0.00  0.00    +0.277 C 
ENDBRANCH  27  34
ENDBRANCH  23  24
ENDBRANCH  22  23
ENDBRANCH   3  22
TORSDOF 8
