REMARK  Name = ZINC51036221
REMARK  5 active torsions:
REMARK  status: ('A' for Active; 'I' for Inactive)
REMARK    1  A    between atoms: C_5  and  C_7
REMARK    2  A    between atoms: C_7  and  C_9
REMARK    3  A    between atoms: C_7  and  S_11
REMARK    4  A    between atoms: C_9  and  N_10
REMARK    5  A    between atoms: S_11  and  C_12
REMARK                            x       y       z     vdW  Elec       q    Type
REMARK                         _______ _______ _______ _____ _____    ______ ____
ROOT
ATOM      1  C   UNL     1       1.262  -2.164  -0.018  0.00  0.00    +0.066 C 
ENDROOT
BRANCH   1   6
ATOM      2  C   UNL     1      -0.173   1.302  -0.448  0.00  0.00    +0.000 A 
ATOM      3  C   UNL     1       0.974   2.073  -0.483  0.00  0.00    +0.001 A 
ATOM      4  C   UNL     1       2.214   1.474  -0.367  0.00  0.00    +0.015 A 
ATOM      5  C   UNL     1       2.308   0.102  -0.216  0.00  0.00    +0.022 A 
ATOM      6  C   UNL     1       1.160  -0.670  -0.181  0.00  0.00    -0.022 A 
ATOM      7  C   UNL     1      -0.080  -0.069  -0.297  0.00  0.00    +0.006 A 
ATOM      8 BR   UNL     1       4.004  -0.719  -0.059  0.00  0.00    -0.050 Br
ENDBRANCH   1   6
BRANCH   1   9
ATOM      9  C   UNL     1       1.480  -2.813  -1.386  0.00  0.00    -0.067 C 
BRANCH   9  10
ATOM     10  N   UNL     1       1.709  -4.254  -1.213  0.00  0.00    +0.379 N 
ATOM     11  H   UNL     1       0.875  -4.686  -0.845  0.00  0.00    -0.090 HD
ATOM     12  H   UNL     1       1.936  -4.668  -2.105  0.00  0.00    -0.090 HD
ATOM     13  H   UNL     1       2.474  -4.399  -0.571  0.00  0.00    -0.090 HD
ENDBRANCH   9  10
ENDBRANCH   1   9
BRANCH   1  14
ATOM     14  S   UNL     1      -0.273  -2.798   0.714  0.00  0.00    -0.098 S 
BRANCH  14  15
ATOM     15  C   UNL     1      -0.259  -2.155   2.355  0.00  0.00    +0.126 A 
ATOM     16  C   UNL     1      -1.351  -2.346   3.205  0.00  0.00    +0.117 A 
ATOM     17  C   UNL     1      -1.293  -1.815   4.504  0.00  0.00    +0.182 A 
ATOM     18  N   UNL     1      -2.453  -2.133   5.108  0.00  0.00    -0.216 NA
ATOM     19  H   UNL     1      -2.921  -3.435   2.324  0.00  0.00    +0.167 HD
ATOM     20  C   UNL     1      -3.207  -2.810   4.287  0.00  0.00    +0.199 A 
ATOM     21  N   UNL     1      -2.576  -2.969   3.101  0.00  0.00    -0.341 N 
ATOM     22  N   UNL     1      -0.195  -1.148   4.875  0.00  0.00    -0.214 NA
ATOM     23  C   UNL     1       0.809  -0.994   4.040  0.00  0.00    +0.224 A 
ATOM     24  N   UNL     1       0.794  -1.482   2.814  0.00  0.00    -0.227 NA
ENDBRANCH  14  15
ENDBRANCH   1  14
TORSDOF 5
