REMARK  Name = ZINC16137816
REMARK  5 active torsions:
REMARK  status: ('A' for Active; 'I' for Inactive)
REMARK    1  A    between atoms: C_4  and  N_7
REMARK    2  A    between atoms: N_10  and  C_11
REMARK    3  A    between atoms: N_10  and  C_14
REMARK    4  A    between atoms: C_11  and  C_12
REMARK    5  A    between atoms: C_14  and  C_15
REMARK                            x       y       z     vdW  Elec       q    Type
REMARK                         _______ _______ _______ _____ _____    ______ ____
ROOT
ATOM      1  N   UNL     1      -1.156  -0.694   0.009  0.00  0.00    -0.296 N 
ATOM      2  C   UNL     1       0.002  -0.004   0.002  0.00  0.00    +0.304 C 
ATOM      3  O   UNL     1       1.063  -0.598  -0.011  0.00  0.00    -0.253 OA
ATOM      4  N   UNL     1      -0.016   1.344   0.009  0.00  0.00    -0.259 N 
ATOM      5  H   UNL     1      -2.002  -0.220   0.020  0.00  0.00    +0.151 HD
ENDROOT
BRANCH   1   9
ATOM      6  C   UNL     1      -2.291  -4.720  -0.829  0.00  0.00    +0.000 C 
ATOM      7  C   UNL     1      -2.410  -4.220   0.612  0.00  0.00    +0.002 C 
ATOM      8  C   UNL     1      -2.430  -2.690   0.621  0.00  0.00    +0.022 C 
ATOM      9  C   UNL     1      -1.136  -2.159   0.001  0.00  0.00    +0.074 C 
ATOM     10  C   UNL     1      -1.017  -2.659  -1.440  0.00  0.00    +0.022 C 
ATOM     11  C   UNL     1      -0.996  -4.189  -1.448  0.00  0.00    +0.002 C 
ENDBRANCH   1   9
BRANCH   4  12
ATOM     12  C   UNL     1       1.242   2.093   0.001  0.00  0.00    +0.229 C 
BRANCH  12  13
ATOM     13  C   UNL     1       1.651   2.352  -1.389  0.00  0.00    +0.082 C 
ATOM     14  N   UNL     1       1.966   2.551  -2.462  0.00  0.00    -0.195 NA
ENDBRANCH  12  13
ENDBRANCH   4  12
BRANCH   4  15
ATOM     15  C   UNL     1      -1.295   2.059   0.019  0.00  0.00    +0.229 C 
BRANCH  15  16
ATOM     16  C   UNL     1      -1.716   2.291   1.411  0.00  0.00    +0.082 C 
ATOM     17  N   UNL     1      -2.042   2.470   2.484  0.00  0.00    -0.195 NA
ENDBRANCH  15  16
ENDBRANCH   4  15
TORSDOF 5
