REMARK  Name = ZINC16207062
REMARK  5 active torsions:
REMARK  status: ('A' for Active; 'I' for Inactive)
REMARK    1  A    between atoms: C_3  and  N_22
REMARK    2  A    between atoms: C_5  and  O_7
REMARK    3  A    between atoms: O_7  and  C_8
REMARK    4  A    between atoms: C_8  and  C_9
REMARK    5  A    between atoms: C_9  and  C_11
REMARK                            x       y       z     vdW  Elec       q    Type
REMARK                         _______ _______ _______ _____ _____    ______ ____
ROOT
ATOM      1  C   UNL     1       0.192  -4.198  -0.025  0.00  0.00    +0.200 C 
ATOM      2  O   UNL     1       1.320  -4.644  -0.039  0.00  0.00    -0.288 OA
ENDROOT
BRANCH   1   3
ATOM      3  C   UNL     1      -0.958  -5.111  -0.019  0.00  0.00    +0.023 A 
ATOM      4  C   UNL     1      -2.261  -4.598  -0.009  0.00  0.00    +0.015 A 
ATOM      5  C   UNL     1      -3.340  -5.454  -0.003  0.00  0.00    +0.048 A 
ATOM      6  C   UNL     1      -3.140  -6.827  -0.008  0.00  0.00    +0.142 A 
ATOM      7  C   UNL     1      -1.842  -7.347  -0.019  0.00  0.00    +0.076 A 
ATOM      8  C   UNL     1      -0.755  -6.497  -0.029  0.00  0.00    +0.038 A 
ATOM      9  N   UNL     1      -1.662  -8.738  -0.023  0.00  0.00    -0.280 N 
ATOM     10  C   UNL     1      -2.709  -9.532  -0.334  0.00  0.00    +0.255 C 
ATOM     11  O   UNL     1      -2.585 -10.739  -0.316  0.00  0.00    -0.272 OA
ATOM     12  C   UNL     1      -4.033  -8.913  -0.704  0.00  0.00    +0.325 C 
ATOM     13  O   UNL     1      -4.198  -7.678  -0.004  0.00  0.00    -0.481 OA
ATOM     14  H   UNL     1      -0.798  -9.123   0.194  0.00  0.00    +0.155 HD
ENDBRANCH   1   3
BRANCH   1  15
ATOM     15  C   UNL     1      -0.028  -2.708  -0.014  0.00  0.00    +0.308 C 
BRANCH  15  16
ATOM     16  O   UNL     1       1.235  -2.039  -0.022  0.00  0.00    -0.484 OA
BRANCH  16  21
ATOM     17  C   UNL     1      -0.017   1.377   0.010  0.00  0.00    +0.006 A 
ATOM     18  C   UNL     1       1.171   2.086   0.002  0.00  0.00    +0.033 A 
ATOM     19  C   UNL     1       2.379   1.415  -0.013  0.00  0.00    +0.130 A 
ATOM     20  C   UNL     1       2.403   0.033  -0.021  0.00  0.00    +0.078 A 
ATOM     21  C   UNL     1       1.214  -0.680  -0.014  0.00  0.00    +0.123 A 
ATOM     22  C   UNL     1       0.002  -0.004   0.002  0.00  0.00    +0.046 A 
BRANCH  19  23
ATOM     23  N   UNL     1       3.648   2.176  -0.021  0.00  0.00    +0.057 N 
ATOM     24  O   UNL     1       3.628   3.385  -0.014  0.00  0.00    -0.126 OA
ATOM     25  O   UNL     1       4.705   1.590  -0.034  0.00  0.00    -0.126 OA
ENDBRANCH  19  23
ENDBRANCH  16  21
ENDBRANCH  15  16
ENDBRANCH   1  15
TORSDOF 5
