REMARK  Name = ZINC11979047
REMARK  8 active torsions:
REMARK  status: ('A' for Active; 'I' for Inactive)
REMARK    1  A    between atoms: C_1  and  N_50
REMARK    2  A    between atoms: C_2  and  C_3
REMARK    3  A    between atoms: C_2  and  N_50
REMARK    4  A    between atoms: C_11  and  N_13
REMARK    5  A    between atoms: N_13  and  C_14
REMARK    6  A    between atoms: C_14  and  C_15
REMARK    7  A    between atoms: C_20  and  N_50
REMARK    8  A    between atoms: C_27  and  O_29
REMARK                            x       y       z     vdW  Elec       q    Type
REMARK                         _______ _______ _______ _____ _____    ______ ____
ROOT
ATOM      1  C   UNL     1       0.320   5.390  -2.873  0.00  0.00    +0.115 A 
ATOM      2  N   UNL     1       1.366   5.676  -3.612  0.00  0.00    -0.234 NA
ATOM      3  C   UNL     1       1.213   6.047  -4.892  0.00  0.00    +0.076 A 
ATOM      4  C   UNL     1       2.307   6.356  -5.711  0.00  0.00    +0.028 A 
ATOM      5  C   UNL     1       2.095   6.732  -7.004  0.00  0.00    +0.002 A 
ATOM      6  C   UNL     1       0.807   6.815  -7.525  0.00  0.00    +0.001 A 
ATOM      7  C   UNL     1      -0.280   6.521  -6.755  0.00  0.00    +0.013 A 
ATOM      8  C   UNL     1      -0.097   6.132  -5.424  0.00  0.00    +0.040 A 
ATOM      9  C   UNL     1      -1.185   5.815  -4.575  0.00  0.00    +0.130 A 
ATOM     10  N   UNL     1      -0.922   5.455  -3.326  0.00  0.00    -0.219 NA
ENDROOT
BRANCH   9  11
ATOM     11  N   UNL     1      -2.483   5.880  -5.034  0.00  0.00    -0.324 N 
ATOM     12  H   UNL     1      -2.661   6.144  -5.950  0.00  0.00    +0.148 HD
BRANCH  11  13
ATOM     13  C   UNL     1      -3.595   5.548  -4.139  0.00  0.00    +0.145 C 
BRANCH  13  14
ATOM     14  C   UNL     1      -4.898   5.697  -4.880  0.00  0.00    +0.007 A 
ATOM     15  C   UNL     1      -5.577   4.776  -5.606  0.00  0.00    +0.013 A 
ATOM     16  C   UNL     1      -6.770   5.139  -6.202  0.00  0.00    +0.008 A 
ATOM     17  C   UNL     1      -7.221   6.408  -6.052  0.00  0.00    +0.045 A 
ATOM     18  S   UNL     1      -5.946   7.134  -5.035  0.00  0.00    -0.100 S 
ENDBRANCH  13  14
ENDBRANCH  11  13
ENDBRANCH   9  11
BRANCH   1  19
ATOM     19  C   UNL     1       0.543   4.974  -1.442  0.00  0.00    -0.001 C 
BRANCH  19  21
ATOM     20  C   UNL     1      -0.562   2.841  -1.742  0.00  0.00    -0.095 C 
ATOM     21  N   UNL     1       0.710   3.506  -1.393  0.00  0.00    +0.387 N 
ATOM     22  H   UNL     1       1.429   3.230  -2.071  0.00  0.00    -0.081 HD
BRANCH  21  23
ATOM     23  C   UNL     1       1.142   3.092  -0.041  0.00  0.00    -0.017 C 
ATOM     24  C   UNL     1       2.533   3.718   0.265  0.00  0.00    +0.153 C 
ATOM     25  S   UNL     1       3.116   2.602   1.610  0.00  0.00    -0.030 S 
ATOM     26  O   UNL     1       2.747   3.159   2.865  0.00  0.00    -0.174 OA
ATOM     27  O   UNL     1       4.473   2.258   1.369  0.00  0.00    -0.174 OA
ATOM     28  C   UNL     1       2.058   1.137   1.271  0.00  0.00    +0.195 C 
ATOM     29  C   UNL     1       1.286   1.562  -0.002  0.00  0.00    +0.123 C 
BRANCH  29  30
ATOM     30  O   UNL     1      -0.011   0.963   0.007  0.00  0.00    -0.392 OA
ATOM     31  H   UNL     1       0.002  -0.004   0.002  0.00  0.00    +0.210 HD
ENDBRANCH  29  30
ENDBRANCH  21  23
ENDBRANCH  19  21
ENDBRANCH   1  19
TORSDOF 7
