REMARK  Name = ZINC41514342
REMARK  5 active torsions:
REMARK  status: ('A' for Active; 'I' for Inactive)
REMARK    1  A    between atoms: C_1  and  C_2
REMARK    2  A    between atoms: C_4  and  O_32
REMARK    3  A    between atoms: C_5  and  C_24
REMARK    4  A    between atoms: C_11  and  C_12
REMARK    5  A    between atoms: C_24  and  N_25
REMARK                            x       y       z     vdW  Elec       q    Type
REMARK                         _______ _______ _______ _____ _____    ______ ____
ROOT
ATOM      1  C   UNL     1       0.887   1.602  -0.559  0.00  0.00    +0.045 C 
ATOM      2  C   UNL     1       0.948   0.101  -0.438  0.00  0.00    -0.033 A 
ATOM      3  C   UNL     1       1.186  -0.666  -1.544  0.00  0.00    +0.050 A 
ATOM      4  C   UNL     1       1.242  -2.052  -1.434  0.00  0.00    +0.122 A 
ATOM      5  C   UNL     1       1.058  -2.670  -0.207  0.00  0.00    +0.020 A 
ATOM      6  C   UNL     1       0.814  -1.905   0.926  0.00  0.00    +0.145 A 
ATOM      7  C   UNL     1       0.766  -0.507   0.804  0.00  0.00    +0.071 A 
ATOM      8  C   UNL     1       0.503   0.019   2.156  0.00  0.00    +0.232 C 
ATOM      9  O   UNL     1       0.381   1.185   2.492  0.00  0.00    -0.283 OA
ATOM     10  C   UNL     1       0.420  -1.176   3.007  0.00  0.00    +0.176 C 
ATOM     11  C   UNL     1       0.189  -1.194   4.345  0.00  0.00    +0.061 C 
ATOM     12  O   UNL     1       0.604  -2.257   2.213  0.00  0.00    -0.451 OA
ENDROOT
BRANCH  11  13
ATOM     13  C   UNL     1       0.275  -2.456   5.088  0.00  0.00    +0.022 A 
ATOM     14  C   UNL     1       0.236  -3.678   4.407  0.00  0.00    +0.031 A 
ATOM     15  C   UNL     1       0.316  -4.859   5.113  0.00  0.00    +0.042 A 
ATOM     16  C   UNL     1       0.433  -4.841   6.495  0.00  0.00    +0.029 A 
ATOM     17  C   UNL     1       0.472  -3.642   7.181  0.00  0.00    +0.022 A 
ATOM     18  C   UNL     1       0.403  -2.445   6.488  0.00  0.00    +0.136 A 
ATOM     19  O   UNL     1       0.456  -1.260   7.148  0.00  0.00    -0.465 OA
ATOM     20  C   UNL     1       0.223  -1.293   8.559  0.00  0.00    +0.395 C 
ATOM     21  O   UNL     1       1.009  -2.347   9.127  0.00  0.00    -0.339 OA
ATOM     22  C   UNL     1       0.595  -3.647   8.684  0.00  0.00    +0.202 C 
ATOM     23 CL   UNL     1       0.271  -6.375   4.269  0.00  0.00    -0.084 Cl
ENDBRANCH  11  13
BRANCH   4  24
ATOM     24  O   UNL     1       1.479  -2.805  -2.538  0.00  0.00    -0.506 OA
ATOM     25  H   UNL     1       2.417  -2.912  -2.747  0.00  0.00    +0.292 HD
ENDBRANCH   4  24
BRANCH   5  26
ATOM     26  C   UNL     1       1.121  -4.173  -0.104  0.00  0.00    -0.036 C 
BRANCH  26  27
ATOM     27  N   UNL     1      -0.173  -4.745  -0.501  0.00  0.00    +0.383 N 
ATOM     28  C   UNL     1      -1.207  -4.279   0.444  0.00  0.00    -0.078 C 
ATOM     29  C   UNL     1      -2.543  -4.333  -0.253  0.00  0.00    -0.019 C 
ATOM     30  C   UNL     1      -3.293  -5.640   0.068  0.00  0.00    -0.002 C 
ATOM     31  C   UNL     1      -2.345  -6.856   0.077  0.00  0.00    -0.002 C 
ATOM     32  C   UNL     1      -1.344  -6.812  -1.049  0.00  0.00    -0.019 C 
ATOM     33  C   UNL     1      -0.051  -6.135  -0.546  0.00  0.00    -0.078 C 
ATOM     34  H   UNL     1      -0.405  -4.410  -1.423  0.00  0.00    -0.081 HD
ENDBRANCH  26  27
ENDBRANCH   5  26
TORSDOF 4
