REMARK  Name = ZINC31808045
REMARK  4 active torsions:
REMARK  status: ('A' for Active; 'I' for Inactive)
REMARK    1  A    between atoms: C_1  and  C_2
REMARK    2  A    between atoms: C_22  and  C_24
REMARK    3  A    between atoms: C_27  and  S_30
REMARK    4  A    between atoms: S_30  and  C_31
REMARK                            x       y       z     vdW  Elec       q    Type
REMARK                         _______ _______ _______ _____ _____    ______ ____
ROOT
ATOM      1  C   UNL     1       0.183   1.498  -0.001  0.00  0.00    +0.068 C 
ATOM      2  C   UNL     1       0.092  -0.006  -0.003  0.00  0.00    +0.067 A 
ATOM      3  C   UNL     1      -0.076  -0.817  -1.147  0.00  0.00    +0.033 A 
ATOM      4  C   UNL     1      -0.111  -2.104  -0.738  0.00  0.00    +0.135 A 
ATOM      5  N   UNL     1       0.035  -2.096   0.633  0.00  0.00    -0.197 N 
ATOM      6  N   UNL     1       0.162  -0.770   1.049  0.00  0.00    -0.168 NA
ATOM      7  C   UNL     1       0.056  -3.217   1.460  0.00  0.00    +0.187 A 
ATOM      8  C   UNL     1      -0.716  -3.260   2.631  0.00  0.00    +0.152 A 
ATOM      9  C   UNL     1      -0.653  -4.420   3.425  0.00  0.00    +0.163 A 
ATOM     10  N   UNL     1      -1.491  -4.195   4.488  0.00  0.00    -0.329 N 
ATOM     11  H   UNL     1      -1.668  -4.808   5.219  0.00  0.00    +0.168 HD
ATOM     12  C   UNL     1      -2.028  -2.952   4.330  0.00  0.00    +0.198 A 
ATOM     13  N   UNL     1      -1.572  -2.406   3.240  0.00  0.00    -0.231 NA
ATOM     14  N   UNL     1       0.127  -5.423   3.041  0.00  0.00    -0.216 NA
ATOM     15  C   UNL     1       0.834  -5.337   1.934  0.00  0.00    +0.226 A 
ATOM     16  N   UNL     1       0.803  -4.271   1.154  0.00  0.00    -0.214 NA
ATOM     17  N   UNL     1      -0.260  -3.281  -1.429  0.00  0.00    -0.269 N 
ATOM     18  C   UNL     1      -0.367  -3.603  -2.684  0.00  0.00    +0.228 C 
ATOM     19  O   UNL     1      -0.381  -4.795  -2.906  0.00  0.00    -0.275 OA
ATOM     20  C   UNL     1      -0.476  -2.745  -3.883  0.00  0.00    +0.166 C 
ATOM     21  S   UNL     1       0.552  -1.273  -3.789  0.00  0.00    -0.138 S 
ATOM     22  C   UNL     1      -0.182  -0.236  -2.522  0.00  0.00    +0.112 C 
ATOM     23  H   UNL     1      -0.293  -4.054  -0.844  0.00  0.00    +0.156 HD
ENDROOT
BRANCH  22  24
ATOM     24  C   UNL     1       0.506   1.104  -2.535  0.00  0.00    -0.030 A 
ATOM     25  C   UNL     1       1.852   1.192  -2.231  0.00  0.00    +0.006 A 
ATOM     26  C   UNL     1       2.486   2.418  -2.242  0.00  0.00    +0.015 A 
ATOM     27  C   UNL     1       1.769   3.566  -2.559  0.00  0.00    +0.008 A 
ATOM     28  C   UNL     1       0.417   3.474  -2.865  0.00  0.00    +0.015 A 
ATOM     29  C   UNL     1      -0.209   2.244  -2.857  0.00  0.00    +0.006 A 
BRANCH  27  30
ATOM     30  S   UNL     1       2.574   5.134  -2.574  0.00  0.00    -0.129 S 
ATOM     31  C   UNL     1       1.260   6.297  -3.034  0.00  0.00    +0.090 C 
ENDBRANCH  27  30
ENDBRANCH  22  24
TORSDOF 2
