REMARK  Name = ZINC13728748
REMARK  5 active torsions:
REMARK  status: ('A' for Active; 'I' for Inactive)
REMARK    1  A    between atoms: C_1  and  C_2
REMARK    2  A    between atoms: C_2  and  C_34
REMARK    3  A    between atoms: C_8  and  O_19
REMARK    4  A    between atoms: O_19  and  C_20
REMARK    5  A    between atoms: C_20  and  C_21
REMARK                            x       y       z     vdW  Elec       q    Type
REMARK                         _______ _______ _______ _____ _____    ______ ____
ROOT
ATOM      1  C   UNL     1      -0.019   1.526   0.010  0.00  0.00    +0.055 C 
ATOM      2  C   UNL     1       0.002  -0.004   0.002  0.00  0.00    +0.105 C 
ATOM      3  C   UNL     1      -1.435  -0.541   0.041  0.00  0.00    +0.052 C 
ATOM      4  C   UNL     1      -1.380  -2.066  -0.081  0.00  0.00    +0.046 C 
ATOM      5  C   UNL     1      -0.360  -2.616   0.884  0.00  0.00    +0.038 A 
ATOM      6  C   UNL     1       0.616  -1.808   1.441  0.00  0.00    +0.131 A 
ATOM      7  C   UNL     1       1.552  -2.345   2.326  0.00  0.00    +0.092 A 
ATOM      8  C   UNL     1       1.516  -3.682   2.661  0.00  0.00    +0.136 A 
ATOM      9  C   UNL     1       0.524  -4.509   2.104  0.00  0.00    +0.063 A 
ATOM     10  C   UNL     1      -0.413  -3.965   1.209  0.00  0.00    +0.149 A 
ATOM     11  O   UNL     1      -1.364  -4.758   0.668  0.00  0.00    -0.421 OA
ATOM     12  C   UNL     1      -1.429  -6.064   0.976  0.00  0.00    +0.341 A 
ATOM     13  O   UNL     1      -2.296  -6.755   0.471  0.00  0.00    -0.245 OA
ATOM     14  C   UNL     1      -0.511  -6.652   1.873  0.00  0.00    +0.041 A 
ATOM     15  C   UNL     1       0.459  -5.887   2.436  0.00  0.00    -0.023 A 
ATOM     16  C   UNL     1       1.318  -6.724   3.358  0.00  0.00    +0.037 C 
ATOM     17  C   UNL     1       0.492  -8.002   3.624  0.00  0.00    +0.010 C 
ATOM     18  C   UNL     1      -0.396  -8.079   2.363  0.00  0.00    +0.043 C 
ATOM     19  O   UNL     1       0.692  -0.482   1.157  0.00  0.00    -0.486 OA
ATOM     20  C   UNL     1       0.706  -0.503  -1.262  0.00  0.00    +0.055 C 
ENDROOT
BRANCH   8  21
ATOM     21  O   UNL     1       2.431  -4.197   3.521  0.00  0.00    -0.482 OA
BRANCH  21  22
ATOM     22  C   UNL     1       3.408  -3.295   4.045  0.00  0.00    +0.325 C 
BRANCH  22  23
ATOM     23  C   UNL     1       4.332  -4.040   4.974  0.00  0.00    +0.256 C 
ATOM     24  O   UNL     1       4.169  -5.226   5.169  0.00  0.00    -0.272 OA
ATOM     25  N   UNL     1       5.338  -3.387   5.590  0.00  0.00    -0.262 N 
ATOM     26  C   UNL     1       6.187  -4.072   6.444  0.00  0.00    +0.166 A 
ATOM     27  N   UNL     1       6.175  -5.342   6.773  0.00  0.00    -0.225 NA
ATOM     28  C   UNL     1       7.074  -5.880   7.626  0.00  0.00    +0.080 A 
ATOM     29  C   UNL     1       7.171  -7.222   8.060  0.00  0.00    +0.029 A 
ATOM     30  C   UNL     1       8.150  -7.605   8.939  0.00  0.00    +0.002 A 
ATOM     31  C   UNL     1       9.077  -6.697   9.431  0.00  0.00    +0.001 A 
ATOM     32  C   UNL     1       9.012  -5.376   9.028  0.00  0.00    +0.017 A 
ATOM     33  C   UNL     1       8.034  -4.984   8.148  0.00  0.00    +0.041 A 
ATOM     34  S   UNL     1       7.582  -3.450   7.373  0.00  0.00    -0.052 S 
ATOM     35  H   UNL     1       5.468  -2.439   5.434  0.00  0.00    +0.157 HD
ENDBRANCH  22  23
ENDBRANCH  21  22
ENDBRANCH   8  21
TORSDOF 3
