REMARK  Name = ZINC02977731
REMARK  6 active torsions:
REMARK  status: ('A' for Active; 'I' for Inactive)
REMARK    1  A    between atoms: C_1  and  O_2
REMARK    2  A    between atoms: O_2  and  C_3
REMARK    3  A    between atoms: C_5  and  C_11
REMARK    4  A    between atoms: C_8  and  O_9
REMARK    5  A    between atoms: C_23  and  S_26
REMARK    6  A    between atoms: S_26  and  C_27
REMARK                            x       y       z     vdW  Elec       q    Type
REMARK                         _______ _______ _______ _____ _____    ______ ____
ROOT
ATOM      1  C   UNL     1      -1.294  -0.773   0.010  0.00  0.00    +0.294 C 
ATOM      2  N   UNL     1      -2.264  -0.062   0.836  0.00  0.00    -0.305 N 
ATOM      3  C   UNL     1      -2.886   1.077   0.315  0.00  0.00    +0.040 A 
ATOM      4  C   UNL     1      -2.620   2.337   0.818  0.00  0.00    +0.025 A 
ATOM      5  C   UNL     1      -3.241   3.444   0.268  0.00  0.00    +0.017 A 
ATOM      6  C   UNL     1      -4.128   3.298  -0.786  0.00  0.00    +0.019 A 
ATOM      7  C   UNL     1      -4.408   2.045  -1.296  0.00  0.00    +0.027 A 
ATOM      8  C   UNL     1      -3.797   0.924  -0.748  0.00  0.00    +0.029 A 
ATOM      9  C   UNL     1      -4.093  -0.437  -1.240  0.00  0.00    +0.156 A 
ATOM     10  C   UNL     1      -3.030  -1.329  -1.509  0.00  0.00    +0.248 A 
ATOM     11  N   UNL     1      -3.316  -2.546  -1.940  0.00  0.00    -0.184 NA
ATOM     12  C   UNL     1      -4.588  -2.893  -2.112  0.00  0.00    +0.212 A 
ATOM     13  N   UNL     1      -5.572  -2.039  -1.858  0.00  0.00    -0.122 NA
ATOM     14  N   UNL     1      -5.338  -0.845  -1.434  0.00  0.00    -0.141 NA
ATOM     15  O   UNL     1      -1.751  -0.925  -1.329  0.00  0.00    -0.449 OA
ATOM     16 BR   UNL     1      -4.960   4.824  -1.531  0.00  0.00    -0.050 Br
ATOM     17  H   UNL     1      -2.474  -0.374   1.730  0.00  0.00    +0.150 HD
ENDROOT
BRANCH   1  20
ATOM     18  C   UNL     1       1.934   0.796  -1.171  0.00  0.00    +0.163 A 
ATOM     19  C   UNL     1       0.742   0.088  -1.162  0.00  0.00    +0.058 A 
ATOM     20  C   UNL     1       0.002  -0.004   0.002  0.00  0.00    +0.016 A 
ATOM     21  C   UNL     1       0.448   0.608   1.159  0.00  0.00    +0.032 A 
ATOM     22  C   UNL     1       1.636   1.316   1.156  0.00  0.00    +0.086 A 
ATOM     23  C   UNL     1       2.383   1.413  -0.008  0.00  0.00    +0.177 A 
ATOM     24 CL   UNL     1       2.192   2.084   2.611  0.00  0.00    -0.080 Cl
BRANCH  18  26
ATOM     25  C   UNL     1       2.141   0.229  -3.472  0.00  0.00    +0.277 C 
ATOM     26  O   UNL     1       2.663   0.887  -2.316  0.00  0.00    -0.491 OA
ENDBRANCH  18  26
BRANCH  23  27
ATOM     27  O   UNL     1       3.552   2.108  -0.013  0.00  0.00    -0.502 OA
ATOM     28  H   UNL     1       3.452   3.044  -0.234  0.00  0.00    +0.292 HD
ENDBRANCH  23  27
ENDBRANCH   1  20
BRANCH  12  29
ATOM     29  S   UNL     1      -4.975  -4.514  -2.686  0.00  0.00    -0.088 S 
ATOM     30  C   UNL     1      -6.781  -4.411  -2.724  0.00  0.00    +0.093 C 
ENDBRANCH  12  29
TORSDOF 4
