REMARK  Name = ZINC39683659
REMARK  7 active torsions:
REMARK  status: ('A' for Active; 'I' for Inactive)
REMARK    1  A    between atoms: C_5  and  C_7
REMARK    2  A    between atoms: C_7  and  C_8
REMARK    3  A    between atoms: C_8  and  N_9
REMARK    4  A    between atoms: C_10  and  C_12
REMARK    5  A    between atoms: C_23  and  C_25
REMARK    6  A    between atoms: C_25  and  C_26
REMARK    7  A    between atoms: C_26  and  C_27
REMARK                            x       y       z     vdW  Elec       q    Type
REMARK                         _______ _______ _______ _____ _____    ______ ____
ROOT
ATOM      1  C   UNL     1       1.537  -6.353   2.551  0.00  0.00    +0.100 C 
ATOM      2  C   UNL     1       0.156  -6.907   2.137  0.00  0.00    +0.121 C 
ATOM      3  N   UNL     1      -0.031  -8.113   2.978  0.00  0.00    -0.300 N 
ATOM      4  C   UNL     1       0.516  -7.729   4.301  0.00  0.00    +0.115 C 
ATOM      5  C   UNL     1       1.770  -6.894   3.972  0.00  0.00    -0.004 C 
ATOM      6  C   UNL     1       3.015  -7.776   4.004  0.00  0.00    -0.010 C 
ATOM      7  C   UNL     1       3.257  -8.255   5.438  0.00  0.00    -0.082 C 
ATOM      8  N   UNL     1       3.432  -7.095   6.321  0.00  0.00    +0.379 N 
ATOM      9  C   UNL     1       2.197  -6.302   6.356  0.00  0.00    -0.082 C 
ATOM     10  C   UNL     1       1.909  -5.740   4.961  0.00  0.00    -0.010 C 
ATOM     11  C   UNL     1      -0.577  -9.293   2.621  0.00  0.00    +0.216 C 
ATOM     12  O   UNL     1      -0.661 -10.192   3.431  0.00  0.00    -0.276 OA
ATOM     13  H   UNL     1       3.652  -7.413   7.253  0.00  0.00    -0.086 HD
ATOM     14  H   UNL     1       4.188  -6.523   5.977  0.00  0.00    -0.086 HD
ENDROOT
BRANCH   1  16
ATOM     15  N   UNL     1       2.650  -4.156   2.321  0.00  0.00    -0.315 N 
ATOM     16  C   UNL     1       1.517  -4.846   2.560  0.00  0.00    +0.218 C 
ATOM     17  O   UNL     1       0.482  -4.255   2.782  0.00  0.00    -0.275 OA
ATOM     18  H   UNL     1       3.478  -4.629   2.143  0.00  0.00    +0.149 HD
BRANCH  15  19
ATOM     19  C   UNL     1       2.630  -2.691   2.329  0.00  0.00    +0.109 C 
BRANCH  19  20
ATOM     20  C   UNL     1       4.034  -2.160   2.032  0.00  0.00    +0.055 C 
BRANCH  20  25
ATOM     21  C   UNL     1       3.840   1.425   0.864  0.00  0.00    +0.000 A 
ATOM     22  C   UNL     1       3.977   2.112   2.056  0.00  0.00    +0.001 A 
ATOM     23  C   UNL     1       4.132   1.417   3.241  0.00  0.00    +0.015 A 
ATOM     24  C   UNL     1       4.151   0.033   3.233  0.00  0.00    +0.021 A 
ATOM     25  C   UNL     1       4.013  -0.653   2.041  0.00  0.00    -0.032 A 
ATOM     26  C   UNL     1       3.858   0.043   0.856  0.00  0.00    +0.005 A 
ATOM     27 BR   UNL     1       4.364  -0.918   4.853  0.00  0.00    -0.050 Br
ENDBRANCH  20  25
ENDBRANCH  19  20
ENDBRANCH  15  19
ENDBRANCH   1  16
BRANCH  11  28
ATOM     28  C   UNL     1      -1.081  -9.495   1.216  0.00  0.00    +0.096 C 
BRANCH  28  29
ATOM     29  C   UNL     1      -1.647 -10.910   1.075  0.00  0.00    +0.013 C 
BRANCH  29  30
ATOM     30  C   UNL     1      -2.160 -11.115  -0.352  0.00  0.00    -0.011 C 
ATOM     31  C   UNL     1      -3.397 -10.228  -0.601  0.00  0.00    +0.003 C 
ATOM     32  C   UNL     1      -4.317 -11.101  -1.491  0.00  0.00    +0.000 C 
ATOM     33  C   UNL     1      -4.116 -12.519  -0.902  0.00  0.00    +0.000 C 
ATOM     34  C   UNL     1      -2.617 -12.572  -0.543  0.00  0.00    +0.003 C 
ENDBRANCH  29  30
ENDBRANCH  28  29
ENDBRANCH  11  28
TORSDOF 7
