REMARK  Name = ZINC48526382
REMARK  5 active torsions:
REMARK  status: ('A' for Active; 'I' for Inactive)
REMARK    1  A    between atoms: C_1  and  C_2
REMARK    2  A    between atoms: C_2  and  C_20
REMARK    3  A    between atoms: C_8  and  O_11
REMARK    4  A    between atoms: O_11  and  C_12
REMARK    5  A    between atoms: C_12  and  C_14
REMARK                            x       y       z     vdW  Elec       q    Type
REMARK                         _______ _______ _______ _____ _____    ______ ____
ROOT
ATOM      1  C   UNL     1       0.041   1.502  -0.058  0.00  0.00    +0.056 C 
ATOM      2  C   UNL     1       0.044  -0.028  -0.044  0.00  0.00    +0.109 C 
ATOM      3  C   UNL     1      -1.395  -0.578   0.100  0.00  0.00    +0.086 C 
ATOM      4  C   UNL     1      -1.178  -1.797   0.975  0.00  0.00    +0.002 A 
ATOM      5  C   UNL     1      -1.976  -2.884   1.260  0.00  0.00    +0.007 A 
ATOM      6  C   UNL     1      -1.518  -3.879   2.105  0.00  0.00    +0.004 A 
ATOM      7  C   UNL     1      -0.256  -3.780   2.663  0.00  0.00    +0.050 A 
ATOM      8  C   UNL     1       0.547  -2.688   2.382  0.00  0.00    +0.174 A 
ATOM      9  C   UNL     1       0.087  -1.679   1.532  0.00  0.00    +0.167 A 
ATOM     10  O   UNL     1       0.694  -0.525   1.139  0.00  0.00    -0.482 OA
ATOM     11  C   UNL     1       0.716  -0.578  -1.303  0.00  0.00    +0.056 C 
ENDROOT
BRANCH   8  12
ATOM     12  O   UNL     1       1.786  -2.597   2.935  0.00  0.00    -0.418 OA
BRANCH  12  13
ATOM     13  C   UNL     1       1.936  -1.820   4.026  0.00  0.00    +0.362 C 
ATOM     14  O   UNL     1       0.965  -1.304   4.544  0.00  0.00    -0.243 OA
BRANCH  13  15
ATOM     15  C   UNL     1       3.275  -1.596   4.590  0.00  0.00    +0.143 A 
ATOM     16  C   UNL     1       3.593  -0.834   5.702  0.00  0.00    +0.056 A 
ATOM     17  C   UNL     1       4.980  -0.930   5.833  0.00  0.00    +0.135 A 
ATOM     18  N   UNL     1       5.423  -1.692   4.865  0.00  0.00    -0.182 NA
ATOM     19  N   UNL     1       4.456  -2.103   4.125  0.00  0.00    -0.271 N 
ATOM     20  H   UNL     1       4.551  -2.683   3.353  0.00  0.00    +0.189 HD
ENDBRANCH  13  15
ENDBRANCH  12  13
ENDBRANCH   8  12
TORSDOF 3
