REMARK  Name = ZINC63514849
REMARK  10 active torsions:
REMARK  status: ('A' for Active; 'I' for Inactive)
REMARK    1  A    between atoms: C_1  and  C_2
REMARK    2  A    between atoms: C_7  and  C_31
REMARK    3  A    between atoms: C_9  and  C_12
REMARK    4  A    between atoms: C_12  and  C_13
REMARK    5  A    between atoms: C_13  and  N_14
REMARK    6  A    between atoms: C_15  and  C_17
REMARK    7  A    between atoms: C_19  and  S_25
REMARK    8  A    between atoms: S_25  and  N_28
REMARK    9  A    between atoms: N_28  and  C_29
REMARK   10  A    between atoms: N_28  and  C_30
REMARK                            x       y       z     vdW  Elec       q    Type
REMARK                         _______ _______ _______ _____ _____    ______ ____
ROOT
ATOM      1  N   UNL     1       0.011  -2.911   5.558  0.00  0.00    -0.311 N 
ATOM      2  C   UNL     1       0.044  -1.564   5.600  0.00  0.00    +0.246 C 
ATOM      3  O   UNL     1       0.041  -0.923   4.567  0.00  0.00    -0.270 OA
ATOM      4  H   UNL     1       0.014  -3.422   6.382  0.00  0.00    +0.149 HD
ENDROOT
BRANCH   2   5
ATOM      5  C   UNL     1       0.087  -0.867   6.902  0.00  0.00    +0.057 A 
ATOM      6  C   UNL     1       0.097  -1.601   8.090  0.00  0.00    +0.044 A 
ATOM      7  C   UNL     1       0.136  -0.945   9.302  0.00  0.00    +0.124 A 
ATOM      8  C   UNL     1       0.165   0.440   9.343  0.00  0.00    +0.069 A 
ATOM      9  C   UNL     1       0.154   1.174   8.169  0.00  0.00    +0.042 A 
ATOM     10  C   UNL     1       0.122   0.529   6.949  0.00  0.00    +0.055 A 
ATOM     11 CL   UNL     1       0.117   1.450   5.478  0.00  0.00    -0.083 Cl
ATOM     12 CL   UNL     1       0.214   1.258  10.873  0.00  0.00    -0.081 Cl
BRANCH   7  13
ATOM     13  S   UNL     1       0.149  -1.869  10.801  0.00  0.00    +0.062 S 
ATOM     14  O   UNL     1       0.138  -3.241  10.433  0.00  0.00    -0.153 OA
ATOM     15  O   UNL     1       1.170  -1.308  11.616  0.00  0.00    -0.153 OA
BRANCH  13  16
ATOM     16  N   UNL     1      -1.286  -1.573  11.572  0.00  0.00    -0.183 NA
ATOM     17  C   UNL     1      -2.485  -2.331  11.203  0.00  0.00    +0.131 C 
ATOM     18  C   UNL     1      -1.359  -0.554  12.621  0.00  0.00    +0.131 C 
ENDBRANCH  13  16
ENDBRANCH   7  13
ENDBRANCH   2   5
BRANCH   1  19
ATOM     19  C   UNL     1      -0.031  -3.602   4.267  0.00  0.00    +0.109 C 
BRANCH  19  20
ATOM     20  C   UNL     1      -0.064  -5.114   4.499  0.00  0.00    +0.052 C 
BRANCH  20  28
ATOM     21  C   UNL     1      -0.087  -2.162  -0.295  0.00  0.00    +0.044 C 
ATOM     22  C   UNL     1      -0.113  -3.595   0.169  0.00  0.00    -0.050 A 
ATOM     23  C   UNL     1      -0.157  -4.621  -0.786  0.00  0.00    +0.005 A 
ATOM     24  C   UNL     1      -0.181  -5.928  -0.451  0.00  0.00    +0.026 A 
ATOM     25  C   UNL     1      -0.164  -6.321   0.916  0.00  0.00    +0.043 A 
ATOM     26  N   UNL     1      -0.181  -7.502   1.485  0.00  0.00    -0.378 N 
ATOM     27  C   UNL     1      -0.148  -7.319   2.940  0.00  0.00    +0.103 C 
ATOM     28  C   UNL     1      -0.107  -5.825   3.171  0.00  0.00    -0.037 C 
ATOM     29  C   UNL     1      -0.117  -5.257   1.944  0.00  0.00    -0.001 A 
ATOM     30  C   UNL     1      -0.087  -3.859   1.495  0.00  0.00    +0.013 A 
ATOM     31  C   UNL     1      -1.405  -7.918   3.575  0.00  0.00    +0.035 C 
ATOM     32  H   UNL     1      -0.211  -8.353   1.022  0.00  0.00    +0.160 HD
ENDBRANCH  20  28
ENDBRANCH  19  20
ENDBRANCH   1  19
TORSDOF 6
