REMARK  Name = ZINC35081959
REMARK  5 active torsions:
REMARK  status: ('A' for Active; 'I' for Inactive)
REMARK    1  A    between atoms: C_1  and  C_2
REMARK    2  A    between atoms: C_5  and  N_9
REMARK    3  A    between atoms: C_6  and  O_8
REMARK    4  A    between atoms: N_9  and  S_10
REMARK    5  A    between atoms: S_10  and  C_13
REMARK                            x       y       z     vdW  Elec       q    Type
REMARK                         _______ _______ _______ _____ _____    ______ ____
ROOT
ATOM      1  N   UNL     1       0.057  -4.173  -0.030  0.00  0.00    -0.212 N 
ATOM      2  H   UNL     1      -0.472  -4.660   0.621  0.00  0.00    +0.174 HD
ENDROOT
BRANCH   1   7
ATOM      3  C   UNL     1       0.680   1.449   0.448  0.00  0.00    +0.044 C 
ATOM      4  C   UNL     1       0.515  -0.044   0.323  0.00  0.00    -0.047 A 
ATOM      5  C   UNL     1       0.424  -0.625  -0.928  0.00  0.00    +0.005 A 
ATOM      6  C   UNL     1       0.273  -1.994  -1.048  0.00  0.00    +0.028 A 
ATOM      7  C   UNL     1       0.211  -2.787   0.089  0.00  0.00    +0.089 A 
ATOM      8  C   UNL     1       0.303  -2.200   1.349  0.00  0.00    +0.139 A 
ATOM      9  C   UNL     1       0.461  -0.829   1.461  0.00  0.00    +0.050 A 
BRANCH   8  10
ATOM     10  O   UNL     1       0.243  -2.973   2.467  0.00  0.00    -0.505 OA
ATOM     11  H   UNL     1       1.104  -3.292   2.771  0.00  0.00    +0.292 HD
ENDBRANCH   8  10
ENDBRANCH   1   7
BRANCH   1  12
ATOM     12  S   UNL     1       0.778  -4.982  -1.282  0.00  0.00    +0.079 S 
ATOM     13  O   UNL     1       0.554  -6.367  -1.054  0.00  0.00    -0.149 OA
ATOM     14  O   UNL     1       0.368  -4.331  -2.477  0.00  0.00    -0.149 OA
BRANCH  12  15
ATOM     15  C   UNL     1       2.515  -4.723  -1.139  0.00  0.00    +0.147 A 
ATOM     16  C   UNL     1       3.436  -5.461  -0.472  0.00  0.00    +0.038 A 
ATOM     17  C   UNL     1       4.760  -5.064  -0.497  0.00  0.00    +0.025 A 
ATOM     18  C   UNL     1       5.098  -3.946  -1.188  0.00  0.00    +0.057 A 
ATOM     19  S   UNL     1       3.520  -3.424  -1.839  0.00  0.00    -0.061 S 
ATOM     20 BR   UNL     1       6.800  -3.152  -1.410  0.00  0.00    -0.043 Br
ENDBRANCH  12  15
ENDBRANCH   1  12
TORSDOF 4
