REMARK  Name = ZINC61411088
REMARK  4 active torsions:
REMARK  status: ('A' for Active; 'I' for Inactive)
REMARK    1  A    between atoms: C_1  and  C_2
REMARK    2  A    between atoms: C_2  and  N_3
REMARK    3  A    between atoms: N_3  and  C_4
REMARK    4  A    between atoms: C_10  and  C_12
REMARK                            x       y       z     vdW  Elec       q    Type
REMARK                         _______ _______ _______ _____ _____    ______ ____
ROOT
ATOM      1  N   UNL     1       0.701  -0.393  -1.241  0.00  0.00    -0.295 N 
ATOM      2  C   UNL     1      -0.025  -0.801  -2.300  0.00  0.00    +0.247 C 
ATOM      3  O   UNL     1       0.522  -1.353  -3.235  0.00  0.00    -0.270 OA
ENDROOT
BRANCH   2   4
ATOM      4  C   UNL     1      -1.486  -0.576  -2.327  0.00  0.00    +0.042 A 
ATOM      5  C   UNL     1      -2.294  -1.125  -1.331  0.00  0.00    +0.013 A 
ATOM      6  C   UNL     1      -3.657  -0.915  -1.356  0.00  0.00    +0.003 A 
ATOM      7  C   UNL     1      -4.224  -0.164  -2.367  0.00  0.00    +0.023 A 
ATOM      8  C   UNL     1      -3.426   0.388  -3.365  0.00  0.00    +0.031 A 
ATOM      9  C   UNL     1      -2.057   0.192  -3.346  0.00  0.00    -0.014 A 
ATOM     10  C   UNL     1      -1.160   0.787  -4.399  0.00  0.00    +0.039 C 
ATOM     11  C   UNL     1      -1.965   1.137  -5.651  0.00  0.00    +0.023 C 
ATOM     12  C   UNL     1      -3.179   1.979  -5.241  0.00  0.00    +0.102 C 
ATOM     13  N   UNL     1      -4.029   1.140  -4.380  0.00  0.00    -0.344 N 
ATOM     14  H   UNL     1      -4.991   1.118  -4.505  0.00  0.00    +0.146 HD
ENDBRANCH   2   4
BRANCH   1  15
ATOM     15  C   UNL     1       2.160  -0.523  -1.258  0.00  0.00    +0.076 C 
ATOM     16  C   UNL     1       2.730   0.282  -2.428  0.00  0.00    +0.022 C 
ATOM     17  C   UNL     1       4.254   0.145  -2.446  0.00  0.00    +0.002 C 
ATOM     18  C   UNL     1       4.633  -1.328  -2.609  0.00  0.00    +0.000 C 
ATOM     19  C   UNL     1       4.063  -2.133  -1.439  0.00  0.00    +0.002 C 
ATOM     20  C   UNL     1       2.539  -1.997  -1.421  0.00  0.00    +0.022 C 
ENDBRANCH   1  15
BRANCH   1  22
ATOM     21  C   UNL     1      -0.218   1.671  -0.305  0.00  0.00    +0.024 C 
ATOM     22  C   UNL     1       0.031   0.180  -0.071  0.00  0.00    +0.105 C 
ENDBRANCH   1  22
TORSDOF 3
