REMARK  Name = ZINC20721439
REMARK  4 active torsions:
REMARK  status: ('A' for Active; 'I' for Inactive)
REMARK    1  A    between atoms: C_3  and  C_8
REMARK    2  A    between atoms: C_8  and  O_9
REMARK    3  A    between atoms: O_9  and  C_10
REMARK    4  A    between atoms: C_14  and  C_16
REMARK                            x       y       z     vdW  Elec       q    Type
REMARK                         _______ _______ _______ _____ _____    ______ ____
ROOT
ATOM      1  C   UNL     1       5.252   3.110   1.494  0.00  0.00    +0.121 A 
ATOM      2  C   UNL     1       5.966   3.555   0.390  0.00  0.00    +0.045 A 
ATOM      3  C   UNL     1       7.143   4.256   0.566  0.00  0.00    +0.004 A 
ATOM      4  C   UNL     1       7.610   4.514   1.842  0.00  0.00    +0.005 A 
ATOM      5  C   UNL     1       6.902   4.072   2.943  0.00  0.00    -0.026 A 
ATOM      6  C   UNL     1       5.721   3.376   2.772  0.00  0.00    +0.050 A 
ENDROOT
BRANCH   5   7
ATOM      7  C   UNL     1       7.415   4.356   4.332  0.00  0.00    +0.112 C 
ATOM      8  C   UNL     1       7.465   5.838   4.532  0.00  0.00    +0.029 A 
ATOM      9  C   UNL     1       6.664   6.693   3.831  0.00  0.00    +0.111 A 
ATOM     10  N   UNL     1       6.941   7.947   4.228  0.00  0.00    -0.283 N 
ATOM     11  H   UNL     1       6.521   8.756   3.897  0.00  0.00    +0.188 HD
ATOM     12  N   UNL     1       7.938   7.877   5.201  0.00  0.00    -0.158 NA
ATOM     13  C   UNL     1       8.258   6.600   5.389  0.00  0.00    +0.151 A 
ATOM     14  N   UNL     1       9.225   6.235   6.307  0.00  0.00    -0.268 N 
ATOM     15  C   UNL     1       9.759   5.106   6.665  0.00  0.00    +0.228 C 
ATOM     16  O   UNL     1      10.673   5.207   7.456  0.00  0.00    -0.275 OA
ATOM     17  C   UNL     1       9.437   3.721   6.269  0.00  0.00    +0.166 C 
ATOM     18  S   UNL     1       9.012   3.563   4.529  0.00  0.00    -0.138 S 
ATOM     19  H   UNL     1       9.586   6.993   6.794  0.00  0.00    +0.156 HD
ENDBRANCH   5   7
BRANCH   1  20
ATOM     20  O   UNL     1       4.094   2.421   1.323  0.00  0.00    -0.487 OA
BRANCH  20  21
ATOM     21  C   UNL     1       3.672   2.184  -0.021  0.00  0.00    +0.264 C 
BRANCH  21  24
ATOM     22  C   UNL     1      -0.017   1.378   0.010  0.00  0.00    +0.002 A 
ATOM     23  C   UNL     1       1.171   2.086   0.002  0.00  0.00    +0.007 A 
ATOM     24  C   UNL     1       2.378   1.412  -0.013  0.00  0.00    -0.009 A 
ATOM     25  C   UNL     1       2.398   0.029  -0.021  0.00  0.00    +0.027 A 
ATOM     26  C   UNL     1       1.210  -0.679  -0.013  0.00  0.00    +0.041 A 
ATOM     27  C   UNL     1       0.002  -0.004   0.002  0.00  0.00    +0.020 A 
ATOM     28 CL   UNL     1       1.234  -2.415  -0.024  0.00  0.00    -0.084 Cl
ENDBRANCH  21  24
ENDBRANCH  20  21
ENDBRANCH   1  20
TORSDOF 4
