REMARK  Name = ZINC55749818
REMARK  10 active torsions:
REMARK  status: ('A' for Active; 'I' for Inactive)
REMARK    1  A    between atoms: C_1  and  C_2
REMARK    2  A    between atoms: C_5  and  C_29
REMARK    3  A    between atoms: N_8  and  C_10
REMARK    4  A    between atoms: C_10  and  C_11
REMARK    5  A    between atoms: C_11  and  C_13
REMARK    6  A    between atoms: C_11  and  N_14
REMARK    7  A    between atoms: C_15  and  C_17
REMARK    8  A    between atoms: C_17  and  C_18
REMARK    9  A    between atoms: C_18  and  C_20
REMARK   10  A    between atoms: C_18  and  N_25
REMARK                            x       y       z     vdW  Elec       q    Type
REMARK                         _______ _______ _______ _____ _____    ______ ____
ROOT
ATOM      1  N   UNL     1       2.811  -0.157   2.272  0.00  0.00    -0.314 N 
ATOM      2  C   UNL     1       3.852   0.578   1.833  0.00  0.00    +0.215 C 
ATOM      3  O   UNL     1       4.299   1.470   2.523  0.00  0.00    -0.276 OA
ATOM      4  H   UNL     1       2.454  -0.870   1.720  0.00  0.00    +0.149 HD
ENDROOT
BRANCH   1   5
ATOM      5  C   UNL     1       2.219   0.122   3.582  0.00  0.00    +0.053 C 
ATOM      6  C   UNL     1       2.982  -0.649   4.661  0.00  0.00    +0.026 C 
BRANCH   5   7
ATOM      7  C   UNL     1       0.753  -0.316   3.583  0.00  0.00    -0.057 C 
BRANCH   7  13
ATOM      8  C   UNL     1      -1.275   0.115  -0.093  0.00  0.00    +0.005 C 
ATOM      9  C   UNL     1      -2.038   0.444   1.192  0.00  0.00    -0.031 C 
ATOM     10  C   UNL     1      -2.095   1.963   1.379  0.00  0.00    +0.003 C 
ATOM     11  C   UNL     1      -0.670   2.499   1.549  0.00  0.00    -0.031 C 
ATOM     12  C   UNL     1      -0.004   1.794   2.732  0.00  0.00    -0.076 C 
ATOM     13  N   UNL     1       0.043   0.348   2.481  0.00  0.00    +0.381 N 
ATOM     14  C   UNL     1      -1.322  -0.186   2.388  0.00  0.00    -0.076 C 
ATOM     15  C   UNL     1      -0.720   4.005   1.814  0.00  0.00    +0.005 C 
ATOM     16  H   UNL     1       0.531   0.174   1.616  0.00  0.00    -0.082 HD
ENDBRANCH   7  13
ENDBRANCH   5   7
ENDBRANCH   1   5
BRANCH   2  17
ATOM     17  C   UNL     1       4.462   0.292   0.485  0.00  0.00    +0.123 C 
BRANCH  17  18
ATOM     18  C   UNL     1       5.618   1.261   0.231  0.00  0.00    +0.120 C 
BRANCH  18  19
ATOM     19  N   UNL     1       5.098   2.628   0.139  0.00  0.00    -0.292 N 
ATOM     20  C   UNL     1       4.195   2.942  -0.811  0.00  0.00    +0.298 C 
ATOM     21  O   UNL     1       3.812   2.092  -1.591  0.00  0.00    -0.253 OA
ATOM     22  N   UNL     1       3.717   4.200  -0.896  0.00  0.00    -0.313 N 
ATOM     23  H   UNL     1       5.404   3.306   0.761  0.00  0.00    +0.151 HD
ATOM     24  H   UNL     1       4.022   4.878  -0.273  0.00  0.00    +0.146 HD
ATOM     25  H   UNL     1       3.067   4.426  -1.579  0.00  0.00    +0.146 HD
ENDBRANCH  18  19
BRANCH  18  26
ATOM     26  C   UNL     1       6.305   0.897  -1.059  0.00  0.00    +0.010 A 
ATOM     27  C   UNL     1       7.450   0.196  -1.249  0.00  0.00    +0.013 A 
ATOM     28  C   UNL     1       7.898  -0.021  -2.538  0.00  0.00    +0.008 A 
ATOM     29  C   UNL     1       7.179   0.474  -3.575  0.00  0.00    +0.045 A 
ATOM     30  S   UNL     1       5.819   1.270  -2.736  0.00  0.00    -0.100 S 
ENDBRANCH  18  26
ENDBRANCH  17  18
ENDBRANCH   2  17
TORSDOF 7
