REMARK  Name = ZINC44169568
REMARK  3 active torsions:
REMARK  status: ('A' for Active; 'I' for Inactive)
REMARK    1  A    between atoms: C_6  and  C_7
REMARK    2  A    between atoms: C_12  and  C_15
REMARK    3  A    between atoms: N_17  and  C_18
REMARK                            x       y       z     vdW  Elec       q    Type
REMARK                         _______ _______ _______ _____ _____    ______ ____
ROOT
ATOM      1  C   UNL     1      -1.276  -0.758   0.044  0.00  0.00    -0.030 C 
ATOM      2  C   UNL     1      -1.831  -0.791  -1.384  0.00  0.00    +0.058 C 
ATOM      3  S   UNL     1      -3.354  -1.788  -1.381  0.00  0.00    -0.163 S 
ATOM      4  C   UNL     1      -4.296  -1.073   0.003  0.00  0.00    +0.062 C 
ATOM      5  C   UNL     1      -3.372  -0.997   1.224  0.00  0.00    +0.027 C 
ATOM      6  N   UNL     1      -2.241  -0.112   0.936  0.00  0.00    +0.392 N 
ATOM      7  H   UNL     1      -1.782   0.128   1.802  0.00  0.00    -0.084 HD
ATOM      8  H   UNL     1      -2.582   0.731   0.499  0.00  0.00    -0.084 HD
ENDROOT
BRANCH   1  14
ATOM      9  C   UNL     1      -0.007   1.397   0.076  0.00  0.00    +0.006 A 
ATOM     10  C   UNL     1       1.177   2.114   0.092  0.00  0.00    +0.049 A 
ATOM     11  C   UNL     1       2.386   1.442   0.092  0.00  0.00    +0.162 A 
ATOM     12  C   UNL     1       2.410   0.054   0.076  0.00  0.00    +0.162 A 
ATOM     13  C   UNL     1       1.225  -0.660   0.061  0.00  0.00    +0.051 A 
ATOM     14  C   UNL     1       0.017   0.015   0.061  0.00  0.00    -0.057 A 
ATOM     15  O   UNL     1       3.608  -0.600   0.078  0.00  0.00    -0.488 OA
ATOM     16  C   UNL     1       4.394  -0.468  -1.109  0.00  0.00    +0.232 C 
ATOM     17  C   UNL     1       5.217   0.810  -1.072  0.00  0.00    +0.082 C 
ATOM     18  C   UNL     1       4.349   2.059  -1.081  0.00  0.00    +0.232 C 
ATOM     19  O   UNL     1       3.561   2.136   0.108  0.00  0.00    -0.488 OA
ENDBRANCH   1  14
BRANCH   5  20
ATOM     20  C   UNL     1      -2.858  -2.376   1.549  0.00  0.00    +0.200 C 
ATOM     21  O   UNL     1      -1.726  -2.520   1.961  0.00  0.00    -0.278 OA
ATOM     22  N   UNL     1      -3.655  -3.450   1.381  0.00  0.00    -0.314 N 
ATOM     23  H   UNL     1      -4.560  -3.335   1.052  0.00  0.00    +0.149 HD
BRANCH  22  24
ATOM     24  C   UNL     1      -3.156  -4.790   1.697  0.00  0.00    +0.073 C 
ATOM     25  C   UNL     1      -2.397  -5.349   0.492  0.00  0.00    +0.022 C 
ATOM     26  C   UNL     1      -1.876  -6.749   0.822  0.00  0.00    +0.002 C 
ATOM     27  C   UNL     1      -3.054  -7.667   1.154  0.00  0.00    +0.000 C 
ATOM     28  C   UNL     1      -3.812  -7.108   2.359  0.00  0.00    +0.002 C 
ATOM     29  C   UNL     1      -4.334  -5.708   2.030  0.00  0.00    +0.022 C 
ENDBRANCH  22  24
ENDBRANCH   5  20
TORSDOF 3
