REMARK  Name = ZINC38499489
REMARK  5 active torsions:
REMARK  status: ('A' for Active; 'I' for Inactive)
REMARK    1  A    between atoms: C_1  and  C_2
REMARK    2  A    between atoms: C_2  and  C_3
REMARK    3  A    between atoms: C_2  and  N_4
REMARK    4  A    between atoms: C_7  and  C_9
REMARK    5  A    between atoms: C_15  and  C_17
REMARK                            x       y       z     vdW  Elec       q    Type
REMARK                         _______ _______ _______ _____ _____    ______ ____
ROOT
ATOM      1  C   UNL     1      -4.405  -1.774  -1.560  0.00  0.00    +0.270 A 
ATOM      2  N   UNL     1      -5.588  -2.170  -1.157  0.00  0.00    -0.104 NA
ATOM      3  N   UNL     1      -6.290  -2.523  -2.176  0.00  0.00    -0.092 NA
ATOM      4  C   UNL     1      -5.583  -2.367  -3.268  0.00  0.00    +0.315 A 
ATOM      5  O   UNL     1      -4.379  -1.885  -2.906  0.00  0.00    -0.403 OA
ATOM      6  N   UNL     1      -6.001  -2.642  -4.561  0.00  0.00    -0.238 N 
ATOM      7  C   UNL     1      -7.242  -3.118  -4.782  0.00  0.00    +0.227 C 
ATOM      8  O   UNL     1      -7.994  -3.305  -3.849  0.00  0.00    -0.275 OA
ATOM      9  H   UNL     1      -5.399  -2.492  -5.308  0.00  0.00    +0.159 HD
ENDROOT
BRANCH   7  10
ATOM     10  C   UNL     1      -7.696  -3.417  -6.187  0.00  0.00    +0.048 C 
ATOM     11  C   UNL     1      -6.780  -4.475  -6.805  0.00  0.00    +0.019 C 
ATOM     12  C   UNL     1      -7.241  -4.779  -8.232  0.00  0.00    -0.009 C 
ATOM     13  C   UNL     1      -8.678  -5.302  -8.203  0.00  0.00    +0.007 C 
ATOM     14  C   UNL     1      -9.595  -4.244  -7.585  0.00  0.00    -0.009 C 
ATOM     15  C   UNL     1      -9.134  -3.940  -6.159  0.00  0.00    +0.019 C 
ATOM     16  C   UNL     1      -9.534  -2.965  -8.424  0.00  0.00    +0.007 C 
ATOM     17  C   UNL     1      -8.097  -2.442  -8.453  0.00  0.00    -0.009 C 
ATOM     18  C   UNL     1      -7.181  -3.500  -9.070  0.00  0.00    +0.007 C 
ATOM     19  C   UNL     1      -7.636  -2.138  -7.026  0.00  0.00    +0.019 C 
ENDBRANCH   7  10
BRANCH   1  23
ATOM     20  N   UNL     1      -1.372  -0.511   0.012  0.00  0.00    -0.268 N 
ATOM     21  C   UNL     1      -2.140  -0.697   1.108  0.00  0.00    +0.109 A 
ATOM     22  C   UNL     1      -3.336  -1.175   0.705  0.00  0.00    +0.054 A 
ATOM     23  C   UNL     1      -3.304  -1.289  -0.701  0.00  0.00    +0.149 A 
ATOM     24  N   UNL     1      -2.120  -0.882  -1.113  0.00  0.00    -0.166 NA
BRANCH  20  26
ATOM     25  C   UNL     1      -0.019   1.526   0.010  0.00  0.00    +0.032 C 
ATOM     26  C   UNL     1       0.002  -0.004   0.002  0.00  0.00    +0.101 C 
ATOM     27  C   UNL     1       0.742  -0.511   1.242  0.00  0.00    +0.032 C 
ENDBRANCH  20  26
ENDBRANCH   1  23
TORSDOF 3
