REMARK  Name = ZINC13595742
REMARK  7 active torsions:
REMARK  status: ('A' for Active; 'I' for Inactive)
REMARK    1  A    between atoms: C_1  and  C_2
REMARK    2  A    between atoms: C_2  and  C_3
REMARK    3  A    between atoms: C_2  and  C_4
REMARK    4  A    between atoms: C_4  and  C_5
REMARK    5  A    between atoms: C_20  and  C_22
REMARK    6  A    between atoms: C_24  and  C_28
REMARK    7  A    between atoms: C_28  and  C_30
REMARK                            x       y       z     vdW  Elec       q    Type
REMARK                         _______ _______ _______ _____ _____    ______ ____
ROOT
ATOM      1  C   UNL     1      -0.078  -0.290   2.276  0.00  0.00    +0.123 C 
ATOM      2  C   UNL     1       0.858  -0.802   3.347  0.00  0.00    +0.041 A 
ATOM      3  C   UNL     1       1.601   0.004   4.135  0.00  0.00    -0.016 A 
ATOM      4  C   UNL     1       2.362  -0.854   5.021  0.00  0.00    +0.003 A 
ATOM      5  C   UNL     1       3.288  -0.588   6.034  0.00  0.00    +0.010 A 
ATOM      6  C   UNL     1       3.824  -1.671   6.685  0.00  0.00    +0.001 A 
ATOM      7  C   UNL     1       3.473  -2.972   6.362  0.00  0.00    +0.002 A 
ATOM      8  C   UNL     1       2.559  -3.264   5.364  0.00  0.00    +0.026 A 
ATOM      9  C   UNL     1       1.998  -2.183   4.686  0.00  0.00    +0.047 A 
ATOM     10  N   UNL     1       1.088  -2.113   3.671  0.00  0.00    -0.356 N 
ATOM     11  H   UNL     1       0.667  -2.875   3.244  0.00  0.00    +0.166 HD
ATOM     12  C   UNL     1       1.599   1.510   4.068  0.00  0.00    +0.056 C 
ATOM     13  C   UNL     1       1.002   1.950   2.726  0.00  0.00    +0.113 C 
ATOM     14  N   UNL     1      -0.215   1.165   2.463  0.00  0.00    -0.287 N 
ATOM     15  C   UNL     1      -1.422   1.760   2.397  0.00  0.00    +0.267 C 
ATOM     16  O   UNL     1      -2.401   1.115   2.072  0.00  0.00    -0.268 OA
ENDROOT
BRANCH  15  17
ATOM     17  C   UNL     1      -1.557   3.196   2.720  0.00  0.00    +0.148 A 
ATOM     18  C   UNL     1      -2.720   3.975   2.575  0.00  0.00    +0.065 A 
ATOM     19  C   UNL     1      -2.365   5.244   3.000  0.00  0.00    +0.101 A 
ATOM     20  N   UNL     1      -1.048   5.174   3.369  0.00  0.00    -0.273 N 
ATOM     21  H   UNL     1      -0.524   5.916   3.710  0.00  0.00    +0.189 HD
ATOM     22  N   UNL     1      -0.610   3.978   3.202  0.00  0.00    -0.169 NA
BRANCH  19  23
ATOM     23  C   UNL     1      -3.226   6.426   3.045  0.00  0.00    +0.178 C 
ATOM     24  O   UNL     1      -4.383   6.348   2.686  0.00  0.00    -0.291 OA
ATOM     25  C   UNL     1      -2.677   7.740   3.538  0.00  0.00    +0.093 C 
ENDBRANCH  19  23
ENDBRANCH  15  17
BRANCH   1  26
ATOM     26  C   UNL     1       0.506  -0.583   0.892  0.00  0.00    +0.031 C 
BRANCH  26  28
ATOM     27  C   UNL     1       0.105  -0.400  -1.567  0.00  0.00    +0.007 C 
ATOM     28  C   UNL     1      -0.518  -0.211  -0.183  0.00  0.00    -0.015 C 
ATOM     29  C   UNL     1      -1.747  -1.111  -0.049  0.00  0.00    +0.007 C 
ENDBRANCH  26  28
ENDBRANCH   1  26
TORSDOF 4
