REMARK  Name = ZINC35173473
REMARK  8 active torsions:
REMARK  status: ('A' for Active; 'I' for Inactive)
REMARK    1  A    between atoms: C_1  and  C_2
REMARK    2  A    between atoms: C_3  and  C_19
REMARK    3  A    between atoms: C_4  and  C_9
REMARK    4  A    between atoms: C_6  and  C_8
REMARK    5  A    between atoms: C_15  and  C_18
REMARK    6  A    between atoms: C_19  and  O_21
REMARK    7  A    between atoms: O_21  and  C_22
REMARK    8  A    between atoms: C_22  and  C_23
REMARK                            x       y       z     vdW  Elec       q    Type
REMARK                         _______ _______ _______ _____ _____    ______ ____
ROOT
ATOM      1  C   UNL     1       1.259   1.188   0.244  0.00  0.00    +0.066 C 
ATOM      2  C   UNL     1       0.588  -0.156   0.114  0.00  0.00    +0.056 A 
ATOM      3  C   UNL     1       0.648  -0.867  -1.091  0.00  0.00    +0.110 A 
ATOM      4  C   UNL     1       0.004  -2.116  -1.154  0.00  0.00    +0.143 A 
ATOM      5  N   UNL     1      -0.628  -2.564  -0.075  0.00  0.00    -0.227 NA
ATOM      6  C   UNL     1      -0.655  -1.856   1.036  0.00  0.00    +0.127 A 
ATOM      7  N   UNL     1      -0.060  -0.683   1.137  0.00  0.00    -0.237 NA
ATOM      8  C   UNL     1      -1.386  -2.408   2.233  0.00  0.00    +0.088 C 
ENDROOT
BRANCH   4   9
ATOM      9  C   UNL     1       0.031  -2.920  -2.404  0.00  0.00    +0.266 C 
ATOM     10  O   UNL     1      -0.057  -2.368  -3.482  0.00  0.00    -0.268 OA
ATOM     11  N   UNL     1       0.151  -4.260  -2.340  0.00  0.00    -0.300 N 
ATOM     12  C   UNL     1       0.164  -4.959  -1.046  0.00  0.00    +0.089 C 
ATOM     13  C   UNL     1       1.374  -5.898  -1.012  0.00  0.00    -0.063 C 
ATOM     14  N   UNL     1       1.335  -6.787  -2.180  0.00  0.00    +0.383 N 
ATOM     15  C   UNL     1       1.479  -6.001  -3.412  0.00  0.00    -0.057 C 
ATOM     16  C   UNL     1       0.268  -5.068  -3.565  0.00  0.00    +0.092 C 
ATOM     17  C   UNL     1       1.548  -6.945  -4.614  0.00  0.00    -0.012 C 
ATOM     18  H   UNL     1       2.089  -7.455  -2.118  0.00  0.00    -0.085 HD
ATOM     19  H   UNL     1       0.454  -7.279  -2.197  0.00  0.00    -0.085 HD
ENDBRANCH   4   9
BRANCH   3  20
ATOM     20  C   UNL     1       1.366  -0.321  -2.262  0.00  0.00    +0.343 C 
ATOM     21  O   UNL     1       2.545  -0.567  -2.421  0.00  0.00    -0.245 OA
BRANCH  20  22
ATOM     22  O   UNL     1       0.713   0.451  -3.153  0.00  0.00    -0.456 OA
BRANCH  22  23
ATOM     23  C   UNL     1       1.469   0.944  -4.261  0.00  0.00    +0.268 C 
BRANCH  23  24
ATOM     24  C   UNL     1       0.579   1.781  -5.143  0.00  0.00    -0.010 A 
ATOM     25  C   UNL     1      -0.123   1.189  -6.176  0.00  0.00    +0.007 A 
ATOM     26  C   UNL     1      -0.940   1.956  -6.986  0.00  0.00    +0.000 A 
ATOM     27  C   UNL     1      -1.055   3.316  -6.762  0.00  0.00    +0.000 A 
ATOM     28  C   UNL     1      -0.353   3.907  -5.728  0.00  0.00    +0.000 A 
ATOM     29  C   UNL     1       0.460   3.139  -4.916  0.00  0.00    +0.007 A 
ENDBRANCH  23  24
ENDBRANCH  22  23
ENDBRANCH  20  22
ENDBRANCH   3  20
TORSDOF 5
