REMARK  Name = ZINC60363215
REMARK  3 active torsions:
REMARK  status: ('A' for Active; 'I' for Inactive)
REMARK    1  A    between atoms: C_12  and  C_14
REMARK    2  A    between atoms: C_14  and  N_15
REMARK    3  A    between atoms: C_19  and  C_22
REMARK                            x       y       z     vdW  Elec       q    Type
REMARK                         _______ _______ _______ _____ _____    ______ ____
ROOT
ATOM      1  C   UNL     1      -0.176   0.885  -0.803  0.00  0.00    +0.002 A 
ATOM      2  C   UNL     1       0.904   1.698  -0.515  0.00  0.00    +0.002 A 
ATOM      3  C   UNL     1       2.163   1.149  -0.352  0.00  0.00    +0.025 A 
ATOM      4  C   UNL     1       2.337  -0.218  -0.477  0.00  0.00    +0.058 A 
ATOM      5  C   UNL     1       1.248  -1.041  -0.767  0.00  0.00    +0.055 A 
ATOM      6  C   UNL     1      -0.010  -0.482  -0.928  0.00  0.00    +0.025 A 
ATOM      7  N   UNL     1       1.436  -2.422  -0.897  0.00  0.00    -0.282 N 
ATOM      8  C   UNL     1       2.579  -3.003  -0.484  0.00  0.00    +0.241 C 
ATOM      9  O   UNL     1       2.735  -4.196  -0.637  0.00  0.00    -0.273 OA
ATOM     10  C   UNL     1       3.664  -2.188   0.164  0.00  0.00    +0.118 C 
ATOM     11  N   UNL     1       3.603  -0.804  -0.314  0.00  0.00    -0.256 N 
ATOM     12  C   UNL     1       4.728  -0.114  -0.589  0.00  0.00    +0.204 C 
ATOM     13  O   UNL     1       5.808  -0.560  -0.262  0.00  0.00    -0.277 OA
ATOM     14  C   UNL     1       3.503  -2.217   1.694  0.00  0.00    +0.036 C 
ATOM     15  C   UNL     1       4.469  -3.338   2.155  0.00  0.00    +0.003 C 
ATOM     16  C   UNL     1       5.678  -3.163   1.202  0.00  0.00    +0.003 C 
ATOM     17  C   UNL     1       5.040  -2.791  -0.153  0.00  0.00    +0.036 C 
ATOM     18  H   UNL     1       0.735  -2.966  -1.289  0.00  0.00    +0.155 HD
ENDROOT
BRANCH  12  19
ATOM     19  C   UNL     1       4.645   1.210  -1.303  0.00  0.00    +0.019 C 
BRANCH  19  20
ATOM     20  N   UNL     1       5.944   1.520  -1.913  0.00  0.00    +0.386 N 
ATOM     21  C   UNL     1       6.244   0.528  -2.953  0.00  0.00    -0.078 C 
ATOM     22  C   UNL     1       7.633   0.799  -3.536  0.00  0.00    -0.018 C 
ATOM     23  C   UNL     1       7.660   2.203  -4.146  0.00  0.00    +0.005 C 
ATOM     24  C   UNL     1       7.272   3.223  -3.072  0.00  0.00    +0.028 C 
ATOM     25  C   UNL     1       5.897   2.863  -2.506  0.00  0.00    -0.070 C 
ATOM     26  H   UNL     1       6.663   1.491  -1.206  0.00  0.00    -0.081 HD
BRANCH  24  27
ATOM     27  C   UNL     1       7.221   4.622  -3.690  0.00  0.00    +0.252 C 
ATOM     28  O   UNL     1       6.256   4.644  -4.755  0.00  0.00    -0.349 OA
ATOM     29  C   UNL     1       6.822   5.530  -5.750  0.00  0.00    +0.191 C 
ATOM     30  C   UNL     1       8.333   5.208  -5.635  0.00  0.00    +0.191 C 
ATOM     31  O   UNL     1       8.507   4.960  -4.225  0.00  0.00    -0.349 OA
ENDBRANCH  24  27
ENDBRANCH  19  20
ENDBRANCH  12  19
TORSDOF 3
