REMARK  Name = ZINC65946389
REMARK  7 active torsions:
REMARK  status: ('A' for Active; 'I' for Inactive)
REMARK    1  A    between atoms: C_2  and  N_14
REMARK    2  A    between atoms: C_4  and  S_10
REMARK    3  A    between atoms: C_6  and  N_7
REMARK    4  A    between atoms: S_10  and  N_13
REMARK    5  A    between atoms: N_14  and  C_15
REMARK    6  A    between atoms: N_18  and  C_21
REMARK    7  A    between atoms: C_21  and  C_22
REMARK                            x       y       z     vdW  Elec       q    Type
REMARK                         _______ _______ _______ _____ _____    ______ ____
ROOT
ATOM      1  N   UNL     1       1.299   3.551  -0.455  0.00  0.00    -0.341 N 
ATOM      2  H   UNL     1       2.117   4.071  -0.424  0.00  0.00    +0.146 HD
ENDROOT
BRANCH   1   3
ATOM      3  C   UNL     1       0.001   4.221  -0.344  0.00  0.00    +0.067 C 
ATOM      4  C   UNL     1      -0.549   4.505  -1.745  0.00  0.00    +0.003 C 
ATOM      5  C   UNL     1      -1.866   5.275  -1.623  0.00  0.00    -0.077 C 
ATOM      6  N   UNL     1      -1.633   6.543  -0.921  0.00  0.00    +0.380 N 
ATOM      7  C   UNL     1      -1.173   6.277   0.448  0.00  0.00    -0.077 C 
ATOM      8  C   UNL     1       0.170   5.545   0.406  0.00  0.00    +0.003 C 
ATOM      9  H   UNL     1      -0.931   7.074  -1.413  0.00  0.00    -0.082 HD
BRANCH   6  10
ATOM     10  C   UNL     1      -2.883   7.313  -0.875  0.00  0.00    -0.075 C 
BRANCH  10  11
ATOM     11  C   UNL     1      -2.610   8.694  -0.276  0.00  0.00    -0.028 C 
ATOM     12  C   UNL     1      -3.930   9.447  -0.106  0.00  0.00    +0.002 C 
ATOM     13  C   UNL     1      -3.657  10.828   0.493  0.00  0.00    +0.000 C 
ATOM     14  C   UNL     1      -2.737  11.616  -0.442  0.00  0.00    +0.000 C 
ATOM     15  C   UNL     1      -1.416  10.863  -0.611  0.00  0.00    +0.000 C 
ATOM     16  C   UNL     1      -1.690   9.482  -1.210  0.00  0.00    +0.002 C 
ENDBRANCH  10  11
ENDBRANCH   6  10
ENDBRANCH   1   3
BRANCH   1  18
ATOM     17  C   UNL     1       0.187   1.417  -0.649  0.00  0.00    +0.055 A 
ATOM     18  C   UNL     1       1.358   2.163  -0.605  0.00  0.00    +0.031 A 
ATOM     19  C   UNL     1       2.588   1.527  -0.710  0.00  0.00    +0.051 A 
ATOM     20  C   UNL     1       2.643   0.154  -0.858  0.00  0.00    +0.109 A 
ATOM     21  C   UNL     1       1.476  -0.585  -0.902  0.00  0.00    +0.061 A 
ATOM     22  C   UNL     1       0.249   0.046  -0.797  0.00  0.00    +0.130 A 
BRANCH  22  23
ATOM     23  N   UNL     1      -0.998  -0.750  -0.845  0.00  0.00    +0.057 N 
ATOM     24  O   UNL     1      -2.070  -0.199  -0.753  0.00  0.00    -0.126 OA
ATOM     25  O   UNL     1      -0.944  -1.951  -0.975  0.00  0.00    -0.126 OA
ENDBRANCH  22  23
BRANCH  20  26
ATOM     26  S   UNL     1       4.203  -0.654  -0.993  0.00  0.00    +0.056 S 
ATOM     27  O   UNL     1       3.967  -1.881  -1.671  0.00  0.00    -0.153 OA
ATOM     28  O   UNL     1       5.124   0.316  -1.471  0.00  0.00    -0.153 OA
BRANCH  26  29
ATOM     29  N   UNL     1       4.684  -1.047   0.542  0.00  0.00    -0.204 NA
ATOM     30  H   UNL     1       5.239  -1.829   0.692  0.00  0.00    +0.144 HD
ATOM     31  H   UNL     1       4.412  -0.496   1.292  0.00  0.00    +0.144 HD
ENDBRANCH  26  29
ENDBRANCH  20  26
ENDBRANCH   1  18
TORSDOF 7
