REMARK  Name = ZINC35705850
REMARK  12 active torsions:
REMARK  status: ('A' for Active; 'I' for Inactive)
REMARK    1  A    between atoms: C_1  and  O_2
REMARK    2  A    between atoms: O_2  and  C_3
REMARK    3  A    between atoms: C_7  and  C_9
REMARK    4  A    between atoms: C_9  and  N_10
REMARK    5  A    between atoms: N_10  and  C_11
REMARK    6  A    between atoms: N_10  and  C_23
REMARK    7  A    between atoms: C_11  and  C_12
REMARK    8  A    between atoms: C_12  and  C_13
REMARK    9  A    between atoms: C_23  and  C_24
REMARK   10  A    between atoms: C_26  and  C_29
REMARK   11  A    between atoms: N_31  and  C_32
REMARK   12  A    between atoms: C_32  and  C_33
REMARK                            x       y       z     vdW  Elec       q    Type
REMARK                         _______ _______ _______ _____ _____    ______ ____
ROOT
ATOM      1  N   UNL     1       2.644  -4.480  -1.538  0.00  0.00    +0.388 N 
ATOM      2  H   UNL     1       3.401  -3.890  -1.851  0.00  0.00    -0.081 HD
ENDROOT
BRANCH   1   3
ATOM      3  C   UNL     1       1.447  -4.209  -2.344  0.00  0.00    -0.042 C 
BRANCH   3   8
ATOM      4  C   UNL     1      -1.001  -7.017  -1.709  0.00  0.00    +0.120 A 
ATOM      5  C   UNL     1      -1.855  -6.433  -0.785  0.00  0.00    +0.045 A 
ATOM      6  C   UNL     1      -1.637  -5.133  -0.370  0.00  0.00    +0.004 A 
ATOM      7  C   UNL     1      -0.569  -4.415  -0.875  0.00  0.00    +0.002 A 
ATOM      8  C   UNL     1       0.284  -4.995  -1.796  0.00  0.00    -0.060 A 
ATOM      9  C   UNL     1       0.073  -6.296  -2.210  0.00  0.00    +0.047 A 
BRANCH   4  11
ATOM     10  C   UNL     1      -2.338  -8.977  -1.560  0.00  0.00    +0.277 C 
ATOM     11  O   UNL     1      -1.212  -8.296  -2.118  0.00  0.00    -0.495 OA
ENDBRANCH   4  11
ENDBRANCH   3   8
ENDBRANCH   1   3
BRANCH   1  12
ATOM     12  C   UNL     1       2.357  -4.201  -0.125  0.00  0.00    -0.073 C 
BRANCH  12  13
ATOM     13  C   UNL     1       2.110  -2.702   0.058  0.00  0.00    +0.019 C 
BRANCH  13  14
ATOM     14  C   UNL     1       1.806  -2.417   1.506  0.00  0.00    -0.024 A 
ATOM     15  C   UNL     1       0.588  -2.329   2.064  0.00  0.00    +0.087 A 
ATOM     16  N   UNL     1       0.705  -2.057   3.400  0.00  0.00    -0.360 N 
ATOM     17  H   UNL     1      -0.038  -1.949   4.014  0.00  0.00    +0.165 HD
ATOM     18  C   UNL     1       2.035  -1.962   3.744  0.00  0.00    +0.047 A 
ATOM     19  C   UNL     1       2.783  -2.188   2.574  0.00  0.00    +0.003 A 
ATOM     20  C   UNL     1       4.178  -2.158   2.622  0.00  0.00    +0.010 A 
ATOM     21  C   UNL     1       4.811  -1.911   3.808  0.00  0.00    +0.001 A 
ATOM     22  C   UNL     1       4.077  -1.690   4.965  0.00  0.00    +0.002 A 
ATOM     23  C   UNL     1       2.700  -1.707   4.939  0.00  0.00    +0.026 A 
ENDBRANCH  13  14
ENDBRANCH  12  13
ENDBRANCH   1  12
BRANCH   1  24
ATOM     24  C   UNL     1       3.028  -5.890  -1.690  0.00  0.00    +0.019 C 
BRANCH  24  25
ATOM     25  C   UNL     1       3.441  -6.147  -3.117  0.00  0.00    +0.179 A 
ATOM     26  N   UNL     1       4.649  -6.035  -3.583  0.00  0.00    -0.210 NA
ATOM     27  C   UNL     1       4.631  -6.348  -4.907  0.00  0.00    +0.163 A 
ATOM     28  C   UNL     1       3.346  -6.658  -5.228  0.00  0.00    +0.230 A 
ATOM     29  O   UNL     1       2.621  -6.534  -4.104  0.00  0.00    -0.449 OA
BRANCH  27  30
ATOM     30  C   UNL     1       5.787  -6.349  -5.821  0.00  0.00    +0.266 C 
ATOM     31  O   UNL     1       5.638  -6.650  -6.990  0.00  0.00    -0.268 OA
ATOM     32  N   UNL     1       7.010  -6.017  -5.362  0.00  0.00    -0.308 N 
ATOM     33  H   UNL     1       7.130  -5.777  -4.430  0.00  0.00    +0.149 HD
BRANCH  32  34
ATOM     34  C   UNL     1       8.159  -6.019  -6.272  0.00  0.00    +0.136 C 
BRANCH  34  35
ATOM     35  C   UNL     1       9.417  -5.608  -5.504  0.00  0.00    +0.135 C 
ATOM     36  C   UNL     1      10.639  -5.569  -6.456  0.00  0.00    +0.035 C 
ATOM     37  C   UNL     1      11.562  -4.567  -5.710  0.00  0.00    +0.031 C 
ATOM     38  C   UNL     1      10.546  -3.591  -5.082  0.00  0.00    +0.160 C 
ATOM     39  O   UNL     1       9.283  -4.267  -5.008  0.00  0.00    -0.375 OA
ENDBRANCH  34  35
ENDBRANCH  32  34
ENDBRANCH  27  30
ENDBRANCH  24  25
ENDBRANCH   1  24
TORSDOF 11
