REMARK  Name = ZINC25761971
REMARK  11 active torsions:
REMARK  status: ('A' for Active; 'I' for Inactive)
REMARK    1  A    between atoms: C_1  and  C_2
REMARK    2  A    between atoms: C_4  and  O_5
REMARK    3  A    between atoms: C_14  and  C_16
REMARK    4  A    between atoms: C_16  and  C_18
REMARK    5  A    between atoms: C_16  and  N_25
REMARK    6  A    between atoms: C_18  and  C_19
REMARK    7  A    between atoms: C_19  and  C_20
REMARK    8  A    between atoms: C_20  and  N_21
REMARK    9  A    between atoms: C_26  and  O_28
REMARK   10  A    between atoms: O_28  and  C_29
REMARK   11  A    between atoms: C_29  and  C_30
REMARK                            x       y       z     vdW  Elec       q    Type
REMARK                         _______ _______ _______ _____ _____    ______ ____
ROOT
ATOM      1  C   UNL     1      -0.086  -4.993   5.989  0.00  0.00    +0.162 C 
ENDROOT
BRANCH   1  14
ATOM      2  C   UNL     1       0.308   1.444  -0.040  0.00  0.00    +0.045 C 
ATOM      3  C   UNL     1      -0.134   0.004   0.011  0.00  0.00    -0.033 A 
ATOM      4  C   UNL     1      -0.601  -0.632  -1.122  0.00  0.00    +0.091 A 
ATOM      5  C   UNL     1      -1.003  -1.958  -1.055  0.00  0.00    +0.285 A 
ATOM      6  O   UNL     1      -0.949  -2.645   0.091  0.00  0.00    -0.425 OA
ATOM      7  C   UNL     1      -0.501  -2.073   1.227  0.00  0.00    +0.141 A 
ATOM      8  C   UNL     1      -0.074  -0.726   1.217  0.00  0.00    +0.021 A 
ATOM      9  C   UNL     1       0.399  -0.128   2.398  0.00  0.00    +0.013 A 
ATOM     10  C   UNL     1       0.449  -0.848   3.550  0.00  0.00    +0.024 A 
ATOM     11  C   UNL     1       0.030  -2.190   3.568  0.00  0.00    +0.037 A 
ATOM     12  C   UNL     1      -0.451  -2.795   2.406  0.00  0.00    +0.070 A 
ATOM     13  N   UNL     1       0.086  -2.900   4.729  0.00  0.00    -0.284 N 
ATOM     14  C   UNL     1       0.004  -4.216   4.701  0.00  0.00    +0.238 C 
ATOM     15  O   UNL     1       0.002  -4.804   3.633  0.00  0.00    -0.273 OA
ATOM     16  H   UNL     1       0.185  -2.438   5.576  0.00  0.00    +0.155 HD
BRANCH   5  17
ATOM     17  O   UNL     1      -1.456  -2.567  -2.168  0.00  0.00    -0.480 OA
ATOM     18  H   UNL     1      -1.715  -3.489  -2.034  0.00  0.00    +0.295 HD
ENDBRANCH   5  17
ENDBRANCH   1  14
BRANCH   1  19
ATOM     19  N   UNL     1      -0.166  -6.425   5.691  0.00  0.00    -0.270 N 
ATOM     20  C   UNL     1       0.242  -7.327   6.605  0.00  0.00    +0.401 C 
ATOM     21  O   UNL     1       0.676  -6.953   7.676  0.00  0.00    -0.226 OA
ATOM     22  H   UNL     1      -0.513  -6.724   4.835  0.00  0.00    +0.153 HD
BRANCH  20  23
ATOM     23  O   UNL     1       0.168  -8.643   6.331  0.00  0.00    -0.446 OA
BRANCH  23  24
ATOM     24  C   UNL     1       0.618  -9.543   7.346  0.00  0.00    +0.269 C 
BRANCH  24  25
ATOM     25  C   UNL     1       0.461 -10.963   6.864  0.00  0.00    -0.010 A 
ATOM     26  C   UNL     1      -0.718 -11.646   7.098  0.00  0.00    +0.007 A 
ATOM     27  C   UNL     1      -0.861 -12.948   6.655  0.00  0.00    +0.000 A 
ATOM     28  C   UNL     1       0.173 -13.566   5.979  0.00  0.00    +0.000 A 
ATOM     29  C   UNL     1       1.352 -12.883   5.745  0.00  0.00    +0.000 A 
ATOM     30  C   UNL     1       1.494 -11.580   6.183  0.00  0.00    +0.007 A 
ENDBRANCH  24  25
ENDBRANCH  23  24
ENDBRANCH  20  23
ENDBRANCH   1  19
BRANCH   1  31
ATOM     31  C   UNL     1      -1.337  -4.561   6.758  0.00  0.00    +0.033 C 
BRANCH  31  32
ATOM     32  C   UNL     1      -1.364  -5.257   8.120  0.00  0.00    +0.023 C 
BRANCH  32  33
ATOM     33  C   UNL     1      -2.614  -4.826   8.889  0.00  0.00    +0.115 C 
BRANCH  33  34
ATOM     34  N   UNL     1      -2.640  -5.492  10.193  0.00  0.00    -0.358 N 
ATOM     35  C   UNL     1      -3.623  -5.270  11.019  0.00  0.00    +0.166 C 
ATOM     36  N   UNL     1      -4.635  -4.409  10.667  0.00  0.00    -0.372 N 
ATOM     37  N   UNL     1      -3.647  -5.895  12.243  0.00  0.00    -0.372 N 
ATOM     38  H   UNL     1      -4.619  -3.968   9.803  0.00  0.00    +0.159 HD
ATOM     39  H   UNL     1      -5.367  -4.244  11.282  0.00  0.00    +0.159 HD
ATOM     40  H   UNL     1      -2.932  -6.502  12.492  0.00  0.00    +0.159 HD
ATOM     41  H   UNL     1      -4.378  -5.729  12.858  0.00  0.00    +0.159 HD
ATOM     42  H   UNL     1      -1.925  -6.099  10.441  0.00  0.00    +0.162 HD
ENDBRANCH  33  34
ENDBRANCH  32  33
ENDBRANCH  31  32
ENDBRANCH   1  31
TORSDOF 10
