REMARK  Name = ZINC23954597
REMARK  9 active torsions:
REMARK  status: ('A' for Active; 'I' for Inactive)
REMARK    1  A    between atoms: C_1  and  C_2
REMARK    2  A    between atoms: C_2  and  C_3
REMARK    3  A    between atoms: C_3  and  C_25
REMARK    4  A    between atoms: N_6  and  N_10
REMARK    5  A    between atoms: C_11  and  C_13
REMARK    6  A    between atoms: C_19  and  C_21
REMARK    7  A    between atoms: C_21  and  C_22
REMARK    8  A    between atoms: C_21  and  C_23
REMARK    9  A    between atoms: C_21  and  C_24
REMARK                            x       y       z     vdW  Elec       q    Type
REMARK                         _______ _______ _______ _____ _____    ______ ____
ROOT
ATOM      1  C   UNL     1       1.699  -3.710   4.641  0.00  0.00    +0.139 C 
ATOM      2  C   UNL     1       0.623  -3.323   3.645  0.00  0.00    +0.268 C 
ATOM      3  O   UNL     1      -0.265  -4.028   3.216  0.00  0.00    -0.271 OA
ATOM      4  N   UNL     1       0.861  -2.034   3.334  0.00  0.00    -0.137 N 
ATOM      5  C   UNL     1       1.922  -1.554   3.994  0.00  0.00    +0.327 C 
ATOM      6  O   UNL     1       2.329  -0.415   3.882  0.00  0.00    -0.251 OA
ATOM      7  N   UNL     1       2.487  -2.475   4.795  0.00  0.00    -0.280 N 
ATOM      8  H   UNL     1       3.352  -2.457   5.475  0.00  0.00    +0.152 HD
ENDROOT
BRANCH   1   9
ATOM      9  C   UNL     1       1.079  -4.112   5.955  0.00  0.00    -0.015 A 
ATOM     10  C   UNL     1       0.829  -5.444   6.222  0.00  0.00    +0.006 A 
ATOM     11  C   UNL     1       0.265  -5.813   7.429  0.00  0.00    +0.000 A 
ATOM     12  C   UNL     1      -0.058  -4.848   8.365  0.00  0.00    +0.000 A 
ATOM     13  C   UNL     1       0.188  -3.515   8.095  0.00  0.00    +0.000 A 
ATOM     14  C   UNL     1       0.756  -3.146   6.890  0.00  0.00    +0.006 A 
ENDBRANCH   1   9
BRANCH   4  15
ATOM     15  N   UNL     1       0.089  -1.285   2.436  0.00  0.00    -0.223 N 
ATOM     16  C   UNL     1       0.566  -1.008   1.206  0.00  0.00    +0.233 C 
ATOM     17  O   UNL     1       1.663  -1.406   0.877  0.00  0.00    -0.274 OA
ATOM     18  H   UNL     1      -0.906  -0.924   2.734  0.00  0.00    +0.174 HD
BRANCH  16  19
ATOM     19  C   UNL     1      -0.264  -0.203   0.240  0.00  0.00    +0.079 C 
ATOM     20  C   UNL     1       0.503  -0.033  -1.073  0.00  0.00    +0.032 C 
ATOM     21  C   UNL     1      -0.357   0.756  -2.065  0.00  0.00    +0.108 C 
ATOM     22  N   UNL     1      -0.764   2.020  -1.436  0.00  0.00    -0.301 N 
ATOM     23  C   UNL     1      -1.431   1.976  -0.128  0.00  0.00    +0.108 C 
ATOM     24  C   UNL     1      -0.558   1.173   0.843  0.00  0.00    +0.032 C 
ATOM     25  C   UNL     1      -0.531   3.198  -2.048  0.00  0.00    +0.221 C 
ATOM     26  O   UNL     1      -0.953   4.227  -1.564  0.00  0.00    -0.275 OA
BRANCH  25  27
ATOM     27  C   UNL     1       0.254   3.237  -3.334  0.00  0.00    +0.039 C 
ATOM     28  C   UNL     1       0.413   4.688  -3.791  0.00  0.00    +0.020 C 
ATOM     29  C   UNL     1       1.635   2.619  -3.107  0.00  0.00    +0.020 C 
ATOM     30  C   UNL     1      -0.490   2.442  -4.410  0.00  0.00    +0.020 C 
ENDBRANCH  25  27
ENDBRANCH  16  19
ENDBRANCH   4  15
BRANCH   1  32
ATOM     31  C   UNL     1       3.243  -4.381   2.795  0.00  0.00    +0.007 C 
ATOM     32  C   UNL     1       2.571  -4.840   4.091  0.00  0.00    +0.037 C 
ENDBRANCH   1  32
TORSDOF 5
