REMARK  Name = ZINC63709323
REMARK  9 active torsions:
REMARK  status: ('A' for Active; 'I' for Inactive)
REMARK    1  A    between atoms: C_1  and  C_2
REMARK    2  A    between atoms: C_5  and  S_8
REMARK    3  A    between atoms: S_8  and  N_11
REMARK    4  A    between atoms: N_11  and  N_12
REMARK    5  A    between atoms: C_13  and  S_24
REMARK    6  A    between atoms: S_24  and  C_25
REMARK    7  A    between atoms: C_25  and  C_26
REMARK    8  A    between atoms: N_28  and  C_29
REMARK    9  A    between atoms: C_32  and  C_35
REMARK                            x       y       z     vdW  Elec       q    Type
REMARK                         _______ _______ _______ _____ _____    ______ ____
ROOT
ATOM      1  N   UNL     1       2.500  -4.622   1.014  0.00  0.00    -0.184 N 
ATOM      2  C   UNL     1       3.241  -3.363   0.921  0.00  0.00    +0.240 C 
ATOM      3  N   UNL     1       3.410  -2.772   2.253  0.00  0.00    -0.316 N 
ATOM      4  C   UNL     1       3.765  -3.600   3.313  0.00  0.00    +0.041 A 
ATOM      5  C   UNL     1       4.490  -3.129   4.394  0.00  0.00    +0.024 A 
ATOM      6  C   UNL     1       4.810  -3.986   5.429  0.00  0.00    +0.002 A 
ATOM      7  C   UNL     1       4.411  -5.313   5.393  0.00  0.00    +0.001 A 
ATOM      8  C   UNL     1       3.692  -5.800   4.321  0.00  0.00    +0.015 A 
ATOM      9  C   UNL     1       3.366  -4.947   3.269  0.00  0.00    +0.059 A 
ATOM     10  C   UNL     1       2.617  -5.422   2.093  0.00  0.00    +0.265 C 
ATOM     11  O   UNL     1       2.111  -6.528   2.094  0.00  0.00    -0.268 OA
ATOM     12  H   UNL     1       3.277  -1.822   2.393  0.00  0.00    +0.149 HD
ENDROOT
BRANCH   1  13
ATOM     13  N   UNL     1       1.651  -4.999  -0.034  0.00  0.00    -0.103 NA
ATOM     14  H   UNL     1       1.993  -5.536  -0.767  0.00  0.00    +0.172 HD
BRANCH  13  15
ATOM     15  S   UNL     1       0.063  -4.530  -0.023  0.00  0.00    +0.074 S 
ATOM     16  O   UNL     1      -0.476  -4.950   1.223  0.00  0.00    -0.152 OA
ATOM     17  O   UNL     1      -0.490  -4.937  -1.267  0.00  0.00    -0.152 OA
BRANCH  15  22
ATOM     18  C   UNL     1      -0.018   1.503   0.010  0.00  0.00    +0.044 C 
ATOM     19  C   UNL     1       0.002  -0.004   0.002  0.00  0.00    -0.050 A 
ATOM     20  C   UNL     1       0.006  -0.689  -1.199  0.00  0.00    +0.005 A 
ATOM     21  C   UNL     1       0.025  -2.071  -1.206  0.00  0.00    +0.029 A 
ATOM     22  C   UNL     1       0.040  -2.768  -0.013  0.00  0.00    +0.107 A 
ATOM     23  C   UNL     1       0.037  -2.084   1.188  0.00  0.00    +0.029 A 
ATOM     24  C   UNL     1       0.023  -0.702   1.195  0.00  0.00    +0.005 A 
ENDBRANCH  15  22
ENDBRANCH  13  15
ENDBRANCH   1  13
BRANCH   2  25
ATOM     25  S   UNL     1       4.874  -3.679   0.197  0.00  0.00    -0.109 S 
BRANCH  25  26
ATOM     26  C   UNL     1       5.647  -4.846   1.351  0.00  0.00    +0.168 C 
BRANCH  26  27
ATOM     27  C   UNL     1       7.029  -5.196   0.861  0.00  0.00    +0.225 C 
ATOM     28  O   UNL     1       7.450  -4.707  -0.166  0.00  0.00    -0.275 OA
ATOM     29  N   UNL     1       7.796  -6.052   1.564  0.00  0.00    -0.288 N 
ATOM     30  H   UNL     1       7.459  -6.444   2.385  0.00  0.00    +0.151 HD
BRANCH  29  31
ATOM     31  C   UNL     1       9.139  -6.393   1.087  0.00  0.00    +0.239 C 
ATOM     32  C   UNL     1      10.129  -6.409   2.238  0.00  0.00    +0.045 C 
ATOM     33  C   UNL     1      10.571  -7.668   2.264  0.00  0.00    +0.060 C 
ATOM     34  N   UNL     1       9.985  -8.403   1.293  0.00  0.00    -0.157 NA
ATOM     35  N   UNL     1       9.179  -7.779   0.591  0.00  0.00    -0.160 NA
ATOM     36  C   UNL     1      11.586  -8.199   3.244  0.00  0.00    +0.067 C 
ENDBRANCH  29  31
ENDBRANCH  26  27
ENDBRANCH  25  26
ENDBRANCH   2  25
TORSDOF 7
