REMARK  Name = ZINC00960073
REMARK  5 active torsions:
REMARK  status: ('A' for Active; 'I' for Inactive)
REMARK    1  A    between atoms: C_4  and  N_11
REMARK    2  A    between atoms: C_5  and  C_7
REMARK    3  A    between atoms: C_12  and  C_14
REMARK    4  A    between atoms: C_14  and  S_15
REMARK    5  A    between atoms: S_15  and  C_16
REMARK                            x       y       z     vdW  Elec       q    Type
REMARK                         _______ _______ _______ _____ _____    ______ ____
ROOT
ATOM      1  C   UNL     1       6.083  -0.701  -0.278  0.00  0.00    +0.173 C 
ENDROOT
BRANCH   1   3
ATOM      2  N   UNL     1       3.622  -0.651  -0.037  0.00  0.00    -0.284 N 
ATOM      3  C   UNL     1       4.775   0.037  -0.147  0.00  0.00    +0.227 C 
ATOM      4  O   UNL     1       4.761   1.250  -0.141  0.00  0.00    -0.275 OA
ATOM      5  H   UNL     1       3.639  -1.618   0.038  0.00  0.00    +0.155 HD
BRANCH   2   9
ATOM      6  C   UNL     1      -0.019   1.375  -0.023  0.00  0.00    +0.001 A 
ATOM      7  C   UNL     1       1.087   1.947  -0.626  0.00  0.00    +0.002 A 
ATOM      8  C   UNL     1       2.295   1.278  -0.633  0.00  0.00    +0.024 A 
ATOM      9  C   UNL     1       2.399   0.030  -0.032  0.00  0.00    +0.045 A 
ATOM     10  C   UNL     1       1.287  -0.541   0.573  0.00  0.00    +0.076 A 
ATOM     11  C   UNL     1       0.082   0.133   0.576  0.00  0.00    +0.014 A 
BRANCH  10  12
ATOM     12  C   UNL     1       1.396  -1.895   1.226  0.00  0.00    +0.419 C 
ATOM     13  F   UNL     1       0.155  -2.255   1.761  0.00  0.00    -0.166 F 
ATOM     14  F   UNL     1       1.785  -2.842   0.273  0.00  0.00    -0.166 F 
ATOM     15  F   UNL     1       2.349  -1.845   2.249  0.00  0.00    -0.166 F 
ENDBRANCH  10  12
ENDBRANCH   2   9
ENDBRANCH   1   3
BRANCH   1  16
ATOM     16  S   UNL     1       7.441   0.494  -0.406  0.00  0.00    -0.078 S 
BRANCH  16  17
ATOM     17  C   UNL     1       8.881  -0.511  -0.551  0.00  0.00    +0.171 A 
ATOM     18  N   UNL     1       8.754  -1.821  -0.550  0.00  0.00    -0.185 NA
ATOM     19  C   UNL     1       9.803  -2.643  -0.656  0.00  0.00    +0.282 A 
ATOM     20  C   UNL     1      11.162  -2.066  -0.780  0.00  0.00    +0.075 A 
ATOM     21  C   UNL     1      12.445  -2.774  -0.908  0.00  0.00    -0.023 A 
ATOM     22  C   UNL     1      13.550  -2.015  -1.006  0.00  0.00    -0.004 A 
ATOM     23  S   UNL     1      12.958  -0.339  -0.939  0.00  0.00    -0.075 S 
ATOM     24  C   UNL     1      11.226  -0.675  -0.776  0.00  0.00    +0.092 A 
ATOM     25  N   UNL     1      10.101   0.086  -0.668  0.00  0.00    -0.328 N 
ATOM     26  C   UNL     1      14.800  -2.843  -1.126  0.00  0.00    +0.043 C 
ATOM     27  C   UNL     1      14.378  -4.253  -0.658  0.00  0.00    +0.010 C 
ATOM     28  C   UNL     1      12.867  -4.245  -0.963  0.00  0.00    +0.037 C 
ATOM     29  O   UNL     1       9.643  -3.853  -0.650  0.00  0.00    -0.265 OA
ATOM     30  H   UNL     1      10.169   1.054  -0.671  0.00  0.00    +0.168 HD
ENDBRANCH  16  17
ENDBRANCH   1  16
TORSDOF 5
