REMARK  Name = ZINC40682987
REMARK  9 active torsions:
REMARK  status: ('A' for Active; 'I' for Inactive)
REMARK    1  A    between atoms: C_1  and  C_2
REMARK    2  A    between atoms: C_4  and  C_31
REMARK    3  A    between atoms: C_5  and  N_9
REMARK    4  A    between atoms: C_6  and  C_8
REMARK    5  A    between atoms: C_10  and  C_12
REMARK    6  A    between atoms: C_12  and  C_14
REMARK    7  A    between atoms: C_12  and  N_15
REMARK    8  A    between atoms: C_19  and  C_28
REMARK    9  A    between atoms: C_23  and  C_27
REMARK                            x       y       z     vdW  Elec       q    Type
REMARK                         _______ _______ _______ _____ _____    ______ ____
ROOT
ATOM      1  C   UNL     1      -0.525  -6.390   0.734  0.00  0.00    +0.164 C 
ATOM      2  C   UNL     1      -1.922  -6.627   0.158  0.00  0.00    +0.038 C 
ENDROOT
BRANCH   1   3
ATOM      3  N   UNL     1      -0.436  -6.994   2.066  0.00  0.00    -0.253 N 
ATOM      4  C   UNL     1       0.508  -7.988   2.330  0.00  0.00    +0.079 A 
ATOM      5  C   UNL     1       1.573  -8.198   1.464  0.00  0.00    +0.028 A 
ATOM      6  C   UNL     1       2.498  -9.183   1.735  0.00  0.00    +0.017 A 
ATOM      7  C   UNL     1       2.365  -9.973   2.882  0.00  0.00    +0.067 A 
ATOM      8  C   UNL     1       1.292  -9.761   3.755  0.00  0.00    +0.062 A 
ATOM      9  C   UNL     1       0.370  -8.773   3.479  0.00  0.00    +0.144 A 
ATOM     10  O   UNL     1      -0.678  -8.552   4.317  0.00  0.00    -0.478 OA
ATOM     11  C   UNL     1      -1.137  -7.202   4.429  0.00  0.00    +0.256 C 
ATOM     12  C   UNL     1      -1.263  -6.593   3.055  0.00  0.00    +0.261 C 
ATOM     13  O   UNL     1      -2.106  -5.749   2.839  0.00  0.00    -0.271 OA
ATOM     14  C   UNL     1      -2.500  -7.183   5.123  0.00  0.00    +0.062 C 
BRANCH   7  15
ATOM     15  C   UNL     1       3.352 -11.026   3.170  0.00  0.00    +0.387 C 
ATOM     16  O   UNL     1       4.290 -11.211   2.406  0.00  0.00    -0.241 OA
ATOM     17  O   UNL     1       3.235 -11.717   4.173  0.00  0.00    -0.241 OA
ENDBRANCH   7  15
ENDBRANCH   1   3
BRANCH   1  19
ATOM     18  N   UNL     1      -0.298  -4.142  -0.272  0.00  0.00    -0.284 N 
ATOM     19  C   UNL     1      -0.268  -4.909   0.836  0.00  0.00    +0.238 C 
ATOM     20  O   UNL     1      -0.034  -4.407   1.915  0.00  0.00    -0.273 OA
ATOM     21  H   UNL     1      -0.421  -4.552  -1.143  0.00  0.00    +0.155 HD
BRANCH  18  26
ATOM     22  C   UNL     1       0.294   1.484   0.155  0.00  0.00    +0.044 C 
ATOM     23  C   UNL     1       0.137  -0.010   0.041  0.00  0.00    -0.050 A 
ATOM     24  C   UNL     1       1.127  -0.847   0.521  0.00  0.00    +0.008 A 
ATOM     25  C   UNL     1       0.986  -2.217   0.419  0.00  0.00    -0.029 A 
ATOM     26  C   UNL     1      -0.152  -2.754  -0.166  0.00  0.00    +0.039 A 
ATOM     27  C   UNL     1      -1.146  -1.912  -0.647  0.00  0.00    -0.029 A 
ATOM     28  C   UNL     1      -1.001  -0.542  -0.537  0.00  0.00    +0.008 A 
ATOM     29  C   UNL     1      -2.383  -2.490  -1.284  0.00  0.00    +0.045 C 
ATOM     30  C   UNL     1       2.067  -3.128   0.942  0.00  0.00    +0.045 C 
ENDBRANCH  18  26
ENDBRANCH   1  19
TORSDOF 4
