REMARK  Name = ZINC48325055
REMARK  7 active torsions:
REMARK  status: ('A' for Active; 'I' for Inactive)
REMARK    1  A    between atoms: C_1  and  O_2
REMARK    2  A    between atoms: O_2  and  C_3
REMARK    3  A    between atoms: C_3  and  C_4
REMARK    4  A    between atoms: C_4  and  N_5
REMARK    5  A    between atoms: C_6  and  C_17
REMARK    6  A    between atoms: C_19  and  O_25
REMARK    7  A    between atoms: C_20  and  O_24
REMARK                            x       y       z     vdW  Elec       q    Type
REMARK                         _______ _______ _______ _____ _____    ______ ____
ROOT
ATOM      1  N   UNL     1       1.337  -2.744  -0.350  0.00  0.00    -0.273 N 
ATOM      2  C   UNL     1       0.598  -3.024  -1.581  0.00  0.00    +0.193 C 
ATOM      3  N   UNL     1       1.225  -4.132  -2.311  0.00  0.00    -0.321 N 
ATOM      4  C   UNL     1       2.610  -4.142  -2.441  0.00  0.00    +0.041 A 
ATOM      5  C   UNL     1       3.240  -4.717  -3.531  0.00  0.00    +0.024 A 
ATOM      6  C   UNL     1       4.619  -4.696  -3.612  0.00  0.00    +0.002 A 
ATOM      7  C   UNL     1       5.375  -4.105  -2.612  0.00  0.00    +0.001 A 
ATOM      8  C   UNL     1       4.763  -3.529  -1.518  0.00  0.00    +0.015 A 
ATOM      9  C   UNL     1       3.374  -3.544  -1.423  0.00  0.00    +0.058 A 
ATOM     10  C   UNL     1       2.669  -2.945  -0.274  0.00  0.00    +0.250 C 
ATOM     11  O   UNL     1       3.281  -2.639   0.731  0.00  0.00    -0.270 OA
ATOM     12  H   UNL     1       0.686  -4.841  -2.696  0.00  0.00    +0.148 HD
ENDROOT
BRANCH   2  13
ATOM     13  C   UNL     1       0.595  -1.794  -2.452  0.00  0.00    -0.004 A 
ATOM     14  C   UNL     1       0.418  -1.917  -3.818  0.00  0.00    +0.056 A 
ATOM     15  C   UNL     1       0.416  -0.788  -4.620  0.00  0.00    +0.160 A 
ATOM     16  C   UNL     1       0.590   0.469  -4.049  0.00  0.00    +0.177 A 
ATOM     17  C   UNL     1       0.766   0.586  -2.679  0.00  0.00    +0.086 A 
ATOM     18  C   UNL     1       0.763  -0.546  -1.883  0.00  0.00    +0.031 A 
ATOM     19 CL   UNL     1       0.985   2.151  -1.962  0.00  0.00    -0.080 Cl
BRANCH  16  20
ATOM     20  O   UNL     1       0.589   1.580  -4.833  0.00  0.00    -0.502 OA
ATOM     21  H   UNL     1      -0.285   1.975  -4.954  0.00  0.00    +0.292 HD
ENDBRANCH  16  20
BRANCH  15  22
ATOM     22  O   UNL     1       0.243  -0.907  -5.964  0.00  0.00    -0.503 OA
ATOM     23  H   UNL     1      -0.681  -0.869  -6.247  0.00  0.00    +0.292 HD
ENDBRANCH  15  22
ENDBRANCH   2  13
BRANCH   1  24
ATOM     24  C   UNL     1       0.619  -2.231   0.819  0.00  0.00    +0.138 C 
BRANCH  24  25
ATOM     25  C   UNL     1       0.034  -3.401   1.613  0.00  0.00    +0.178 C 
BRANCH  25  27
ATOM     26  C   UNL     1       0.660  -5.377   2.816  0.00  0.00    +0.194 C 
ATOM     27  O   UNL     1       1.097  -4.192   2.149  0.00  0.00    -0.381 OA
ENDBRANCH  25  27
ENDBRANCH  24  25
ENDBRANCH   1  24
TORSDOF 6
