REMARK  Name = ZINC27516923
REMARK  2 active torsions:
REMARK  status: ('A' for Active; 'I' for Inactive)
REMARK    1  A    between atoms: C_1  and  C_2
REMARK    2  A    between atoms: C_13  and  C_19
REMARK                            x       y       z     vdW  Elec       q    Type
REMARK                         _______ _______ _______ _____ _____    ______ ____
ROOT
ATOM      1  C   UNL     1       6.901  -3.681  -0.146  0.00  0.00    +0.008 C 
ATOM      2  C   UNL     1       5.776  -2.683  -0.427  0.00  0.00    -0.009 C 
ATOM      3  C   UNL     1       5.986  -1.421   0.414  0.00  0.00    +0.008 C 
ATOM      4  C   UNL     1       5.017  -0.328  -0.037  0.00  0.00    +0.037 C 
ATOM      5  C   UNL     1       3.599  -0.893  -0.030  0.00  0.00    -0.024 A 
ATOM      6  C   UNL     1       3.390  -2.227  -0.035  0.00  0.00    -0.004 A 
ATOM      7  S   UNL     1       1.627  -2.410  -0.023  0.00  0.00    -0.073 S 
ATOM      8  C   UNL     1       1.185  -0.692  -0.011  0.00  0.00    +0.118 A 
ATOM      9  C   UNL     1       2.414  -0.037  -0.018  0.00  0.00    +0.056 A 
ATOM     10  C   UNL     1       2.342   1.444  -0.012  0.00  0.00    +0.172 A 
ATOM     11  N   UNL     1       3.268   2.379  -0.017  0.00  0.00    -0.206 NA
ATOM     12  C   UNL     1       2.685   3.585  -0.007  0.00  0.00    +0.182 A 
ATOM     13  N   UNL     1       1.378   3.436   0.006  0.00  0.00    -0.140 NA
ATOM     14  N   UNL     1       1.122   2.056   0.002  0.00  0.00    -0.159 N 
ATOM     15  C   UNL     1      -0.016   1.343   0.009  0.00  0.00    +0.372 A 
ATOM     16  O   UNL     1      -1.084   1.925   0.018  0.00  0.00    -0.242 OA
ATOM     17  N   UNL     1       0.002  -0.004   0.002  0.00  0.00    -0.184 NA
ATOM     18  C   UNL     1       4.426  -3.309  -0.047  0.00  0.00    +0.046 C 
ENDROOT
BRANCH  12  19
ATOM     19  C   UNL     1       3.401   4.885  -0.008  0.00  0.00    +0.021 A 
ATOM     20  C   UNL     1       4.794   4.916  -0.016  0.00  0.00    +0.011 A 
ATOM     21  C   UNL     1       5.455   6.128  -0.022  0.00  0.00    +0.001 A 
ATOM     22  C   UNL     1       4.737   7.310  -0.010  0.00  0.00    +0.000 A 
ATOM     23  C   UNL     1       3.354   7.285   0.003  0.00  0.00    +0.001 A 
ATOM     24  C   UNL     1       2.683   6.079   0.004  0.00  0.00    +0.011 A 
ENDBRANCH  12  19
TORSDOF 1
