REMARK  Name = ZINC04631710
REMARK  6 active torsions:
REMARK  status: ('A' for Active; 'I' for Inactive)
REMARK    1  A    between atoms: C_1  and  C_2
REMARK    2  A    between atoms: C_9  and  N_27
REMARK    3  A    between atoms: C_10  and  C_25
REMARK    4  A    between atoms: C_11  and  C_13
REMARK    5  A    between atoms: C_16  and  O_19
REMARK    6  A    between atoms: O_19  and  C_20
REMARK                            x       y       z     vdW  Elec       q    Type
REMARK                         _______ _______ _______ _____ _____    ______ ____
ROOT
ATOM      1  C   UNL     1       6.447  -2.179  -1.002  0.00  0.00    +0.068 C 
ATOM      2  C   UNL     1       5.877  -3.234  -0.090  0.00  0.00    +0.068 A 
ATOM      3  C   UNL     1       5.418  -3.031   1.204  0.00  0.00    +0.049 A 
ATOM      4  C   UNL     1       4.981  -4.231   1.692  0.00  0.00    +0.222 A 
ATOM      5  N   UNL     1       5.163  -5.151   0.731  0.00  0.00    -0.246 N 
ATOM      6  H   UNL     1       4.937  -6.123   0.795  0.00  0.00    +0.192 HD
ATOM      7  N   UNL     1       5.727  -4.505  -0.380  0.00  0.00    -0.176 NA
ATOM      8  O   UNL     1       4.469  -4.372   2.941  0.00  0.00    -0.423 OA
ATOM      9  C   UNL     1       4.647  -3.354   3.807  0.00  0.00    +0.200 C 
ATOM     10  C   UNL     1       5.062  -2.120   3.443  0.00  0.00    +0.098 C 
ATOM     11  C   UNL     1       5.366  -1.759   2.010  0.00  0.00    +0.101 C 
ENDROOT
BRANCH  11  12
ATOM     12  C   UNL     1       4.283  -0.859   1.472  0.00  0.00    -0.034 A 
ATOM     13  C   UNL     1       4.602   0.404   1.009  0.00  0.00    +0.008 A 
ATOM     14  C   UNL     1       3.612   1.230   0.515  0.00  0.00    +0.046 A 
ATOM     15  C   UNL     1       2.296   0.792   0.484  0.00  0.00    +0.121 A 
ATOM     16  C   UNL     1       1.977  -0.474   0.955  0.00  0.00    +0.046 A 
ATOM     17  C   UNL     1       2.973  -1.299   1.442  0.00  0.00    +0.008 A 
BRANCH  15  18
ATOM     18  O   UNL     1       1.319   1.603  -0.002  0.00  0.00    -0.489 OA
BRANCH  18  19
ATOM     19  C   UNL     1       1.698   2.936  -0.351  0.00  0.00    +0.173 C 
ATOM     20  C   UNL     1       2.225   2.987  -1.806  0.00  0.00    +0.044 C 
ATOM     21  C   UNL     1       2.000   4.472  -2.196  0.00  0.00    +0.004 C 
ATOM     22  C   UNL     1       0.656   4.839  -1.533  0.00  0.00    +0.004 C 
ATOM     23  C   UNL     1       0.464   3.862  -0.360  0.00  0.00    +0.044 C 
ENDBRANCH  18  19
ENDBRANCH  15  18
ENDBRANCH  11  12
BRANCH   9  24
ATOM     24  N   UNL     1       4.391  -3.584   5.136  0.00  0.00    -0.328 N 
ATOM     25  H   UNL     1       4.509  -2.871   5.783  0.00  0.00    +0.145 HD
ATOM     26  H   UNL     1       4.091  -4.459   5.428  0.00  0.00    +0.145 HD
ENDBRANCH   9  24
BRANCH  10  27
ATOM     27  C   UNL     1       5.218  -1.119   4.455  0.00  0.00    +0.101 C 
ATOM     28  N   UNL     1       5.343  -0.325   5.257  0.00  0.00    -0.191 NA
ENDBRANCH  10  27
TORSDOF 5
