REMARK  Name = ZINC06410004
REMARK  9 active torsions:
REMARK  status: ('A' for Active; 'I' for Inactive)
REMARK    1  A    between atoms: C_1  and  C_2
REMARK    2  A    between atoms: C_7  and  C_14
REMARK    3  A    between atoms: C_14  and  C_16
REMARK    4  A    between atoms: C_14  and  N_67
REMARK    5  A    between atoms: N_20  and  C_21
REMARK    6  A    between atoms: C_27  and  C_28
REMARK    7  A    between atoms: C_27  and  N_67
REMARK    8  A    between atoms: C_33  and  C_34
REMARK    9  A    between atoms: C_33  and  N_67
REMARK                            x       y       z     vdW  Elec       q    Type
REMARK                         _______ _______ _______ _____ _____    ______ ____
ROOT
ATOM      1  C   UNL     1       2.062   3.551  -0.164  0.00  0.00    +0.040 C 
ENDROOT
BRANCH   1   8
ATOM      2  C   UNL     1       4.829   6.605   6.665  0.00  0.00    +0.044 C 
ATOM      3  C   UNL     1       4.192   6.230   5.352  0.00  0.00    -0.048 A 
ATOM      4  C   UNL     1       3.345   7.129   4.718  0.00  0.00    +0.004 A 
ATOM      5  C   UNL     1       2.756   6.809   3.528  0.00  0.00    +0.010 A 
ATOM      6  C   UNL     1       3.009   5.565   2.942  0.00  0.00    -0.001 A 
ATOM      7  C   UNL     1       2.395   5.189   1.667  0.00  0.00    +0.017 A 
ATOM      8  C   UNL     1       2.677   3.969   1.147  0.00  0.00    +0.011 A 
ATOM      9  C   UNL     1       3.540   3.086   1.832  0.00  0.00    +0.251 A 
ATOM     10  O   UNL     1       3.776   1.992   1.349  0.00  0.00    -0.268 OA
ATOM     11  N   UNL     1       4.113   3.425   3.000  0.00  0.00    -0.322 N 
ATOM     12  H   UNL     1       4.704   2.796   3.442  0.00  0.00    +0.169 HD
ATOM     13  C   UNL     1       3.867   4.650   3.582  0.00  0.00    +0.049 A 
ATOM     14  C   UNL     1       4.455   4.998   4.794  0.00  0.00    +0.029 A 
ENDBRANCH   1   8
BRANCH   1  15
ATOM     15  C   UNL     1       1.214   2.323   0.049  0.00  0.00    +0.143 A 
ATOM     16  N   UNL     1       1.642   1.097   0.223  0.00  0.00    -0.115 NA
ATOM     17  N   UNL     1       0.614   0.334   0.369  0.00  0.00    -0.023 NA
ATOM     18  N   UNL     1      -0.459   1.041   0.292  0.00  0.00    -0.044 NA
ATOM     19  N   UNL     1      -0.131   2.273   0.095  0.00  0.00    -0.227 N 
BRANCH  19  20
ATOM     20  C   UNL     1      -1.049   3.404  -0.057  0.00  0.00    +0.111 C 
ATOM     21  C   UNL     1      -1.944   3.504   1.180  0.00  0.00    +0.027 C 
ATOM     22  C   UNL     1      -2.903   4.686   1.022  0.00  0.00    +0.002 C 
ATOM     23  C   UNL     1      -3.772   4.474  -0.220  0.00  0.00    +0.000 C 
ATOM     24  C   UNL     1      -2.877   4.374  -1.457  0.00  0.00    +0.002 C 
ATOM     25  C   UNL     1      -1.918   3.193  -1.299  0.00  0.00    +0.027 C 
ENDBRANCH  19  20
ENDBRANCH   1  15
BRANCH   1  26
ATOM     26  N   UNL     1       3.140   3.227  -1.121  0.00  0.00    +0.397 N 
ATOM     27  H   UNL     1       3.648   2.401  -0.784  0.00  0.00    -0.079 HD
BRANCH  26  28
ATOM     28  C   UNL     1       4.082   4.361  -1.224  0.00  0.00    -0.001 C 
BRANCH  28  29
ATOM     29  C   UNL     1       5.246   4.101  -0.303  0.00  0.00    +0.089 A 
ATOM     30  C   UNL     1       6.310   3.327  -0.579  0.00  0.00    +0.042 A 
ATOM     31  C   UNL     1       7.151   3.365   0.557  0.00  0.00    +0.041 A 
ATOM     32  C   UNL     1       6.550   4.161   1.459  0.00  0.00    +0.195 A 
ATOM     33  O   UNL     1       5.399   4.609   0.931  0.00  0.00    -0.470 OA
ENDBRANCH  28  29
ENDBRANCH  26  28
BRANCH  26  34
ATOM     34  C   UNL     1       2.563   2.927  -2.448  0.00  0.00    -0.034 C 
BRANCH  34  35
ATOM     35  C   UNL     1       2.077   1.500  -2.451  0.00  0.00    -0.027 A 
ATOM     36  C   UNL     1       0.805   1.033  -2.421  0.00  0.00    +0.009 A 
ATOM     37  C   UNL     1       0.593  -0.333  -2.432  0.00  0.00    +0.008 A 
ATOM     38  C   UNL     1       1.663  -1.164  -2.470  0.00  0.00    +0.045 A 
ATOM     39  S   UNL     1       3.025  -0.011  -2.501  0.00  0.00    -0.103 S 
ENDBRANCH  34  35
ENDBRANCH  26  34
ENDBRANCH   1  26
TORSDOF 8
