REMARK  Name = ZINC35746135
REMARK  11 active torsions:
REMARK  status: ('A' for Active; 'I' for Inactive)
REMARK    1  A    between atoms: C_1  and  O_2
REMARK    2  A    between atoms: O_2  and  C_3
REMARK    3  A    between atoms: C_6  and  C_9
REMARK    4  A    between atoms: C_18  and  C_20
REMARK    5  A    between atoms: C_20  and  N_21
REMARK    6  A    between atoms: N_21  and  C_22
REMARK    7  A    between atoms: N_21  and  C_33
REMARK    8  A    between atoms: C_22  and  C_23
REMARK    9  A    between atoms: C_23  and  C_25
REMARK   10  A    between atoms: C_23  and  O_32
REMARK   11  A    between atoms: C_25  and  C_26
REMARK                            x       y       z     vdW  Elec       q    Type
REMARK                         _______ _______ _______ _____ _____    ______ ____
ROOT
ATOM      1  C   UNL     1       3.525  -2.110  -2.999  0.00  0.00    +0.004 A 
ATOM      2  C   UNL     1       2.882  -1.690  -4.115  0.00  0.00    +0.056 A 
ATOM      3  S   UNL     1       3.420  -2.844  -5.361  0.00  0.00    -0.076 S 
ATOM      4  C   UNL     1       4.485  -3.855  -4.366  0.00  0.00    +0.116 A 
ATOM      5  C   UNL     1       4.404  -3.270  -3.091  0.00  0.00    +0.080 A 
ATOM      6  C   UNL     1       5.187  -3.897  -2.070  0.00  0.00    +0.260 A 
ATOM      7  O   UNL     1       5.178  -3.464  -0.930  0.00  0.00    -0.267 OA
ATOM      8  N   UNL     1       5.933  -4.971  -2.388  0.00  0.00    -0.312 N 
ATOM      9  H   UNL     1       6.466  -5.400  -1.700  0.00  0.00    +0.170 HD
ATOM     10  C   UNL     1       5.954  -5.467  -3.651  0.00  0.00    +0.094 A 
ATOM     11  N   UNL     1       5.243  -4.923  -4.602  0.00  0.00    -0.229 NA
ENDROOT
BRANCH   1  15
ATOM     12  C   UNL     1       3.003  -0.075   0.699  0.00  0.00    +0.120 A 
ATOM     13  C   UNL     1       3.312   0.642  -0.449  0.00  0.00    +0.046 A 
ATOM     14  C   UNL     1       3.482  -0.015  -1.649  0.00  0.00    +0.012 A 
ATOM     15  C   UNL     1       3.344  -1.401  -1.710  0.00  0.00    -0.016 A 
ATOM     16  C   UNL     1       3.034  -2.118  -0.555  0.00  0.00    +0.012 A 
ATOM     17  C   UNL     1       2.870  -1.456   0.643  0.00  0.00    +0.046 A 
BRANCH  12  19
ATOM     18  C   UNL     1       2.988   1.996   1.866  0.00  0.00    +0.277 C 
ATOM     19  O   UNL     1       2.837   0.575   1.881  0.00  0.00    -0.495 OA
ENDBRANCH  12  19
ENDBRANCH   1  15
BRANCH  10  20
ATOM     20  C   UNL     1       6.805  -6.672  -3.960  0.00  0.00    -0.003 C 
BRANCH  20  21
ATOM     21  N   UNL     1       6.665  -7.019  -5.380  0.00  0.00    +0.388 N 
ATOM     22  H   UNL     1       5.689  -7.149  -5.601  0.00  0.00    -0.081 HD
BRANCH  21  23
ATOM     23  C   UNL     1       7.214  -5.934  -6.206  0.00  0.00    -0.068 C 
ATOM     24  C   UNL     1       6.245  -5.187  -7.124  0.00  0.00    -0.017 C 
ATOM     25  C   UNL     1       7.268  -6.156  -7.719  0.00  0.00    -0.017 C 
ENDBRANCH  21  23
BRANCH  21  26
ATOM     26  C   UNL     1       7.399  -8.262  -5.655  0.00  0.00    -0.046 C 
BRANCH  26  27
ATOM     27  C   UNL     1       8.848  -8.112  -5.190  0.00  0.00    +0.102 C 
BRANCH  27  28
ATOM     28  O   UNL     1       9.492  -7.092  -5.956  0.00  0.00    -0.393 OA
ATOM     29  H   UNL     1       9.514  -7.269  -6.906  0.00  0.00    +0.210 HD
ENDBRANCH  27  28
BRANCH  27  30
ATOM     30  C   UNL     1       9.586  -9.438  -5.385  0.00  0.00    +0.064 C 
BRANCH  30  31
ATOM     31  C   UNL     1      10.976  -9.329  -4.814  0.00  0.00    -0.045 A 
ATOM     32  C   UNL     1      12.018  -8.892  -5.611  0.00  0.00    +0.004 A 
ATOM     33  C   UNL     1      13.293  -8.791  -5.088  0.00  0.00    +0.000 A 
ATOM     34  C   UNL     1      13.527  -9.127  -3.768  0.00  0.00    +0.000 A 
ATOM     35  C   UNL     1      12.486  -9.563  -2.970  0.00  0.00    +0.000 A 
ATOM     36  C   UNL     1      11.209  -9.660  -3.493  0.00  0.00    +0.004 A 
ENDBRANCH  30  31
ENDBRANCH  27  30
ENDBRANCH  26  27
ENDBRANCH  21  26
ENDBRANCH  20  21
ENDBRANCH  10  20
TORSDOF 10
