REMARK  Name = ZINC39459748
REMARK  4 active torsions:
REMARK  status: ('A' for Active; 'I' for Inactive)
REMARK    1  A    between atoms: C_4  and  S_7
REMARK    2  A    between atoms: S_7  and  C_10
REMARK    3  A    between atoms: C_17  and  C_19
REMARK    4  A    between atoms: C_24  and  O_25
REMARK                            x       y       z     vdW  Elec       q    Type
REMARK                         _______ _______ _______ _____ _____    ______ ____
ROOT
ATOM      1  C   UNL     1       4.406  -1.094   1.637  0.00  0.00    +0.189 A 
ATOM      2  C   UNL     1       5.146  -0.263   2.400  0.00  0.00    +0.159 A 
ATOM      3  N   UNL     1       5.290  -0.808   3.611  0.00  0.00    -0.234 NA
ATOM      4  C   UNL     1       4.657  -1.974   3.643  0.00  0.00    +0.142 A 
ATOM      5  N   UNL     1       4.085  -2.180   2.413  0.00  0.00    -0.244 N 
ATOM      6  C   UNL     1       3.359  -3.311   2.160  0.00  0.00    +0.259 A 
ATOM      7  C   UNL     1       3.186  -4.253   3.118  0.00  0.00    +0.079 A 
ATOM      8  C   UNL     1       3.757  -4.074   4.398  0.00  0.00    -0.006 A 
ATOM      9  C   UNL     1       4.499  -2.935   4.656  0.00  0.00    +0.055 A 
ATOM     10  O   UNL     1       2.807  -3.492   0.936  0.00  0.00    -0.267 OA
ENDROOT
BRANCH   8  11
ATOM     11  C   UNL     1       3.570  -5.100   5.450  0.00  0.00    +0.024 A 
ATOM     12  C   UNL     1       2.679  -4.874   6.498  0.00  0.00    +0.012 A 
ATOM     13  C   UNL     1       2.509  -5.832   7.476  0.00  0.00    +0.001 A 
ATOM     14  C   UNL     1       3.220  -7.019   7.420  0.00  0.00    +0.004 A 
ATOM     15  C   UNL     1       4.105  -7.254   6.386  0.00  0.00    +0.046 A 
ATOM     16  C   UNL     1       4.282  -6.303   5.393  0.00  0.00    +0.125 A 
BRANCH  16  17
ATOM     17  O   UNL     1       5.147  -6.535   4.373  0.00  0.00    -0.506 OA
ATOM     18  H   UNL     1       6.051  -6.239   4.548  0.00  0.00    +0.292 HD
ENDBRANCH  16  17
ENDBRANCH   8  11
BRANCH   1  19
ATOM     19  S   UNL     1       3.934  -0.832  -0.041  0.00  0.00    +0.042 S 
ATOM     20  O   UNL     1       3.674  -2.114  -0.595  0.00  0.00    -0.163 OA
ATOM     21  O   UNL     1       4.890   0.060  -0.597  0.00  0.00    -0.163 OA
BRANCH  19  25
ATOM     22  C   UNL     1      -0.017   1.378   0.010  0.00  0.00    +0.000 A 
ATOM     23  C   UNL     1       1.171   2.086   0.002  0.00  0.00    +0.002 A 
ATOM     24  C   UNL     1       2.377   1.411  -0.013  0.00  0.00    +0.027 A 
ATOM     25  C   UNL     1       2.396   0.029  -0.020  0.00  0.00    +0.095 A 
ATOM     26  C   UNL     1       1.208  -0.679  -0.012  0.00  0.00    +0.027 A 
ATOM     27  C   UNL     1       0.002  -0.004   0.002  0.00  0.00    +0.002 A 
ENDBRANCH  19  25
ENDBRANCH   1  19
TORSDOF 4
