REMARK  Name = ZINC66252977
REMARK  7 active torsions:
REMARK  status: ('A' for Active; 'I' for Inactive)
REMARK    1  A    between atoms: C_1  and  C_2
REMARK    2  A    between atoms: C_2  and  C_3
REMARK    3  A    between atoms: C_2  and  C_4
REMARK    4  A    between atoms: C_5  and  C_19
REMARK    5  A    between atoms: N_9  and  S_10
REMARK    6  A    between atoms: S_10  and  C_13
REMARK    7  A    between atoms: N_16  and  C_18
REMARK                            x       y       z     vdW  Elec       q    Type
REMARK                         _______ _______ _______ _____ _____    ______ ____
ROOT
ATOM      1  C   UNL     1      -1.433  -0.474  -0.014  0.00  0.00    +0.020 A 
ATOM      2  C   UNL     1      -2.060  -1.234  -0.933  0.00  0.00    +0.059 A 
ATOM      3  N   UNL     1      -3.338  -1.668  -0.696  0.00  0.00    -0.332 N 
ATOM      4  C   UNL     1      -3.946  -1.309   0.487  0.00  0.00    +0.192 A 
ATOM      5  S   UNL     1      -2.666  -0.343   1.271  0.00  0.00    -0.052 S 
ATOM      6  N   UNL     1      -5.146  -1.603   0.923  0.00  0.00    -0.103 NA
ATOM      7  H   UNL     1      -3.804  -2.216  -1.347  0.00  0.00    +0.168 HD
ENDROOT
BRANCH   2   8
ATOM      8  C   UNL     1      -1.373  -1.598  -2.191  0.00  0.00    -0.001 A 
ATOM      9  C   UNL     1      -0.073  -2.105  -2.158  0.00  0.00    +0.010 A 
ATOM     10  C   UNL     1       0.563  -2.442  -3.335  0.00  0.00    +0.001 A 
ATOM     11  C   UNL     1      -0.086  -2.279  -4.546  0.00  0.00    +0.000 A 
ATOM     12  C   UNL     1      -1.375  -1.777  -4.586  0.00  0.00    +0.001 A 
ATOM     13  C   UNL     1      -2.024  -1.441  -3.416  0.00  0.00    +0.010 A 
ENDBRANCH   2   8
BRANCH   1  15
ATOM     14  C   UNL     1      -0.120   1.622   0.173  0.00  0.00    +0.013 C 
ATOM     15  C   UNL     1      -0.044   0.111  -0.057  0.00  0.00    +0.022 C 
ATOM     16  C   UNL     1       0.812  -0.529   1.037  0.00  0.00    +0.013 C 
ENDBRANCH   1  15
BRANCH   6  17
ATOM     17  S   UNL     1      -6.157  -2.534   0.000  0.00  0.00    +0.104 S 
ATOM     18  O   UNL     1      -6.467  -1.772  -1.158  0.00  0.00    -0.146 OA
ATOM     19  O   UNL     1      -5.568  -3.825  -0.072  0.00  0.00    -0.146 OA
BRANCH  17  20
ATOM     20  C   UNL     1      -7.662  -2.717   0.899  0.00  0.00    +0.150 A 
ATOM     21  C   UNL     1      -7.954  -3.732   1.817  0.00  0.00    +0.163 A 
ATOM     22  N   UNL     1      -9.162  -3.532   2.276  0.00  0.00    -0.178 NA
ATOM     23  N   UNL     1      -9.678  -2.382   1.665  0.00  0.00    -0.273 N 
ATOM     24  C   UNL     1      -8.736  -1.898   0.829  0.00  0.00    +0.137 A 
ATOM     25  C   UNL     1     -11.004  -1.804   1.897  0.00  0.00    +0.172 C 
ENDBRANCH  17  20
ENDBRANCH   6  17
TORSDOF 4
