REMARK  Name = ZINC39631841
REMARK  13 active torsions:
REMARK  status: ('A' for Active; 'I' for Inactive)
REMARK    1  A    between atoms: C_1  and  C_2
REMARK    2  A    between atoms: C_2  and  C_4
REMARK    3  A    between atoms: C_2  and  N_11
REMARK    4  A    between atoms: C_4  and  C_5
REMARK    5  A    between atoms: C_5  and  C_6
REMARK    6  A    between atoms: C_6  and  C_7
REMARK    7  A    between atoms: C_7  and  C_8
REMARK    8  A    between atoms: C_7  and  C_9
REMARK    9  A    between atoms: C_7  and  O_10
REMARK   10  A    between atoms: C_12  and  C_14
REMARK   11  A    between atoms: C_25  and  C_27
REMARK   12  A    between atoms: C_32  and  S_33
REMARK   13  A    between atoms: S_33  and  C_34
REMARK                            x       y       z     vdW  Elec       q    Type
REMARK                         _______ _______ _______ _____ _____    ______ ____
ROOT
ATOM      1  C   UNL     1       0.886  -1.857  -3.788  0.00  0.00    +0.100 C 
ATOM      2  C   UNL     1       1.797  -0.645  -4.083  0.00  0.00    +0.121 C 
ATOM      3  N   UNL     1       1.683  -0.439  -5.547  0.00  0.00    -0.296 N 
ATOM      4  C   UNL     1       0.252  -0.687  -5.844  0.00  0.00    +0.115 C 
ATOM      5  C   UNL     1      -0.127  -1.881  -4.945  0.00  0.00    -0.004 C 
ATOM      6  C   UNL     1      -1.545  -1.708  -4.409  0.00  0.00    -0.010 C 
ATOM      7  C   UNL     1      -2.539  -1.793  -5.571  0.00  0.00    -0.082 C 
ATOM      8  N   UNL     1      -2.402  -3.093  -6.240  0.00  0.00    +0.379 N 
ATOM      9  C   UNL     1      -1.065  -3.213  -6.833  0.00  0.00    -0.082 C 
ATOM     10  C   UNL     1      -0.009  -3.187  -5.724  0.00  0.00    -0.010 C 
ATOM     11  C   UNL     1       2.660  -0.102  -6.412  0.00  0.00    +0.249 C 
ATOM     12  O   UNL     1       2.390   0.125  -7.576  0.00  0.00    -0.270 OA
ATOM     13  H   UNL     1      -2.538  -3.832  -5.566  0.00  0.00    -0.086 HD
ATOM     14  H   UNL     1      -3.099  -3.171  -6.966  0.00  0.00    -0.086 HD
ENDROOT
BRANCH  11  15
ATOM     15  C   UNL     1       4.056  -0.008  -5.947  0.00  0.00    +0.069 A 
ATOM     16  C   UNL     1       4.350   0.464  -4.663  0.00  0.00    +0.017 A 
ATOM     17  C   UNL     1       5.676   0.532  -4.275  0.00  0.00    +0.020 A 
ATOM     18  C   UNL     1       6.666   0.136  -5.157  0.00  0.00    +0.112 A 
ATOM     19  N   UNL     1       6.369  -0.306  -6.363  0.00  0.00    -0.248 NA
ATOM     20  C   UNL     1       5.117  -0.397  -6.784  0.00  0.00    +0.114 A 
BRANCH  20  21
ATOM     21  S   UNL     1       4.778  -1.002  -8.404  0.00  0.00    -0.069 S 
BRANCH  21  22
ATOM     22  C   UNL     1       6.374  -1.273  -9.100  0.00  0.00    +0.014 A 
ATOM     23  C   UNL     1       6.956  -2.534  -9.038  0.00  0.00    +0.015 A 
ATOM     24  C   UNL     1       8.206  -2.743  -9.585  0.00  0.00    +0.001 A 
ATOM     25  C   UNL     1       8.880  -1.699 -10.193  0.00  0.00    +0.000 A 
ATOM     26  C   UNL     1       8.304  -0.443 -10.256  0.00  0.00    +0.001 A 
ATOM     27  C   UNL     1       7.051  -0.229  -9.717  0.00  0.00    +0.015 A 
ENDBRANCH  21  22
ENDBRANCH  20  21
ENDBRANCH  11  15
BRANCH   1  29
ATOM     28  N   UNL     1      -0.154  -2.744  -1.726  0.00  0.00    -0.312 N 
ATOM     29  C   UNL     1       0.175  -1.671  -2.472  0.00  0.00    +0.218 C 
ATOM     30  O   UNL     1      -0.100  -0.555  -2.084  0.00  0.00    -0.275 OA
ATOM     31  H   UNL     1       0.066  -3.636  -2.037  0.00  0.00    +0.149 HD
BRANCH  28  33
ATOM     32  C   UNL     1       0.183  -2.297   0.654  0.00  0.00    +0.028 C 
ATOM     33  C   UNL     1      -0.845  -2.563  -0.447  0.00  0.00    +0.070 C 
BRANCH  33  34
ATOM     34  C   UNL     1      -1.636  -3.829  -0.111  0.00  0.00    +0.022 C 
BRANCH  34  35
ATOM     35  C   UNL     1      -2.746  -4.027  -1.146  0.00  0.00    +0.005 C 
BRANCH  35  36
ATOM     36  C   UNL     1      -3.537  -5.293  -0.810  0.00  0.00    +0.034 C 
BRANCH  36  37
ATOM     37  C   UNL     1      -4.646  -5.490  -1.845  0.00  0.00    +0.061 C 
ATOM     38  C   UNL     1      -5.514  -6.683  -1.441  0.00  0.00    +0.041 C 
ATOM     39  C   UNL     1      -5.511  -4.230  -1.912  0.00  0.00    +0.041 C 
BRANCH  37  40
ATOM     40  O   UNL     1      -4.064  -5.737  -3.127  0.00  0.00    -0.389 OA
ATOM     41  H   UNL     1      -3.501  -6.523  -3.158  0.00  0.00    +0.210 HD
ENDBRANCH  37  40
ENDBRANCH  36  37
ENDBRANCH  35  36
ENDBRANCH  34  35
ENDBRANCH  33  34
ENDBRANCH  28  33
ENDBRANCH   1  29
TORSDOF 10
