REMARK  Name = ZINC39664731
REMARK  9 active torsions:
REMARK  status: ('A' for Active; 'I' for Inactive)
REMARK    1  A    between atoms: C_1  and  C_2
REMARK    2  A    between atoms: C_6  and  C_9
REMARK    3  A    between atoms: C_13  and  C_22
REMARK    4  A    between atoms: N_24  and  C_25
REMARK    5  A    between atoms: C_25  and  C_27
REMARK    6  A    between atoms: C_25  and  C_31
REMARK    7  A    between atoms: C_27  and  N_28
REMARK    8  A    between atoms: N_28  and  C_29
REMARK    9  A    between atoms: N_28  and  C_30
REMARK                            x       y       z     vdW  Elec       q    Type
REMARK                         _______ _______ _______ _____ _____    ______ ____
ROOT
ATOM      1  C   UNL     1       0.241  -3.672   3.852  0.00  0.00    +0.251 C 
ATOM      2  O   UNL     1       1.193  -4.375   4.131  0.00  0.00    -0.270 OA
ATOM      3  N   UNL     1      -1.012  -4.139   4.017  0.00  0.00    -0.296 N 
ATOM      4  C   UNL     1      -2.287  -3.440   3.728  0.00  0.00    +0.121 C 
ATOM      5  C   UNL     1      -3.201  -4.529   3.123  0.00  0.00    +0.100 C 
ATOM      6  C   UNL     1      -2.633  -5.857   3.653  0.00  0.00    -0.004 C 
ATOM      7  C   UNL     1      -1.427  -5.470   4.521  0.00  0.00    +0.115 C 
ATOM      8  C   UNL     1      -3.680  -6.582   4.493  0.00  0.00    -0.010 C 
ATOM      9  C   UNL     1      -3.112  -7.925   4.959  0.00  0.00    -0.082 C 
ATOM     10  N   UNL     1      -2.746  -8.736   3.792  0.00  0.00    +0.379 N 
ATOM     11  C   UNL     1      -1.672  -8.075   3.040  0.00  0.00    -0.082 C 
ATOM     12  C   UNL     1      -2.179  -6.737   2.492  0.00  0.00    -0.010 C 
ATOM     13  H   UNL     1      -2.429  -9.643   4.100  0.00  0.00    -0.086 HD
ATOM     14  H   UNL     1      -3.552  -8.849   3.196  0.00  0.00    -0.086 HD
ENDROOT
BRANCH   1  20
ATOM     15  C   UNL     1       0.849   1.217   4.665  0.00  0.00    +0.047 C 
ATOM     16  C   UNL     1       0.752   0.049   3.718  0.00  0.00    -0.014 A 
ATOM     17  C   UNL     1       0.865   0.255   2.355  0.00  0.00    +0.007 A 
ATOM     18  C   UNL     1       0.776  -0.811   1.477  0.00  0.00    +0.021 A 
ATOM     19  C   UNL     1       0.574  -2.090   1.956  0.00  0.00    +0.056 A 
ATOM     20  C   UNL     1       0.458  -2.308   3.332  0.00  0.00    +0.091 A 
ATOM     21  C   UNL     1       0.554  -1.226   4.214  0.00  0.00    +0.140 A 
ATOM     22  F   UNL     1       0.449  -1.427   5.546  0.00  0.00    -0.204 F 
ATOM     23 CL   UNL     1       0.463  -3.425   0.852  0.00  0.00    -0.083 Cl
ENDBRANCH   1  20
BRANCH   5  24
ATOM     24  C   UNL     1      -4.621  -4.340   3.589  0.00  0.00    +0.219 C 
ATOM     25  O   UNL     1      -4.843  -3.843   4.673  0.00  0.00    -0.275 OA
ATOM     26  N   UNL     1      -5.646  -4.724   2.802  0.00  0.00    -0.310 N 
ATOM     27  H   UNL     1      -5.469  -5.184   1.966  0.00  0.00    +0.149 HD
BRANCH  26  28
ATOM     28  C   UNL     1      -7.026  -4.445   3.207  0.00  0.00    +0.087 C 
BRANCH  28  29
ATOM     29  C   UNL     1      -7.787  -5.741   3.321  0.00  0.00    -0.029 A 
ATOM     30  C   UNL     1      -7.585  -6.745   2.392  0.00  0.00    +0.005 A 
ATOM     31  C   UNL     1      -8.284  -7.933   2.497  0.00  0.00    +0.000 A 
ATOM     32  C   UNL     1      -9.183  -8.118   3.530  0.00  0.00    +0.000 A 
ATOM     33  C   UNL     1      -9.384  -7.114   4.459  0.00  0.00    +0.000 A 
ATOM     34  C   UNL     1      -8.683  -5.928   4.357  0.00  0.00    +0.005 A 
ENDBRANCH  28  29
BRANCH  28  35
ATOM     35  C   UNL     1      -7.694  -3.551   2.161  0.00  0.00    -0.052 C 
BRANCH  35  36
ATOM     36  N   UNL     1      -6.875  -2.351   1.947  0.00  0.00    +0.377 N 
ATOM     37  C   UNL     1      -7.428  -1.573   0.831  0.00  0.00    -0.097 C 
ATOM     38  C   UNL     1      -6.880  -1.531   3.166  0.00  0.00    -0.097 C 
ATOM     39  H   UNL     1      -5.928  -2.624   1.730  0.00  0.00    -0.083 HD
ENDBRANCH  35  36
ENDBRANCH  28  35
ENDBRANCH  26  28
ENDBRANCH   5  24
TORSDOF 6
