REMARK  Name = ZINC34923932
REMARK  13 active torsions:
REMARK  status: ('A' for Active; 'I' for Inactive)
REMARK    1  A    between atoms: C_1  and  C_2
REMARK    2  A    between atoms: C_3  and  C_33
REMARK    3  A    between atoms: C_4  and  C_25
REMARK    4  A    between atoms: C_7  and  C_12
REMARK    5  A    between atoms: C_13  and  N_15
REMARK    6  A    between atoms: N_15  and  C_16
REMARK    7  A    between atoms: C_16  and  C_17
REMARK    8  A    between atoms: C_17  and  C_18
REMARK    9  A    between atoms: C_18  and  N_19
REMARK   10  A    between atoms: C_29  and  O_31
REMARK   11  A    between atoms: O_31  and  C_32
REMARK   12  A    between atoms: C_33  and  O_35
REMARK   13  A    between atoms: O_35  and  C_36
REMARK                            x       y       z     vdW  Elec       q    Type
REMARK                         _______ _______ _______ _____ _____    ______ ____
ROOT
ATOM      1  C   UNL     1      -0.029   1.554   0.210  0.00  0.00    +0.066 C 
ATOM      2  C   UNL     1      -0.021   0.048   0.156  0.00  0.00    +0.053 C 
ATOM      3  C   UNL     1      -1.216  -0.645   0.142  0.00  0.00    +0.082 C 
ATOM      4  C   UNL     1      -1.155  -2.155   0.086  0.00  0.00    +0.150 C 
ATOM      5  N   UNL     1       0.195  -2.777   0.051  0.00  0.00    -0.267 N 
ATOM      6  C   UNL     1       0.488  -4.125  -0.001  0.00  0.00    +0.048 C 
ATOM      7  C   UNL     1       1.791  -4.484  -0.026  0.00  0.00    +0.072 C 
ATOM      8  S   UNL     1       2.609  -2.901   0.024  0.00  0.00    -0.060 S 
ATOM      9  C   UNL     1       1.254  -1.913   0.073  0.00  0.00    +0.166 C 
ATOM     10  N   UNL     1       1.131  -0.602   0.116  0.00  0.00    -0.230 NA
ENDROOT
BRANCH   4  11
ATOM     11  C   UNL     1      -1.905  -2.605  -1.141  0.00  0.00    -0.019 A 
ATOM     12  C   UNL     1      -1.342  -2.439  -2.393  0.00  0.00    +0.006 A 
ATOM     13  C   UNL     1      -2.026  -2.851  -3.522  0.00  0.00    +0.004 A 
ATOM     14  C   UNL     1      -3.276  -3.429  -3.401  0.00  0.00    +0.045 A 
ATOM     15  C   UNL     1      -3.842  -3.596  -2.146  0.00  0.00    +0.120 A 
ATOM     16  C   UNL     1      -3.150  -3.188  -1.014  0.00  0.00    +0.051 A 
BRANCH  15  17
ATOM     17  O   UNL     1      -5.071  -4.164  -2.024  0.00  0.00    -0.495 OA
ATOM     18  C   UNL     1      -5.722  -4.566  -3.231  0.00  0.00    +0.277 C 
ENDBRANCH  15  17
ENDBRANCH   4  11
BRANCH   6  19
ATOM     19  C   UNL     1      -0.579  -5.136  -0.027  0.00  0.00    +0.091 C 
ATOM     20  C   UNL     1      -0.272  -6.443   0.069  0.00  0.00    +0.239 C 
ATOM     21  O   UNL     1       1.005  -6.822   0.323  0.00  0.00    -0.271 OA
BRANCH  20  22
ATOM     22  N   UNL     1      -1.259  -7.401  -0.092  0.00  0.00    -0.312 N 
ATOM     23  H   UNL     1      -2.184  -7.130  -0.201  0.00  0.00    +0.149 HD
BRANCH  22  24
ATOM     24  C   UNL     1      -0.906  -8.823  -0.100  0.00  0.00    +0.106 C 
BRANCH  24  25
ATOM     25  C   UNL     1      -2.151  -9.655  -0.416  0.00  0.00    +0.038 C 
BRANCH  25  26
ATOM     26  C   UNL     1      -1.782 -11.140  -0.423  0.00  0.00    +0.109 C 
BRANCH  26  27
ATOM     27  N   UNL     1      -2.974 -11.937  -0.726  0.00  0.00    -0.301 N 
ATOM     28  C   UNL     1      -3.905 -12.452   0.285  0.00  0.00    +0.108 C 
ATOM     29  C   UNL     1      -5.187 -12.828  -0.489  0.00  0.00    +0.028 C 
ATOM     30  C   UNL     1      -4.631 -13.100  -1.906  0.00  0.00    +0.097 C 
ATOM     31  C   UNL     1      -3.358 -12.286  -1.966  0.00  0.00    +0.216 C 
ATOM     32  O   UNL     1      -2.767 -11.994  -2.984  0.00  0.00    -0.276 OA
ENDBRANCH  26  27
ENDBRANCH  25  26
ENDBRANCH  24  25
ENDBRANCH  22  24
ENDBRANCH  20  22
ENDBRANCH   6  19
BRANCH   3  33
ATOM     33  C   UNL     1      -2.443   0.029   0.178  0.00  0.00    +0.339 C 
ATOM     34  O   UNL     1      -2.469   1.246   0.223  0.00  0.00    -0.245 OA
BRANCH  33  35
ATOM     35  O   UNL     1      -3.599  -0.671   0.164  0.00  0.00    -0.465 OA
ATOM     36  C   UNL     1      -4.813   0.081   0.203  0.00  0.00    +0.280 C 
ENDBRANCH  33  35
ENDBRANCH   3  33
TORSDOF 10
