REMARK  Name = ZINC11866932
REMARK  8 active torsions:
REMARK  status: ('A' for Active; 'I' for Inactive)
REMARK    1  A    between atoms: C_1  and  C_2
REMARK    2  A    between atoms: C_3  and  C_32
REMARK    3  A    between atoms: C_11  and  O_14
REMARK    4  A    between atoms: C_12  and  C_13
REMARK    5  A    between atoms: O_14  and  C_15
REMARK    6  A    between atoms: C_15  and  C_17
REMARK    7  A    between atoms: C_15  and  C_18
REMARK    8  A    between atoms: C_23  and  O_31
REMARK                            x       y       z     vdW  Elec       q    Type
REMARK                         _______ _______ _______ _____ _____    ______ ____
ROOT
ATOM      1  C   UNL     1      -5.853   3.900   5.879  0.00  0.00    +0.256 C 
ATOM      2  C   UNL     1      -6.575   2.676   6.449  0.00  0.00    +0.062 C 
ENDROOT
BRANCH   1   3
ATOM      3  C   UNL     1      -6.329   5.140   6.590  0.00  0.00    +0.256 C 
ATOM      4  O   UNL     1      -5.623   5.672   7.421  0.00  0.00    -0.272 OA
ATOM      5  N   UNL     1      -7.540   5.658   6.303  0.00  0.00    -0.298 N 
ATOM      6  C   UNL     1      -8.450   4.969   5.378  0.00  0.00    +0.110 C 
ATOM      7  C   UNL     1      -9.800   4.771   6.074  0.00  0.00    +0.054 C 
ATOM      8  C   UNL     1     -10.319   6.123   6.572  0.00  0.00    +0.072 C 
ATOM      9  C   UNL     1     -11.681   5.925   7.239  0.00  0.00    +0.035 C 
ATOM     10  C   UNL     1     -12.205   7.270   7.745  0.00  0.00    +0.003 C 
ATOM     11  C   UNL     1     -11.220   7.848   8.764  0.00  0.00    +0.001 C 
ATOM     12  C   UNL     1      -9.859   8.051   8.096  0.00  0.00    +0.008 C 
ATOM     13  C   UNL     1      -9.333   6.707   7.587  0.00  0.00    +0.038 C 
ATOM     14  C   UNL     1      -7.978   6.921   6.913  0.00  0.00    +0.114 C 
BRANCH   8  15
ATOM     15  O   UNL     1     -10.454   7.018   5.466  0.00  0.00    -0.388 OA
ATOM     16  H   UNL     1     -11.068   6.711   4.785  0.00  0.00    +0.210 HD
ENDBRANCH   8  15
ENDBRANCH   1   3
BRANCH   1  17
ATOM     17  O   UNL     1      -4.444   3.753   6.069  0.00  0.00    -0.480 OA
BRANCH  17  28
ATOM     18  C   UNL     1      -2.376   0.147   1.068  0.00  0.00    +0.045 C 
ATOM     19  C   UNL     1      -1.659   0.845   2.195  0.00  0.00    -0.030 A 
ATOM     20  C   UNL     1      -0.306   0.788   2.302  0.00  0.00    +0.037 A 
ATOM     21  C   UNL     1       0.342   1.455   3.362  0.00  0.00    +0.340 A 
ATOM     22  O   UNL     1       1.556   1.399   3.444  0.00  0.00    -0.245 OA
ATOM     23  O   UNL     1      -0.344   2.150   4.282  0.00  0.00    -0.422 OA
ATOM     24  C   UNL     1      -1.691   2.243   4.236  0.00  0.00    +0.146 A 
ATOM     25  C   UNL     1      -2.402   1.601   3.205  0.00  0.00    +0.021 A 
ATOM     26  C   UNL     1      -3.797   1.694   3.154  0.00  0.00    +0.015 A 
ATOM     27  C   UNL     1      -4.465   2.409   4.106  0.00  0.00    +0.047 A 
ATOM     28  C   UNL     1      -3.766   3.046   5.130  0.00  0.00    +0.128 A 
ATOM     29  C   UNL     1      -2.385   2.965   5.195  0.00  0.00    +0.034 A 
ATOM     30  C   UNL     1      -1.639   3.659   6.306  0.00  0.00    +0.051 C 
ATOM     31  C   UNL     1       0.500   0.019   1.288  0.00  0.00    +0.051 C 
ENDBRANCH  17  28
ENDBRANCH   1  17
TORSDOF 4
