REMARK  Name = ZINC57387382
REMARK  7 active torsions:
REMARK  status: ('A' for Active; 'I' for Inactive)
REMARK    1  A    between atoms: N_9  and  C_10
REMARK    2  A    between atoms: C_10  and  C_11
REMARK    3  A    between atoms: C_11  and  C_12
REMARK    4  A    between atoms: C_12  and  N_13
REMARK    5  A    between atoms: C_14  and  C_16
REMARK    6  A    between atoms: C_16  and  N_17
REMARK    7  A    between atoms: C_18  and  C_20
REMARK                            x       y       z     vdW  Elec       q    Type
REMARK                         _______ _______ _______ _____ _____    ______ ____
ROOT
ATOM      1  N   UNL     1       7.314   0.263   2.746  0.00  0.00    -0.314 N 
ATOM      2  C   UNL     1       8.602   0.585   2.981  0.00  0.00    +0.230 C 
ATOM      3  O   UNL     1       9.379   0.692   2.055  0.00  0.00    -0.274 OA
ATOM      4  H   UNL     1       6.693   0.178   3.486  0.00  0.00    +0.149 HD
ENDROOT
BRANCH   1   5
ATOM      5  C   UNL     1       6.853   0.042   1.373  0.00  0.00    +0.106 C 
BRANCH   5   6
ATOM      6  C   UNL     1       5.363  -0.307   1.386  0.00  0.00    +0.040 C 
BRANCH   6   7
ATOM      7  C   UNL     1       4.881  -0.537  -0.048  0.00  0.00    +0.123 C 
BRANCH   7  16
ATOM      8  C   UNL     1      -0.017   1.362   0.009  0.00  0.00    +0.001 A 
ATOM      9  C   UNL     1       1.170   2.083   0.002  0.00  0.00    +0.002 A 
ATOM     10  C   UNL     1       2.386   1.436  -0.013  0.00  0.00    +0.026 A 
ATOM     11  C   UNL     1       2.428   0.046  -0.021  0.00  0.00    +0.049 A 
ATOM     12  C   UNL     1       1.223  -0.681  -0.013  0.00  0.00    -0.000 A 
ATOM     13  C   UNL     1       0.002  -0.004   0.002  0.00  0.00    +0.010 A 
ATOM     14  C   UNL     1       1.604  -2.095  -0.025  0.00  0.00    +0.027 A 
ATOM     15  C   UNL     1       2.945  -2.141  -0.038  0.00  0.00    +0.087 A 
ATOM     16  N   UNL     1       3.455  -0.871  -0.036  0.00  0.00    -0.347 N 
ENDBRANCH   7  16
ENDBRANCH   6   7
ENDBRANCH   5   6
ENDBRANCH   1   5
BRANCH   2  17
ATOM     17  C   UNL     1       9.076   0.812   4.393  0.00  0.00    +0.200 C 
BRANCH  17  18
ATOM     18  N   UNL     1      10.503   1.146   4.381  0.00  0.00    -0.303 N 
ATOM     19  C   UNL     1      11.147   1.392   5.539  0.00  0.00    +0.245 C 
ATOM     20  O   UNL     1      10.544   1.337   6.593  0.00  0.00    -0.270 OA
ATOM     21  H   UNL     1      10.983   1.190   3.540  0.00  0.00    +0.150 HD
BRANCH  19  22
ATOM     22  C   UNL     1      12.586   1.729   5.527  0.00  0.00    +0.050 A 
ATOM     23  C   UNL     1      13.280   1.799   4.317  0.00  0.00    +0.014 A 
ATOM     24  C   UNL     1      14.622   2.115   4.313  0.00  0.00    +0.001 A 
ATOM     25  C   UNL     1      15.282   2.361   5.504  0.00  0.00    +0.001 A 
ATOM     26  C   UNL     1      14.602   2.294   6.706  0.00  0.00    +0.015 A 
ATOM     27  C   UNL     1      13.256   1.985   6.725  0.00  0.00    +0.025 A 
ATOM     28  I   UNL     1      12.225   1.891   8.546  0.00  0.00    -0.043 I 
ENDBRANCH  19  22
ENDBRANCH  17  18
ENDBRANCH   2  17
TORSDOF 7
