REMARK  Name = ZINC38890111
REMARK  5 active torsions:
REMARK  status: ('A' for Active; 'I' for Inactive)
REMARK    1  A    between atoms: C_1  and  C_2
REMARK    2  A    between atoms: C_5  and  C_8
REMARK    3  A    between atoms: N_14  and  N_15
REMARK    4  A    between atoms: C_16  and  C_17
REMARK    5  A    between atoms: C_26  and  O_27
REMARK                            x       y       z     vdW  Elec       q    Type
REMARK                         _______ _______ _______ _____ _____    ______ ____
ROOT
ATOM      1  C   UNL     1       0.140  -4.419  -0.022  0.00  0.00    +0.264 C 
ATOM      2  N   UNL     1      -0.702  -4.792  -1.170  0.00  0.00    -0.189 NA
ATOM      3  N   UNL     1      -1.762  -5.249  -0.735  0.00  0.00    -0.219 N 
ATOM      4  C   UNL     1      -1.826  -5.266   0.623  0.00  0.00    +0.174 C 
ATOM      5  S   UNL     1      -3.159  -5.836   1.534  0.00  0.00    -0.015 S 
ATOM      6  N   UNL     1      -0.683  -4.768   1.151  0.00  0.00    -0.172 N 
ATOM      7  H   UNL     1      -2.480  -5.564  -1.306  0.00  0.00    +0.176 HD
ENDROOT
BRANCH   1  12
ATOM      8  C   UNL     1       1.266   1.248  -0.095  0.00  0.00    +0.044 C 
ATOM      9  C   UNL     1       0.972  -0.230  -0.076  0.00  0.00    -0.050 A 
ATOM     10  C   UNL     1       0.842  -0.923  -1.264  0.00  0.00    +0.004 A 
ATOM     11  C   UNL     1       0.573  -2.279  -1.247  0.00  0.00    +0.008 A 
ATOM     12  C   UNL     1       0.434  -2.941  -0.041  0.00  0.00    -0.002 A 
ATOM     13  C   UNL     1       0.565  -2.247   1.147  0.00  0.00    +0.008 A 
ATOM     14  C   UNL     1       0.839  -0.892   1.130  0.00  0.00    +0.004 A 
ENDBRANCH   1  12
BRANCH   6  15
ATOM     15  N   UNL     1      -0.354  -4.617   2.504  0.00  0.00    -0.183 NA
ATOM     16  C   UNL     1      -1.150  -5.080   3.423  0.00  0.00    +0.142 C 
BRANCH  16  17
ATOM     17  C   UNL     1      -0.889  -4.785   4.838  0.00  0.00    +0.044 A 
ATOM     18  C   UNL     1      -1.770  -5.303   5.884  0.00  0.00    -0.006 A 
ATOM     19  C   UNL     1      -2.884  -6.092   5.576  0.00  0.00    +0.009 A 
ATOM     20  C   UNL     1      -3.680  -6.556   6.580  0.00  0.00    +0.001 A 
ATOM     21  C   UNL     1      -3.401  -6.254   7.911  0.00  0.00    +0.001 A 
ATOM     22  C   UNL     1      -2.325  -5.489   8.246  0.00  0.00    +0.008 A 
ATOM     23  C   UNL     1      -1.482  -4.995   7.236  0.00  0.00    -0.017 A 
ATOM     24  C   UNL     1      -0.362  -4.202   7.543  0.00  0.00    +0.012 A 
ATOM     25  C   UNL     1       0.447  -3.729   6.559  0.00  0.00    +0.046 A 
ATOM     26  C   UNL     1       0.208  -4.010   5.214  0.00  0.00    +0.126 A 
BRANCH  26  27
ATOM     27  O   UNL     1       1.046  -3.521   4.264  0.00  0.00    -0.506 OA
ATOM     28  H   UNL     1       0.794  -2.650   3.928  0.00  0.00    +0.292 HD
ENDBRANCH  26  27
ENDBRANCH  16  17
ENDBRANCH   6  15
TORSDOF 4
