REMARK  Name = ZINC35056986
REMARK  10 active torsions:
REMARK  status: ('A' for Active; 'I' for Inactive)
REMARK    1  A    between atoms: C_1  and  C_2
REMARK    2  A    between atoms: C_2  and  C_4
REMARK    3  A    between atoms: C_2  and  O_7
REMARK    4  A    between atoms: O_7  and  C_8
REMARK    5  A    between atoms: C_10  and  N_36
REMARK    6  A    between atoms: C_12  and  O_25
REMARK    7  A    between atoms: C_20  and  C_23
REMARK    8  A    between atoms: C_20  and  C_24
REMARK    9  A    between atoms: O_25  and  C_26
REMARK   10  A    between atoms: C_37  and  C_39
REMARK                            x       y       z     vdW  Elec       q    Type
REMARK                         _______ _______ _______ _____ _____    ______ ____
ROOT
ATOM      1  C   UNL     1       2.223  -0.737   0.726  0.00  0.00    +0.177 C 
ATOM      2  C   UNL     1       2.979   0.496   1.235  0.00  0.00    +0.173 C 
ATOM      3  C   UNL     1       4.483   0.294   1.041  0.00  0.00    +0.331 C 
ATOM      4  O   UNL     1       4.905  -0.906   1.697  0.00  0.00    -0.332 OA
ATOM      5  C   UNL     1       4.264  -2.078   1.198  0.00  0.00    +0.179 C 
ATOM      6  C   UNL     1       2.755  -1.971   1.453  0.00  0.00    +0.183 C 
ATOM      7  O   UNL     1       2.124  -3.161   0.979  0.00  0.00    -0.341 OA
ATOM      8  C   UNL     1       2.616  -4.347   1.613  0.00  0.00    +0.165 C 
ATOM      9  O   UNL     1       4.026  -4.461   1.415  0.00  0.00    -0.347 OA
ATOM     10  C   UNL     1       4.783  -3.334   1.899  0.00  0.00    +0.197 C 
ATOM     11  C   UNL     1       2.318  -4.282   3.112  0.00  0.00    +0.074 C 
ATOM     12  C   UNL     1       1.918  -5.569   1.012  0.00  0.00    +0.074 C 
ENDROOT
BRANCH   2  13
ATOM     13  N   UNL     1       2.547   1.678   0.485  0.00  0.00    -0.304 N 
ATOM     14  C   UNL     1       2.624   2.900   1.050  0.00  0.00    +0.210 C 
ATOM     15  O   UNL     1       3.051   3.020   2.178  0.00  0.00    -0.276 OA
ATOM     16  C   UNL     1       2.178   4.116   0.279  0.00  0.00    +0.109 C 
ATOM     17  H   UNL     1       2.204   1.582  -0.417  0.00  0.00    +0.149 HD
ENDBRANCH   2  13
BRANCH   1  18
ATOM     18  O   UNL     1       0.827  -0.587   0.991  0.00  0.00    -0.358 OA
BRANCH  18  20
ATOM     19  C   UNL     1      -0.302  -0.153  -1.101  0.00  0.00    +0.050 C 
ATOM     20  C   UNL     1      -0.020  -1.175   0.002  0.00  0.00    +0.228 C 
BRANCH  20  21
ATOM     21  C   UNL     1      -1.318  -1.598   0.638  0.00  0.00    +0.384 C 
ATOM     22  O   UNL     1      -2.148  -2.207  -0.015  0.00  0.00    -0.243 OA
ATOM     23  O   UNL     1      -1.539  -1.332   1.808  0.00  0.00    -0.243 OA
ENDBRANCH  20  21
ENDBRANCH  18  20
ENDBRANCH   1  18
BRANCH   3  24
ATOM     24  O   UNL     1       4.772   0.195  -0.355  0.00  0.00    -0.462 OA
BRANCH  24  25
ATOM     25  C   UNL     1       6.082   0.118  -0.710  0.00  0.00    +0.125 A 
ATOM     26  C   UNL     1       7.067   0.131   0.281  0.00  0.00    +0.046 A 
ATOM     27  C   UNL     1       8.386   0.055  -0.043  0.00  0.00    +0.012 A 
ATOM     28  C   UNL     1       8.768  -0.040  -1.392  0.00  0.00    -0.018 A 
ATOM     29  C   UNL     1      10.121  -0.121  -1.762  0.00  0.00    +0.008 A 
ATOM     30  C   UNL     1      10.455  -0.212  -3.079  0.00  0.00    +0.001 A 
ATOM     31  C   UNL     1       9.475  -0.226  -4.069  0.00  0.00    +0.001 A 
ATOM     32  C   UNL     1       8.154  -0.149  -3.748  0.00  0.00    +0.008 A 
ATOM     33  C   UNL     1       7.770  -0.054  -2.399  0.00  0.00    -0.014 A 
ATOM     34  C   UNL     1       6.417   0.022  -2.031  0.00  0.00    +0.054 A 
ENDBRANCH  24  25
ENDBRANCH   3  24
TORSDOF 6
