REMARK  Name = ZINC39958080
REMARK  6 active torsions:
REMARK  status: ('A' for Active; 'I' for Inactive)
REMARK    1  A    between atoms: C_1  and  C_2
REMARK    2  A    between atoms: C_4  and  C_16
REMARK    3  A    between atoms: C_6  and  C_14
REMARK    4  A    between atoms: C_7  and  N_13
REMARK    5  A    between atoms: N_18  and  C_25
REMARK    6  A    between atoms: C_25  and  C_26
REMARK                            x       y       z     vdW  Elec       q    Type
REMARK                         _______ _______ _______ _____ _____    ______ ____
ROOT
ATOM      1  C   UNL     1      -2.755   0.867   0.756  0.00  0.00    -0.010 A 
ATOM      2  C   UNL     1      -2.322   1.282   1.957  0.00  0.00    +0.091 A 
ATOM      3  N   UNL     1      -2.712   2.576   2.172  0.00  0.00    -0.342 N 
ATOM      4  C   UNL     1      -3.424   3.037   1.087  0.00  0.00    +0.050 A 
ATOM      5  C   UNL     1      -3.477   1.988   0.150  0.00  0.00    +0.004 A 
ATOM      6  C   UNL     1      -4.139   2.173  -1.065  0.00  0.00    +0.010 A 
ATOM      7  C   UNL     1      -4.730   3.374  -1.339  0.00  0.00    +0.001 A 
ATOM      8  C   UNL     1      -4.677   4.413  -0.420  0.00  0.00    +0.002 A 
ATOM      9  C   UNL     1      -4.037   4.249   0.789  0.00  0.00    +0.026 A 
ENDROOT
BRANCH   1  13
ATOM     10  C   UNL     1      -0.018   1.503   0.010  0.00  0.00    +0.067 C 
ATOM     11  C   UNL     1       0.002  -0.004   0.002  0.00  0.00    +0.066 C 
ATOM     12  C   UNL     1      -1.064  -0.768   0.003  0.00  0.00    +0.030 C 
ATOM     13  C   UNL     1      -2.536  -0.493   0.145  0.00  0.00    +0.100 C 
ATOM     14  C   UNL     1      -3.065  -1.577   1.066  0.00  0.00    +0.098 C 
ATOM     15  C   UNL     1      -2.303  -2.628   1.436  0.00  0.00    +0.195 C 
ATOM     16  O   UNL     1      -1.023  -2.853   1.091  0.00  0.00    -0.448 OA
ATOM     17  C   UNL     1      -0.529  -2.198  -0.081  0.00  0.00    +0.343 C 
ATOM     18  N   UNL     1       0.921  -1.985  -0.028  0.00  0.00    -0.138 NA
ATOM     19  N   UNL     1       1.127  -0.765  -0.013  0.00  0.00    -0.155 NA
BRANCH  15  20
ATOM     20  N   UNL     1      -2.896  -3.562   2.247  0.00  0.00    -0.329 N 
ATOM     21  H   UNL     1      -3.818  -3.448   2.526  0.00  0.00    +0.145 HD
ATOM     22  H   UNL     1      -2.393  -4.337   2.542  0.00  0.00    +0.145 HD
ENDBRANCH  15  20
BRANCH  14  23
ATOM     23  C   UNL     1      -4.407  -1.482   1.556  0.00  0.00    +0.101 C 
ATOM     24  N   UNL     1      -5.472  -1.407   1.944  0.00  0.00    -0.191 NA
ENDBRANCH  14  23
ENDBRANCH   1  13
BRANCH   3  25
ATOM     25  C   UNL     1      -2.415   3.355   3.377  0.00  0.00    +0.157 C 
BRANCH  25  26
ATOM     26  C   UNL     1      -3.575   3.258   4.335  0.00  0.00    -0.028 A 
ATOM     27  C   UNL     1      -4.605   4.177   4.268  0.00  0.00    +0.005 A 
ATOM     28  C   UNL     1      -5.668   4.088   5.147  0.00  0.00    +0.000 A 
ATOM     29  C   UNL     1      -5.701   3.081   6.093  0.00  0.00    +0.000 A 
ATOM     30  C   UNL     1      -4.671   2.161   6.159  0.00  0.00    +0.000 A 
ATOM     31  C   UNL     1      -3.610   2.247   5.277  0.00  0.00    +0.005 A 
ENDBRANCH  25  26
ENDBRANCH   3  25
TORSDOF 5
