REMARK  Name = ZINC05345174
REMARK  9 active torsions:
REMARK  status: ('A' for Active; 'I' for Inactive)
REMARK    1  A    between atoms: C_1  and  C_2
REMARK    2  A    between atoms: C_2  and  N_54
REMARK    3  A    between atoms: C_3  and  C_4
REMARK    4  A    between atoms: C_3  and  N_54
REMARK    5  A    between atoms: C_5  and  C_6
REMARK    6  A    between atoms: C_5  and  N_54
REMARK    7  A    between atoms: C_6  and  N_7
REMARK    8  A    between atoms: C_13  and  C_23
REMARK    9  A    between atoms: C_18  and  O_22
REMARK                            x       y       z     vdW  Elec       q    Type
REMARK                         _______ _______ _______ _____ _____    ______ ____
ROOT
ATOM      1  N   UNL     1      -1.528   4.285  -3.397  0.00  0.00    -0.320 N 
ATOM      2  C   UNL     1      -1.318   5.593  -3.102  0.00  0.00    +0.204 A 
ATOM      3  N   UNL     1      -1.006   5.971  -1.909  0.00  0.00    -0.202 NA
ATOM      4  C   UNL     1      -0.866   5.104  -0.889  0.00  0.00    +0.229 A 
ATOM      5  C   UNL     1      -1.058   3.776  -1.099  0.00  0.00    +0.066 A 
ATOM      6  C   UNL     1      -1.404   3.338  -2.399  0.00  0.00    +0.115 A 
ATOM      7  C   UNL     1      -0.912   2.772   0.009  0.00  0.00    +0.091 C 
ATOM      8  C   UNL     1      -0.957   3.460   1.347  0.00  0.00    +0.007 A 
ATOM      9  C   UNL     1      -1.190   2.716   2.489  0.00  0.00    +0.012 A 
ATOM     10  C   UNL     1      -1.234   3.332   3.724  0.00  0.00    +0.046 A 
ATOM     11  C   UNL     1      -1.044   4.703   3.822  0.00  0.00    +0.120 A 
ATOM     12  C   UNL     1      -0.810   5.451   2.680  0.00  0.00    +0.092 A 
ATOM     13  C   UNL     1      -0.765   4.830   1.439  0.00  0.00    +0.138 A 
ATOM     14  O   UNL     1      -0.532   5.574   0.332  0.00  0.00    -0.437 OA
ATOM     15  H   UNL     1      -1.843   1.676  -3.515  0.00  0.00    +0.157 HD
ATOM     16  N   UNL     1      -1.593   2.026  -2.590  0.00  0.00    -0.384 N 
ATOM     17  H   UNL     1      -1.486   1.373  -1.805  0.00  0.00    +0.157 HD
ENDROOT
BRANCH   7  18
ATOM     18  C   UNL     1       0.405   2.055  -0.138  0.00  0.00    -0.035 A 
ATOM     19  C   UNL     1       1.589   2.769  -0.100  0.00  0.00    +0.006 A 
ATOM     20  C   UNL     1       2.797   2.113  -0.241  0.00  0.00    +0.020 A 
ATOM     21  C   UNL     1       2.822   0.741  -0.420  0.00  0.00    +0.041 A 
ATOM     22  C   UNL     1       1.637   0.027  -0.458  0.00  0.00    +0.020 A 
ATOM     23  C   UNL     1       0.430   0.684  -0.317  0.00  0.00    +0.006 A 
ATOM     24 CL   UNL     1       4.339  -0.084  -0.598  0.00  0.00    -0.084 Cl
ENDBRANCH   7  18
BRANCH  11  25
ATOM     25  O   UNL     1      -1.087   5.311   5.037  0.00  0.00    -0.507 OA
ATOM     26  H   UNL     1      -0.230   5.359   5.483  0.00  0.00    +0.292 HD
ENDBRANCH  11  25
BRANCH   1  27
ATOM     27  C   UNL     1      -1.881   3.881  -4.760  0.00  0.00    +0.106 C 
BRANCH  27  28
ATOM     28  C   UNL     1      -3.402   3.772  -4.881  0.00  0.00    -0.057 C 
BRANCH  28  29
ATOM     29  N   UNL     1      -3.744   3.385  -6.266  0.00  0.00    +0.380 N 
ATOM     30  H   UNL     1      -3.273   4.025  -6.917  0.00  0.00    -0.082 HD
BRANCH  29  32
ATOM     31  C   UNL     1      -3.976   1.018  -5.590  0.00  0.00    -0.017 C 
ATOM     32  C   UNL     1      -3.285   2.006  -6.533  0.00  0.00    -0.082 C 
ENDBRANCH  29  32
BRANCH  29  33
ATOM     33  C   UNL     1      -5.204   3.480  -6.472  0.00  0.00    -0.082 C 
ATOM     34  C   UNL     1      -5.493   3.434  -7.974  0.00  0.00    -0.017 C 
ENDBRANCH  29  33
ENDBRANCH  28  29
ENDBRANCH  27  28
ENDBRANCH   1  27
TORSDOF 7
