REMARK  Name = ZINC13031633
REMARK  8 active torsions:
REMARK  status: ('A' for Active; 'I' for Inactive)
REMARK    1  A    between atoms: C_1  and  N_2
REMARK    2  A    between atoms: N_2  and  C_3
REMARK    3  A    between atoms: C_4  and  N_19
REMARK    4  A    between atoms: N_5  and  C_12
REMARK    5  A    between atoms: C_12  and  C_13
REMARK    6  A    between atoms: C_20  and  C_22
REMARK    7  A    between atoms: C_22  and  N_56
REMARK    8  A    between atoms: C_26  and  C_28
REMARK                            x       y       z     vdW  Elec       q    Type
REMARK                         _______ _______ _______ _____ _____    ______ ____
ROOT
ATOM      1  C   UNL     1       3.704   5.428  -4.320  0.00  0.00    +0.139 A 
ATOM      2  C   UNL     1       4.417   4.682  -5.236  0.00  0.00    +0.128 A 
ATOM      3  N   UNL     1       5.205   5.328  -6.160  0.00  0.00    -0.276 N 
ATOM      4  C   UNL     1       5.279   6.671  -6.171  0.00  0.00    +0.331 A 
ATOM      5  O   UNL     1       5.982   7.224  -6.996  0.00  0.00    -0.246 OA
ATOM      6  N   UNL     1       4.591   7.415  -5.286  0.00  0.00    -0.273 N 
ATOM      7  H   UNL     1       4.667   8.412  -5.313  0.00  0.00    +0.173 HD
ATOM      8  C   UNL     1       3.801   6.832  -4.364  0.00  0.00    +0.277 A 
ATOM      9  O   UNL     1       3.177   7.515  -3.569  0.00  0.00    -0.266 OA
ENDROOT
BRANCH   1  11
ATOM     10  C   UNL     1       1.432   4.970  -3.406  0.00  0.00    +0.138 C 
ATOM     11  N   UNL     1       2.886   4.795  -3.360  0.00  0.00    -0.269 N 
ATOM     12  C   UNL     1       3.443   4.029  -2.399  0.00  0.00    +0.203 C 
ATOM     13  O   UNL     1       4.651   3.954  -2.307  0.00  0.00    -0.277 OA
BRANCH  12  14
ATOM     14  C   UNL     1       2.566   3.265  -1.442  0.00  0.00    +0.020 C 
BRANCH  14  19
ATOM     15  C   UNL     1       4.330   3.415   0.222  0.00  0.00    -0.077 C 
ATOM     16  C   UNL     1       4.474   2.788   1.631  0.00  0.00    -0.020 C 
ATOM     17  C   UNL     1       3.037   2.263   1.888  0.00  0.00    -0.012 C 
ATOM     18  C   UNL     1       2.582   1.796   0.489  0.00  0.00    -0.030 C 
ATOM     19  N   UNL     1       3.419   2.500  -0.495  0.00  0.00    +0.390 N 
ATOM     20  H   UNL     1       3.973   1.814  -1.022  0.00  0.00    -0.080 HD
BRANCH  18  21
ATOM     21  C   UNL     1       1.127   2.134   0.285  0.00  0.00    -0.024 A 
ATOM     22  C   UNL     1       0.110   1.326  -0.103  0.00  0.00    +0.009 A 
ATOM     23  C   UNL     1      -1.159   1.860  -0.231  0.00  0.00    +0.008 A 
ATOM     24  C   UNL     1      -1.350   3.173   0.046  0.00  0.00    +0.045 A 
ATOM     25  S   UNL     1       0.297   3.701   0.490  0.00  0.00    -0.103 S 
ENDBRANCH  18  21
ENDBRANCH  14  19
ENDBRANCH  12  14
ENDBRANCH   1  11
BRANCH   2  26
ATOM     26  N   UNL     1       4.341   3.310  -5.224  0.00  0.00    -0.343 N 
ATOM     27  H   UNL     1       3.709   2.864  -4.640  0.00  0.00    +0.144 HD
ATOM     28  H   UNL     1       4.921   2.788  -5.801  0.00  0.00    +0.144 HD
ENDBRANCH   2  26
BRANCH   3  29
ATOM     29  C   UNL     1       5.968   4.549  -7.138  0.00  0.00    +0.163 C 
BRANCH  29  30
ATOM     30  C   UNL     1       5.130   4.335  -8.373  0.00  0.00    -0.028 A 
ATOM     31  C   UNL     1       4.317   3.222  -8.473  0.00  0.00    +0.005 A 
ATOM     32  C   UNL     1       3.545   3.029  -9.603  0.00  0.00    +0.000 A 
ATOM     33  C   UNL     1       3.594   3.944 -10.638  0.00  0.00    +0.000 A 
ATOM     34  C   UNL     1       4.412   5.054 -10.541  0.00  0.00    +0.000 A 
ATOM     35  C   UNL     1       5.180   5.250  -9.408  0.00  0.00    +0.005 A 
ENDBRANCH  29  30
ENDBRANCH   3  29
TORSDOF 7
