REMARK  Name = ZINC54762847
REMARK  9 active torsions:
REMARK  status: ('A' for Active; 'I' for Inactive)
REMARK    1  A    between atoms: C_1  and  N_2
REMARK    2  A    between atoms: N_2  and  C_3
REMARK    3  A    between atoms: N_2  and  C_23
REMARK    4  A    between atoms: C_3  and  C_4
REMARK    5  A    between atoms: C_4  and  N_5
REMARK    6  A    between atoms: N_8  and  N_9
REMARK    7  A    between atoms: C_10  and  C_12
REMARK    8  A    between atoms: C_15  and  N_18
REMARK    9  A    between atoms: C_23  and  C_24
REMARK                            x       y       z     vdW  Elec       q    Type
REMARK                         _______ _______ _______ _____ _____    ______ ____
ROOT
ATOM      1  N   UNL     1       2.845  -0.526  -2.362  0.00  0.00    -0.300 N 
ATOM      2  C   UNL     1       4.155  -0.267  -2.537  0.00  0.00    +0.316 C 
ATOM      3  O   UNL     1       4.769   0.359  -1.695  0.00  0.00    -0.251 OA
ATOM      4  N   UNL     1       4.786  -0.701  -3.646  0.00  0.00    -0.218 N 
ATOM      5  H   UNL     1       2.355  -1.025  -3.035  0.00  0.00    +0.150 HD
ATOM      6  H   UNL     1       5.730  -0.515  -3.772  0.00  0.00    +0.174 HD
ENDROOT
BRANCH   4   7
ATOM      7  N   UNL     1       4.079  -1.423  -4.617  0.00  0.00    -0.229 N 
ATOM      8  C   UNL     1       4.710  -1.857  -5.726  0.00  0.00    +0.260 C 
ATOM      9  O   UNL     1       5.893  -1.623  -5.884  0.00  0.00    -0.269 OA
ATOM     10  H   UNL     1       3.136  -1.609  -4.491  0.00  0.00    +0.173 HD
BRANCH   8  11
ATOM     11  C   UNL     1       3.965  -2.618  -6.750  0.00  0.00    +0.038 A 
ATOM     12  C   UNL     1       2.605  -2.882  -6.573  0.00  0.00    +0.015 A 
ATOM     13  C   UNL     1       1.913  -3.592  -7.529  0.00  0.00    +0.028 A 
ATOM     14  C   UNL     1       2.567  -4.045  -8.670  0.00  0.00    +0.069 A 
ATOM     15  C   UNL     1       3.920  -3.784  -8.849  0.00  0.00    +0.028 A 
ATOM     16  C   UNL     1       4.617  -3.069  -7.899  0.00  0.00    +0.015 A 
BRANCH  14  17
ATOM     17  N   UNL     1       1.860  -4.766  -9.639  0.00  0.00    -0.200 N 
ATOM     18  C   UNL     1       2.342  -5.278 -10.793  0.00  0.00    +0.250 A 
ATOM     19  N   UNL     1       1.347  -5.873 -11.398  0.00  0.00    -0.116 NA
ATOM     20  N   UNL     1       0.270  -5.771 -10.707  0.00  0.00    -0.023 NA
ATOM     21  N   UNL     1       0.499  -5.117  -9.619  0.00  0.00    -0.039 NA
ENDBRANCH  14  17
ENDBRANCH   8  11
ENDBRANCH   4   7
BRANCH   1  22
ATOM     22  C   UNL     1       2.159  -0.053  -1.157  0.00  0.00    +0.087 C 
BRANCH  22  23
ATOM     23  C   UNL     1       0.690  -0.478  -1.207  0.00  0.00    -0.060 C 
BRANCH  23  25
ATOM     24  C   UNL     1      -0.018   1.465   0.010  0.00  0.00    -0.096 C 
ATOM     25  N   UNL     1       0.002  -0.004   0.002  0.00  0.00    +0.382 N 
ATOM     26  H   UNL     1       0.490  -0.338   0.820  0.00  0.00    -0.082 HD
BRANCH  25  27
ATOM     27  C   UNL     1      -1.376  -0.512   0.012  0.00  0.00    -0.043 C 
BRANCH  27  28
ATOM     28  C   UNL     1      -2.043  -0.130   1.309  0.00  0.00    -0.064 A 
ATOM     29  C   UNL     1      -1.964  -0.973   2.402  0.00  0.00    +0.002 A 
ATOM     30  C   UNL     1      -2.575  -0.622   3.591  0.00  0.00    +0.000 A 
ATOM     31  C   UNL     1      -3.266   0.572   3.687  0.00  0.00    +0.000 A 
ATOM     32  C   UNL     1      -3.344   1.415   2.594  0.00  0.00    +0.000 A 
ATOM     33  C   UNL     1      -2.729   1.066   1.406  0.00  0.00    +0.002 A 
ENDBRANCH  27  28
ENDBRANCH  25  27
ENDBRANCH  23  25
ENDBRANCH  22  23
ENDBRANCH   1  22
TORSDOF 8
