REMARK  Name = ZINC26837471
REMARK  7 active torsions:
REMARK  status: ('A' for Active; 'I' for Inactive)
REMARK    1  A    between atoms: C_1  and  C_2
REMARK    2  A    between atoms: C_2  and  C_3
REMARK    3  A    between atoms: C_2  and  C_4
REMARK    4  A    between atoms: C_2  and  C_5
REMARK    5  A    between atoms: C_11  and  N_13
REMARK    6  A    between atoms: N_13  and  S_14
REMARK    7  A    between atoms: S_14  and  C_17
REMARK                            x       y       z     vdW  Elec       q    Type
REMARK                         _______ _______ _______ _____ _____    ______ ____
ROOT
ATOM      1  S   UNL     1       3.018   0.814  -0.149  0.00  0.00    +0.059 S 
ATOM      2  O   UNL     1       4.076   1.639   0.316  0.00  0.00    -0.153 OA
ATOM      3  O   UNL     1       2.748  -0.465   0.409  0.00  0.00    -0.153 OA
ENDROOT
BRANCH   1   4
ATOM      4  C   UNL     1       1.537   1.755   0.010  0.00  0.00    +0.107 A 
ATOM      5  C   UNL     1       1.597   3.137   0.026  0.00  0.00    +0.032 A 
ATOM      6  C   UNL     1       0.440   3.884   0.150  0.00  0.00    +0.049 A 
ATOM      7  C   UNL     1      -0.784   3.246   0.258  0.00  0.00    +0.142 A 
ATOM      8  C   UNL     1      -0.845   1.853   0.236  0.00  0.00    +0.078 A 
ATOM      9  C   UNL     1       0.318   1.111   0.117  0.00  0.00    +0.055 A 
ATOM     10  N   UNL     1      -2.090   1.220   0.354  0.00  0.00    -0.280 N 
ATOM     11  C   UNL     1      -3.213   1.944   0.158  0.00  0.00    +0.255 C 
ATOM     12  O   UNL     1      -4.302   1.425   0.280  0.00  0.00    -0.272 OA
ATOM     13  C   UNL     1      -3.107   3.402  -0.213  0.00  0.00    +0.325 C 
ATOM     14  O   UNL     1      -1.932   3.964   0.378  0.00  0.00    -0.481 OA
ATOM     15  H   UNL     1      -2.141   0.149   0.602  0.00  0.00    +0.155 HD
ENDBRANCH   1   4
BRANCH   1  16
ATOM     16  N   UNL     1       3.277   0.578  -1.767  0.00  0.00    -0.187 NA
ATOM     17  H   UNL     1       3.074  -0.410  -2.206  0.00  0.00    +0.148 HD
BRANCH  16  23
ATOM     18  C   UNL     1       2.930   1.484  -4.012  0.00  0.00    +0.013 C 
ATOM     19  C   UNL     1       3.226   2.679  -4.922  0.00  0.00    +0.005 C 
ATOM     20  C   UNL     1       4.739   2.841  -5.075  0.00  0.00    +0.000 C 
ATOM     21  C   UNL     1       5.368   3.079  -3.701  0.00  0.00    +0.002 C 
ATOM     22  C   UNL     1       5.073   1.884  -2.792  0.00  0.00    +0.020 C 
ATOM     23  C   UNL     1       3.560   1.722  -2.638  0.00  0.00    +0.080 C 
BRANCH  18  25
ATOM     24  C   UNL     1       0.847   2.530  -3.112  0.00  0.00    +0.011 C 
ATOM     25  C   UNL     1       1.417   1.322  -3.859  0.00  0.00    -0.033 C 
ATOM     26  C   UNL     1       0.771   1.227  -5.243  0.00  0.00    +0.011 C 
ATOM     27  C   UNL     1       1.119   0.046  -3.068  0.00  0.00    +0.011 C 
ENDBRANCH  18  25
ENDBRANCH  16  23
ENDBRANCH   1  16
TORSDOF 4
