REMARK  Name = ZINC39450113
REMARK  5 active torsions:
REMARK  status: ('A' for Active; 'I' for Inactive)
REMARK    1  A    between atoms: C_1  and  S_2
REMARK    2  A    between atoms: S_2  and  C_3
REMARK    3  A    between atoms: N_19  and  S_20
REMARK    4  A    between atoms: S_20  and  O_23
REMARK    5  A    between atoms: O_23  and  C_24
REMARK                            x       y       z     vdW  Elec       q    Type
REMARK                         _______ _______ _______ _____ _____    ______ ____
ROOT
ATOM      1  C   UNL     1      -1.548  -0.386   0.025  0.00  0.00    +0.136 C 
ATOM      2  C   UNL     1      -1.791  -1.516  -0.982  0.00  0.00    +0.114 C 
ATOM      3  C   UNL     1      -1.694  -0.967  -2.381  0.00  0.00    +0.186 C 
ATOM      4  O   UNL     1      -1.317  -1.687  -3.285  0.00  0.00    -0.290 OA
ATOM      5  C   UNL     1      -2.038   0.377  -2.654  0.00  0.00    +0.137 A 
ATOM      6  C   UNL     1      -2.411   1.213  -1.618  0.00  0.00    +0.084 A 
ATOM      7  C   UNL     1      -2.776   2.608  -1.902  0.00  0.00    +0.099 A 
ATOM      8  C   UNL     1      -2.721   3.052  -3.241  0.00  0.00    +0.070 A 
ATOM      9  C   UNL     1      -3.061   4.372  -3.536  0.00  0.00    +0.037 A 
ATOM     10  C   UNL     1      -3.442   5.195  -2.488  0.00  0.00    +0.060 A 
ATOM     11  C   UNL     1      -3.473   4.688  -1.195  0.00  0.00    +0.131 A 
ATOM     12  N   UNL     1      -3.147   3.439  -0.938  0.00  0.00    -0.251 NA
ATOM     13 CL   UNL     1      -3.877   6.848  -2.789  0.00  0.00    -0.082 Cl
ATOM     14  C   UNL     1      -2.306   2.106  -4.287  0.00  0.00    +0.283 A 
ATOM     15  O   UNL     1      -2.249   2.469  -5.448  0.00  0.00    -0.265 OA
ATOM     16  N   UNL     1      -1.988   0.840  -3.962  0.00  0.00    -0.141 N 
ATOM     17  N   UNL     1      -2.434   0.737  -0.321  0.00  0.00    -0.328 N 
ATOM     18  H   UNL     1      -3.020   1.131   0.345  0.00  0.00    +0.147 HD
ENDROOT
BRANCH  16  19
ATOM     19  S   UNL     1      -1.522  -0.202  -5.162  0.00  0.00    +0.224 S 
ATOM     20  O   UNL     1      -1.737   0.475  -6.393  0.00  0.00    -0.113 OA
ATOM     21  O   UNL     1      -0.251  -0.713  -4.786  0.00  0.00    -0.113 OA
BRANCH  19  22
ATOM     22  O   UNL     1      -2.488  -1.377  -5.138  0.00  0.00    -0.329 OA
BRANCH  22  23
ATOM     23  C   UNL     1      -3.712  -1.097  -5.659  0.00  0.00    +0.158 A 
ATOM     24  C   UNL     1      -4.721  -0.611  -4.839  0.00  0.00    +0.048 A 
ATOM     25  C   UNL     1      -5.964  -0.327  -5.370  0.00  0.00    +0.004 A 
ATOM     26  C   UNL     1      -6.204  -0.527  -6.717  0.00  0.00    +0.000 A 
ATOM     27  C   UNL     1      -5.201  -1.013  -7.536  0.00  0.00    +0.004 A 
ATOM     28  C   UNL     1      -3.954  -1.292  -7.011  0.00  0.00    +0.048 A 
ENDBRANCH  22  23
ENDBRANCH  19  22
ENDBRANCH  16  19
BRANCH   1  30
ATOM     29  C   UNL     1       0.079   1.962  -0.081  0.00  0.00    +0.086 C 
ATOM     30  S   UNL     1       0.182   0.151  -0.063  0.00  0.00    -0.142 S 
ENDBRANCH   1  30
TORSDOF 4
