REMARK  Name = ZINC61079616
REMARK  6 active torsions:
REMARK  status: ('A' for Active; 'I' for Inactive)
REMARK    1  A    between atoms: N_3  and  C_6
REMARK    2  A    between atoms: C_6  and  C_7
REMARK    3  A    between atoms: C_7  and  C_8
REMARK    4  A    between atoms: C_8  and  N_9
REMARK    5  A    between atoms: C_10  and  C_12
REMARK    6  A    between atoms: C_14  and  N_20
REMARK                            x       y       z     vdW  Elec       q    Type
REMARK                         _______ _______ _______ _____ _____    ______ ____
ROOT
ATOM      1  N   UNL     1       6.075   0.589   2.771  0.00  0.00    -0.311 N 
ATOM      2  C   UNL     1       7.403   0.570   3.005  0.00  0.00    +0.245 C 
ATOM      3  O   UNL     1       8.184   0.564   2.073  0.00  0.00    -0.270 OA
ATOM      4  H   UNL     1       5.452   0.594   3.514  0.00  0.00    +0.149 HD
ENDROOT
BRANCH   2   5
ATOM      5  C   UNL     1       7.908   0.555   4.392  0.00  0.00    +0.053 A 
ATOM      6  C   UNL     1       7.013   0.556   5.464  0.00  0.00    +0.039 A 
ATOM      7  C   UNL     1       7.493   0.542   6.762  0.00  0.00    +0.061 A 
ATOM      8  C   UNL     1       8.866   0.528   6.997  0.00  0.00    +0.145 A 
ATOM      9  C   UNL     1       9.754   0.527   5.935  0.00  0.00    +0.056 A 
ATOM     10  C   UNL     1       9.284   0.535   4.636  0.00  0.00    +0.033 A 
ATOM     11 BR   UNL     1      10.501   0.526   3.190  0.00  0.00    -0.049 Br
ATOM     12  F   UNL     1       9.332   0.514   8.264  0.00  0.00    -0.204 F 
BRANCH   7  13
ATOM     13  N   UNL     1       6.599   0.543   7.838  0.00  0.00    -0.356 N 
ATOM     14  H   UNL     1       5.643   0.554   7.675  0.00  0.00    +0.142 HD
ATOM     15  H   UNL     1       6.936   0.534   8.748  0.00  0.00    +0.142 HD
ENDBRANCH   7  13
ENDBRANCH   2   5
BRANCH   1  16
ATOM     16  C   UNL     1       5.574   0.603   1.395  0.00  0.00    +0.106 C 
BRANCH  16  17
ATOM     17  C   UNL     1       4.044   0.624   1.409  0.00  0.00    +0.040 C 
BRANCH  17  18
ATOM     18  C   UNL     1       3.521   0.638  -0.028  0.00  0.00    +0.124 C 
BRANCH  18  21
ATOM     19  C   UNL     1      -0.016   1.337   0.009  0.00  0.00    +0.101 A 
ATOM     20  C   UNL     1       1.259   1.771  -0.000  0.00  0.00    +0.104 A 
ATOM     21  N   UNL     1       2.056   0.658  -0.014  0.00  0.00    -0.338 N 
ATOM     22  C   UNL     1       1.240  -0.418  -0.012  0.00  0.00    +0.173 A 
ATOM     23  N   UNL     1       0.002  -0.004   0.002  0.00  0.00    -0.352 N 
ATOM     24  H   UNL     1      -0.781  -0.576   0.007  0.00  0.00    +0.166 HD
ENDBRANCH  18  21
ENDBRANCH  17  18
ENDBRANCH  16  17
ENDBRANCH   1  16
TORSDOF 6
