REMARK  Name = ZINC62013179
REMARK  8 active torsions:
REMARK  status: ('A' for Active; 'I' for Inactive)
REMARK    1  A    between atoms: C_1  and  C_2
REMARK    2  A    between atoms: C_2  and  C_4
REMARK    3  A    between atoms: C_2  and  N_11
REMARK    4  A    between atoms: N_11  and  C_12
REMARK    5  A    between atoms: N_11  and  C_13
REMARK    6  A    between atoms: C_13  and  C_15
REMARK    7  A    between atoms: C_13  and  C_17
REMARK    8  A    between atoms: C_15  and  N_16
REMARK                            x       y       z     vdW  Elec       q    Type
REMARK                         _______ _______ _______ _____ _____    ______ ____
ROOT
ATOM      1  C   UNL     1      -0.105  -0.159  -2.522  0.00  0.00    +0.106 C 
ENDROOT
BRANCH   1   2
ATOM      2  C   UNL     1      -0.017  -1.328  -3.469  0.00  0.00    +0.123 A 
ATOM      3  C   UNL     1      -0.978  -1.723  -4.322  0.00  0.00    +0.062 A 
ATOM      4  C   UNL     1      -0.476  -2.851  -5.012  0.00  0.00    +0.070 A 
ATOM      5  C   UNL     1       0.764  -3.078  -4.538  0.00  0.00    +0.184 A 
ATOM      6  O   UNL     1       1.038  -2.149  -3.607  0.00  0.00    -0.450 OA
ATOM      7 BR   UNL     1       1.924  -4.464  -5.093  0.00  0.00    -0.007 Br
ATOM      8 BR   UNL     1      -1.374  -3.850  -6.343  0.00  0.00    -0.046 Br
ENDBRANCH   1   2
BRANCH   1   9
ATOM      9  N   UNL     1       0.515  -0.519  -1.240  0.00  0.00    -0.291 NA
ATOM     10  C   UNL     1       1.979  -0.421  -1.317  0.00  0.00    +0.106 C 
BRANCH   9  12
ATOM     11  C   UNL     1       0.698  -0.051   1.157  0.00  0.00    +0.029 C 
ATOM     12  C   UNL     1      -0.011   0.312  -0.149  0.00  0.00    +0.084 C 
BRANCH  12  13
ATOM     13  C   UNL     1      -1.491   0.068  -0.001  0.00  0.00    -0.030 A 
ATOM     14  C   UNL     1      -1.982  -1.224  -0.006  0.00  0.00    +0.006 A 
ATOM     15  C   UNL     1      -3.340  -1.448   0.130  0.00  0.00    +0.020 A 
ATOM     16  C   UNL     1      -4.206  -0.379   0.270  0.00  0.00    +0.041 A 
ATOM     17  C   UNL     1      -3.714   0.914   0.276  0.00  0.00    +0.020 A 
ATOM     18  C   UNL     1      -2.356   1.137   0.145  0.00  0.00    +0.006 A 
ATOM     19 CL   UNL     1      -5.911  -0.659   0.440  0.00  0.00    -0.084 Cl
ENDBRANCH  12  13
ENDBRANCH   9  12
ENDBRANCH   1   9
BRANCH   1  20
ATOM     20  C   UNL     1       0.629   1.041  -3.124  0.00  0.00    -0.059 C 
BRANCH  20  21
ATOM     21  N   UNL     1       0.583   2.167  -2.182  0.00  0.00    +0.379 N 
ATOM     22  H   UNL     1       0.883   3.009  -2.649  0.00  0.00    -0.090 HD
ATOM     23  H   UNL     1      -0.362   2.287  -1.847  0.00  0.00    -0.090 HD
ATOM     24  H   UNL     1       1.194   1.979  -1.402  0.00  0.00    -0.090 HD
ENDBRANCH  20  21
ENDBRANCH   1  20
TORSDOF 6
