REMARK  Name = ZINC34806424
REMARK  6 active torsions:
REMARK  status: ('A' for Active; 'I' for Inactive)
REMARK    1  A    between atoms: C_1  and  N_2
REMARK    2  A    between atoms: C_5  and  C_9
REMARK    3  A    between atoms: C_5  and  C_15
REMARK    4  A    between atoms: C_19  and  C_21
REMARK    5  A    between atoms: C_25  and  O_27
REMARK    6  A    between atoms: O_27  and  C_28
REMARK                            x       y       z     vdW  Elec       q    Type
REMARK                         _______ _______ _______ _____ _____    ______ ____
ROOT
ATOM      1  C   UNL     1      -0.953  -3.131  -1.155  0.00  0.00    -0.010 A 
ATOM      2  C   UNL     1      -2.118  -3.877  -1.122  0.00  0.00    +0.006 A 
ATOM      3  C   UNL     1      -2.434  -4.721  -2.172  0.00  0.00    +0.001 A 
ATOM      4  C   UNL     1      -1.588  -4.823  -3.258  0.00  0.00    +0.008 A 
ATOM      5  C   UNL     1      -0.414  -4.074  -3.295  0.00  0.00    -0.017 A 
ATOM      6  C   UNL     1      -0.103  -3.221  -2.238  0.00  0.00    +0.015 A 
ENDROOT
BRANCH   1  11
ATOM      7  C   UNL     1      -2.173   1.154   0.297  0.00  0.00    +0.141 C 
ATOM      8  N   UNL     1      -1.350  -0.043   0.107  0.00  0.00    -0.245 N 
ATOM      9  C   UNL     1      -1.784  -1.303   0.302  0.00  0.00    +0.254 C 
ATOM     10  O   UNL     1      -2.893  -1.641   0.657  0.00  0.00    -0.272 OA
ATOM     11  C   UNL     1      -0.616  -2.214  -0.008  0.00  0.00    +0.162 C 
ATOM     12  N   UNL     1       0.473  -1.298  -0.385  0.00  0.00    -0.296 N 
ATOM     13  C   UNL     1      -0.038  -0.026  -0.299  0.00  0.00    +0.183 C 
ATOM     14  N   UNL     1       0.635   1.056  -0.565  0.00  0.00    -0.272 NA
ATOM     15  H   UNL     1       1.561   0.994  -0.848  0.00  0.00    +0.189 HD
ATOM     16  H   UNL     1       1.374  -1.544  -0.647  0.00  0.00    +0.150 HD
BRANCH  11  17
ATOM     17  C   UNL     1      -0.233  -3.012   1.212  0.00  0.00    -0.008 A 
ATOM     18  C   UNL     1       1.088  -3.083   1.628  0.00  0.00    +0.026 A 
ATOM     19  C   UNL     1       1.402  -3.825   2.751  0.00  0.00    +0.111 A 
ATOM     20  N   UNL     1       0.462  -4.461   3.423  0.00  0.00    -0.263 NA
ATOM     21  C   UNL     1      -0.804  -4.416   3.056  0.00  0.00    +0.111 A 
ATOM     22  C   UNL     1      -1.193  -3.689   1.947  0.00  0.00    +0.026 A 
ENDBRANCH  11  17
ENDBRANCH   1  11
BRANCH   5  23
ATOM     23  C   UNL     1       0.500  -4.179  -4.460  0.00  0.00    -0.014 A 
ATOM     24  C   UNL     1       1.677  -3.434  -4.495  0.00  0.00    +0.009 A 
ATOM     25  C   UNL     1       2.525  -3.534  -5.579  0.00  0.00    +0.004 A 
ATOM     26  C   UNL     1       2.211  -4.372  -6.633  0.00  0.00    +0.046 A 
ATOM     27  C   UNL     1       1.040  -5.117  -6.606  0.00  0.00    +0.131 A 
ATOM     28  C   UNL     1       0.186  -5.028  -5.519  0.00  0.00    +0.054 A 
BRANCH  27  29
ATOM     29  O   UNL     1       0.735  -5.939  -7.644  0.00  0.00    -0.406 OA
BRANCH  29  30
ATOM     30  C   UNL     1       1.663  -5.987  -8.729  0.00  0.00    +0.575 C 
ATOM     31  F   UNL     1       2.907  -6.421  -8.260  0.00  0.00    -0.133 F 
ATOM     32  F   UNL     1       1.196  -6.875  -9.704  0.00  0.00    -0.133 F 
ATOM     33  F   UNL     1       1.795  -4.710  -9.287  0.00  0.00    -0.133 F 
ENDBRANCH  29  30
ENDBRANCH  27  29
ENDBRANCH   5  23
TORSDOF 5
