REMARK  Name = ZINC36272615
REMARK  9 active torsions:
REMARK  status: ('A' for Active; 'I' for Inactive)
REMARK    1  A    between atoms: C_1  and  C_2
REMARK    2  A    between atoms: N_5  and  C_11
REMARK    3  A    between atoms: C_7  and  C_10
REMARK    4  A    between atoms: C_11  and  C_12
REMARK    5  A    between atoms: C_13  and  C_22
REMARK    6  A    between atoms: C_18  and  N_21
REMARK    7  A    between atoms: C_25  and  C_28
REMARK    8  A    between atoms: C_28  and  C_29
REMARK    9  A    between atoms: C_28  and  C_30
REMARK                            x       y       z     vdW  Elec       q    Type
REMARK                         _______ _______ _______ _____ _____    ______ ____
ROOT
ATOM      1  C   UNL     1       4.165   0.251  -2.446  0.00  0.00    +0.065 A 
ATOM      2  C   UNL     1       4.473   1.388  -3.131  0.00  0.00    +0.094 A 
ATOM      3  N   UNL     1       5.784   1.630  -2.978  0.00  0.00    -0.227 NA
ATOM      4  C   UNL     1       6.314   0.682  -2.217  0.00  0.00    +0.139 A 
ATOM      5  N   UNL     1       5.319  -0.193  -1.866  0.00  0.00    -0.300 N 
ATOM      6  C   UNL     1       5.593  -1.272  -1.071  0.00  0.00    +0.115 A 
ATOM      7  C   UNL     1       6.851  -1.490  -0.617  0.00  0.00    +0.041 A 
ATOM      8  C   UNL     1       7.892  -0.604  -0.961  0.00  0.00    +0.028 A 
ATOM      9  C   UNL     1       7.629   0.466  -1.757  0.00  0.00    +0.048 A 
ENDROOT
BRANCH   2  10
ATOM     10  C   UNL     1       3.522   2.217  -3.914  0.00  0.00    +0.002 A 
ATOM     11  C   UNL     1       2.255   2.495  -3.405  0.00  0.00    +0.010 A 
ATOM     12  C   UNL     1       1.375   3.266  -4.137  0.00  0.00    +0.004 A 
ATOM     13  C   UNL     1       1.748   3.762  -5.373  0.00  0.00    -0.045 A 
ATOM     14  C   UNL     1       3.005   3.489  -5.883  0.00  0.00    +0.004 A 
ATOM     15  C   UNL     1       3.896   2.724  -5.157  0.00  0.00    +0.010 A 
BRANCH  13  16
ATOM     16  C   UNL     1       0.783   4.603  -6.168  0.00  0.00    +0.013 C 
ATOM     17  C   UNL     1       1.392   5.985  -6.413  0.00  0.00    +0.012 C 
ATOM     18  C   UNL     1       0.500   3.925  -7.510  0.00  0.00    +0.012 C 
ENDBRANCH  13  16
ENDBRANCH   2  10
BRANCH   7  19
ATOM     19  N   UNL     1       7.118  -2.599   0.197  0.00  0.00    -0.357 N 
ATOM     20  H   UNL     1       6.403  -3.210   0.434  0.00  0.00    +0.142 HD
ATOM     21  H   UNL     1       8.018  -2.757   0.522  0.00  0.00    +0.142 HD
ENDBRANCH   7  19
BRANCH   1  22
ATOM     22  C   UNL     1       2.806  -0.392  -2.344  0.00  0.00    +0.140 C 
BRANCH  22  26
ATOM     23  C   UNL     1      -0.069   1.969  -0.286  0.00  0.00    +0.039 C 
ATOM     24  C   UNL     1      -0.080   0.453  -0.075  0.00  0.00    +0.130 C 
ATOM     25  C   UNL     1       0.662  -0.229  -1.227  0.00  0.00    +0.116 C 
ATOM     26  N   UNL     1       2.070   0.197  -1.217  0.00  0.00    -0.292 NA
ATOM     27  C   UNL     1       2.707  -0.142   0.064  0.00  0.00    +0.116 C 
ATOM     28  C   UNL     1       1.944   0.539   1.203  0.00  0.00    +0.130 C 
ATOM     29  O   UNL     1       0.572   0.138   1.159  0.00  0.00    -0.371 OA
ATOM     30  C   UNL     1       2.555   0.128   2.544  0.00  0.00    +0.039 C 
ENDBRANCH  22  26
ENDBRANCH   1  22
TORSDOF 5
