REMARK  Name = ZINC64137043
REMARK  9 active torsions:
REMARK  status: ('A' for Active; 'I' for Inactive)
REMARK    1  A    between atoms: C_1  and  C_2
REMARK    2  A    between atoms: C_2  and  O_3
REMARK    3  A    between atoms: O_3  and  C_4
REMARK    4  A    between atoms: C_4  and  C_6
REMARK    5  A    between atoms: C_6  and  C_7
REMARK    6  A    between atoms: C_12  and  C_14
REMARK    7  A    between atoms: C_16  and  O_33
REMARK    8  A    between atoms: N_24  and  C_27
REMARK    9  A    between atoms: C_27  and  C_28
REMARK                            x       y       z     vdW  Elec       q    Type
REMARK                         _______ _______ _______ _____ _____    ______ ____
ROOT
ATOM      1  C   UNL     1      -0.618  -9.046  -2.683  0.00  0.00    +0.226 C 
ATOM      2  C   UNL     1      -0.815 -10.435  -2.108  0.00  0.00    +0.116 C 
ATOM      3  C   UNL     1      -0.121 -10.732  -1.005  0.00  0.00    -0.011 C 
ATOM      4  C   UNL     1      -0.222 -12.120  -0.448  0.00  0.00    +0.036 C 
ATOM      5  C   UNL     1       0.377 -12.178   0.958  0.00  0.00    +0.005 C 
ATOM      6  C   UNL     1       1.768 -11.529   0.897  0.00  0.00    +0.002 C 
ATOM      7  C   UNL     1       1.579 -10.021   0.756  0.00  0.00    +0.027 C 
ATOM      8  C   UNL     1       0.752  -9.657  -0.446  0.00  0.00    +0.106 C 
ATOM      9  N   UNL     1       1.546  -9.056  -1.523  0.00  0.00    -0.286 N 
ATOM     10  C   UNL     1       0.868  -8.742  -2.667  0.00  0.00    +0.236 C 
ATOM     11  O   UNL     1       1.426  -8.245  -3.622  0.00  0.00    -0.274 OA
ENDROOT
BRANCH   1  17
ATOM     12  C   UNL     1      -2.744  -3.738  -0.711  0.00  0.00    +0.061 A 
ATOM     13  C   UNL     1      -3.383  -4.368   0.305  0.00  0.00    +0.072 A 
ATOM     14  S   UNL     1      -2.925  -6.064  -0.014  0.00  0.00    -0.060 S 
ATOM     15  C   UNL     1      -1.985  -5.797  -1.384  0.00  0.00    +0.165 A 
ATOM     16  N   UNL     1      -1.305  -6.728  -2.161  0.00  0.00    -0.264 N 
ATOM     17  C   UNL     1      -1.355  -8.037  -1.841  0.00  0.00    +0.238 C 
ATOM     18  O   UNL     1      -1.993  -8.401  -0.876  0.00  0.00    -0.274 OA
ATOM     19  N   UNL     1      -2.053  -4.493  -1.545  0.00  0.00    -0.229 NA
ATOM     20  H   UNL     1      -0.795  -6.436  -2.932  0.00  0.00    +0.157 HD
BRANCH  12  21
ATOM     21  C   UNL     1      -2.824  -2.243  -0.884  0.00  0.00    +0.176 C 
BRANCH  21  22
ATOM     22  C   UNL     1      -1.431  -1.668  -0.935  0.00  0.00    +0.313 C 
ATOM     23  O   UNL     1      -0.473  -2.398  -0.841  0.00  0.00    -0.250 OA
BRANCH  22  24
ATOM     24  O   UNL     1      -1.256  -0.346  -1.086  0.00  0.00    -0.465 OA
BRANCH  24  26
ATOM     25  C   UNL     1       0.090   1.649  -1.302  0.00  0.00    +0.048 C 
ATOM     26  C   UNL     1       0.091   0.129  -1.126  0.00  0.00    +0.229 C 
ENDBRANCH  24  26
ENDBRANCH  22  24
ENDBRANCH  21  22
ENDBRANCH  12  21
ENDBRANCH   1  17
BRANCH   2  27
ATOM     27  O   UNL     1      -1.655 -11.332  -2.684  0.00  0.00    -0.510 OA
ATOM     28  H   UNL     1      -2.100 -11.002  -3.476  0.00  0.00    +0.292 HD
ENDBRANCH   2  27
BRANCH   9  29
ATOM     29  C   UNL     1       2.982  -8.807  -1.381  0.00  0.00    +0.182 C 
BRANCH  29  30
ATOM     30  C   UNL     1       3.198  -7.447  -0.768  0.00  0.00    +0.122 A 
ATOM     31  C   UNL     1       3.295  -7.183   0.548  0.00  0.00    +0.046 A 
ATOM     32  C   UNL     1       3.493  -5.789   0.673  0.00  0.00    +0.041 A 
ATOM     33  C   UNL     1       3.505  -5.284  -0.574  0.00  0.00    +0.195 A 
ATOM     34  O   UNL     1       3.332  -6.293  -1.443  0.00  0.00    -0.466 OA
ENDBRANCH  29  30
ENDBRANCH   9  29
TORSDOF 8
