REMARK  Name = ZINC01437509
REMARK  9 active torsions:
REMARK  status: ('A' for Active; 'I' for Inactive)
REMARK    1  A    between atoms: C_1  and  O_2
REMARK    2  A    between atoms: O_2  and  C_3
REMARK    3  A    between atoms: C_5  and  C_13
REMARK    4  A    between atoms: C_7  and  O_11
REMARK    5  A    between atoms: C_8  and  O_9
REMARK    6  A    between atoms: O_9  and  C_10
REMARK    7  A    between atoms: O_11  and  C_12
REMARK    8  A    between atoms: C_18  and  C_28
REMARK    9  A    between atoms: C_31  and  C_34
REMARK                            x       y       z     vdW  Elec       q    Type
REMARK                         _______ _______ _______ _____ _____    ______ ____
ROOT
ATOM      1  C   UNL     1      -0.654   1.549   1.218  0.00  0.00    +0.032 C 
ATOM      2  C   UNL     1       0.038   1.079  -0.060  0.00  0.00    +0.059 C 
ATOM      3  C   UNL     1      -0.720   1.591  -1.274  0.00  0.00    +0.017 C 
ATOM      4  C   UNL     1      -2.055   1.732  -1.231  0.00  0.00    +0.036 C 
ATOM      5  C   UNL     1      -2.933   2.205  -2.365  0.00  0.00    +0.136 C 
ATOM      6  N   UNL     1      -2.212   2.771  -3.485  0.00  0.00    -0.331 N 
ATOM      7  C   UNL     1      -1.351   1.991  -4.255  0.00  0.00    +0.049 A 
ATOM      8  C   UNL     1      -1.613   1.725  -5.589  0.00  0.00    +0.025 A 
ATOM      9  C   UNL     1      -0.752   0.907  -6.301  0.00  0.00    +0.002 A 
ATOM     10  C   UNL     1       0.358   0.356  -5.688  0.00  0.00    +0.002 A 
ATOM     11  C   UNL     1       0.632   0.633  -4.359  0.00  0.00    +0.025 A 
ATOM     12  C   UNL     1      -0.216   1.468  -3.652  0.00  0.00    +0.052 A 
ATOM     13  N   UNL     1       0.057   1.873  -2.350  0.00  0.00    -0.316 N 
ATOM     14  C   UNL     1      -2.765   1.438  -0.043  0.00  0.00    +0.163 C 
ATOM     15  O   UNL     1      -3.974   1.555  -0.039  0.00  0.00    -0.292 OA
ATOM     16  C   UNL     1      -2.079   0.987   1.212  0.00  0.00    +0.088 C 
ATOM     17  H   UNL     1      -2.329   3.709  -3.703  0.00  0.00    +0.147 HD
ATOM     18  H   UNL     1       0.861   2.394  -2.201  0.00  0.00    +0.152 HD
ENDROOT
BRANCH   1  21
ATOM     19  C   UNL     1       1.310   1.448   4.446  0.00  0.00    +0.165 A 
ATOM     20  C   UNL     1       0.623   1.920   3.337  0.00  0.00    +0.053 A 
ATOM     21  C   UNL     1       0.091   1.031   2.422  0.00  0.00    -0.036 A 
ATOM     22  C   UNL     1       0.234  -0.330   2.611  0.00  0.00    +0.053 A 
ATOM     23  C   UNL     1       0.923  -0.810   3.715  0.00  0.00    +0.165 A 
ATOM     24  C   UNL     1       1.461   0.080   4.637  0.00  0.00    +0.204 A 
BRANCH  19  26
ATOM     25  C   UNL     1       1.641   3.715   5.085  0.00  0.00    +0.277 C 
ATOM     26  O   UNL     1       1.834   2.323   5.345  0.00  0.00    -0.491 OA
ENDBRANCH  19  26
BRANCH  24  27
ATOM     27  O   UNL     1       2.134  -0.387   5.724  0.00  0.00    -0.488 OA
ATOM     28  C   UNL     1       1.367  -0.638   6.903  0.00  0.00    +0.277 C 
ENDBRANCH  24  27
BRANCH  23  29
ATOM     29  O   UNL     1       1.069  -2.150   3.897  0.00  0.00    -0.491 OA
ATOM     30  C   UNL     1       0.491  -3.006   2.909  0.00  0.00    +0.277 C 
ENDBRANCH  23  29
ENDBRANCH   1  21
BRANCH   5  31
ATOM     31  C   UNL     1      -3.745   1.036  -2.860  0.00  0.00    -0.023 A 
ATOM     32  C   UNL     1      -5.123   1.053  -2.743  0.00  0.00    +0.006 A 
ATOM     33  C   UNL     1      -5.868  -0.017  -3.201  0.00  0.00    +0.013 A 
ATOM     34  C   UNL     1      -5.236  -1.108  -3.769  0.00  0.00    +0.055 A 
ATOM     35  C   UNL     1      -3.858  -1.126  -3.881  0.00  0.00    +0.013 A 
ATOM     36  C   UNL     1      -3.113  -0.054  -3.427  0.00  0.00    +0.006 A 
BRANCH  34  37
ATOM     37  C   UNL     1      -6.048  -2.276  -4.266  0.00  0.00    +0.417 C 
ATOM     38  F   UNL     1      -6.210  -3.204  -3.232  0.00  0.00    -0.166 F 
ATOM     39  F   UNL     1      -7.303  -1.825  -4.689  0.00  0.00    -0.166 F 
ATOM     40  F   UNL     1      -5.385  -2.883  -5.338  0.00  0.00    -0.166 F 
ENDBRANCH  34  37
ENDBRANCH   5  31
TORSDOF 6
