REMARK  Name = ZINC64502622
REMARK  9 active torsions:
REMARK  status: ('A' for Active; 'I' for Inactive)
REMARK    1  A    between atoms: C_1  and  C_2
REMARK    2  A    between atoms: C_4  and  C_33
REMARK    3  A    between atoms: C_5  and  C_32
REMARK    4  A    between atoms: C_6  and  C_9
REMARK    5  A    between atoms: C_14  and  C_17
REMARK    6  A    between atoms: C_17  and  C_18
REMARK    7  A    between atoms: N_20  and  C_21
REMARK    8  A    between atoms: C_21  and  C_22
REMARK    9  A    between atoms: C_22  and  C_23
REMARK                            x       y       z     vdW  Elec       q    Type
REMARK                         _______ _______ _______ _____ _____    ______ ____
ROOT
ATOM      1  C   UNL     1       0.510  -2.969   1.138  0.00  0.00    +0.206 C 
ATOM      2  O   UNL     1      -0.568  -2.783   1.663  0.00  0.00    -0.277 OA
ATOM      3  N   UNL     1       0.929  -4.224   0.884  0.00  0.00    -0.303 N 
ATOM      4  C   UNL     1       2.277  -4.471   0.354  0.00  0.00    +0.108 C 
ATOM      5  C   UNL     1       2.160  -5.317  -0.917  0.00  0.00    +0.023 C 
ATOM      6  C   UNL     1       1.365  -6.588  -0.607  0.00  0.00    +0.001 C 
ATOM      7  C   UNL     1      -0.045  -6.209  -0.148  0.00  0.00    +0.023 C 
ATOM      8  C   UNL     1       0.049  -5.373   1.137  0.00  0.00    +0.108 C 
ENDROOT
BRANCH   1  13
ATOM      9  C   UNL     1       0.235   1.614   1.083  0.00  0.00    -0.009 C 
ATOM     10  C   UNL     1       0.064   0.108   0.873  0.00  0.00    -0.047 C 
ATOM     11  C   UNL     1       0.319  -0.251  -0.573  0.00  0.00    -0.089 C 
ATOM     12  C   UNL     1       1.064  -1.326  -0.631  0.00  0.00    -0.081 C 
ATOM     13  C   UNL     1       1.381  -1.795   0.771  0.00  0.00    +0.043 C 
ATOM     14  N   UNL     1       1.082  -0.638   1.650  0.00  0.00    +0.393 N 
ATOM     15  C   UNL     1       1.532  -1.994  -1.898  0.00  0.00    +0.037 C 
ATOM     16  C   UNL     1      -0.202   0.512  -1.764  0.00  0.00    +0.037 C 
ATOM     17  H   UNL     1       1.907  -0.075   1.791  0.00  0.00    -0.083 HD
ATOM     18  H   UNL     1       0.703  -0.947   2.532  0.00  0.00    -0.083 HD
ENDBRANCH   1  13
BRANCH   6  19
ATOM     19  C   UNL     1       1.275  -7.452  -1.866  0.00  0.00    +0.099 C 
BRANCH  19  20
ATOM     20  C   UNL     1       0.599  -8.757  -1.532  0.00  0.00    +0.213 C 
ATOM     21  O   UNL     1       0.226  -8.974  -0.399  0.00  0.00    -0.276 OA
ATOM     22  N   UNL     1       0.410  -9.683  -2.493  0.00  0.00    -0.315 N 
ATOM     23  H   UNL     1       0.708  -9.510  -3.400  0.00  0.00    +0.149 HD
BRANCH  22  24
ATOM     24  C   UNL     1      -0.247 -10.952  -2.169  0.00  0.00    +0.108 C 
BRANCH  24  25
ATOM     25  C   UNL     1      -0.337 -11.817  -3.428  0.00  0.00    +0.052 C 
BRANCH  25  26
ATOM     26  C   UNL     1      -1.013 -13.121  -3.094  0.00  0.00    -0.040 C 
ATOM     27  C   UNL     1      -2.324 -13.419  -3.240  0.00  0.00    -0.001 A 
ATOM     28  C   UNL     1      -3.470 -12.645  -3.734  0.00  0.00    +0.010 A 
ATOM     29  C   UNL     1      -4.691 -13.227  -3.761  0.00  0.00    +0.001 A 
ATOM     30  C   UNL     1      -4.889 -14.546  -3.331  0.00  0.00    +0.002 A 
ATOM     31  C   UNL     1      -3.886 -15.319  -2.864  0.00  0.00    +0.026 A 
ATOM     32  C   UNL     1      -2.560 -14.810  -2.792  0.00  0.00    +0.043 A 
ATOM     33  N   UNL     1      -1.438 -15.351  -2.384  0.00  0.00    -0.380 N 
ATOM     34  C   UNL     1      -0.361 -14.366  -2.534  0.00  0.00    +0.144 C 
ATOM     35  H   UNL     1      -1.336 -16.254  -2.044  0.00  0.00    +0.160 HD
ENDBRANCH  25  26
ENDBRANCH  24  25
ENDBRANCH  22  24
ENDBRANCH  19  20
ENDBRANCH   6  19
TORSDOF 6
