REMARK  Name = ZINC11914085
REMARK  12 active torsions:
REMARK  status: ('A' for Active; 'I' for Inactive)
REMARK    1  A    between atoms: C_1  and  C_2
REMARK    2  A    between atoms: C_2  and  O_3
REMARK    3  A    between atoms: O_3  and  C_4
REMARK    4  A    between atoms: C_7  and  C_12
REMARK    5  A    between atoms: C_9  and  O_10
REMARK    6  A    between atoms: O_10  and  C_11
REMARK    7  A    between atoms: C_15  and  C_26
REMARK    8  A    between atoms: N_22  and  C_23
REMARK    9  A    between atoms: C_23  and  C_24
REMARK   10  A    between atoms: C_24  and  O_25
REMARK   11  A    between atoms: C_28  and  C_33
REMARK   12  A    between atoms: C_31  and  O_32
REMARK                            x       y       z     vdW  Elec       q    Type
REMARK                         _______ _______ _______ _____ _____    ______ ____
ROOT
ATOM      1  C   UNL     1      -1.875  -5.985  -0.077  0.00  0.00    +0.141 C 
ATOM      2  C   UNL     1      -1.873  -6.589  -1.455  0.00  0.00    +0.035 A 
ATOM      3  C   UNL     1      -2.464  -6.637  -2.722  0.00  0.00    +0.102 A 
ATOM      4  N   UNL     1      -1.795  -7.521  -3.436  0.00  0.00    -0.173 NA
ATOM      5  N   UNL     1      -0.840  -8.036  -2.745  0.00  0.00    -0.272 N 
ATOM      6  H   UNL     1      -0.219  -8.707  -3.067  0.00  0.00    +0.189 HD
ATOM      7  C   UNL     1      -0.831  -7.495  -1.490  0.00  0.00    +0.126 A 
ATOM      8  C   UNL     1      -0.165  -7.493  -0.183  0.00  0.00    +0.266 C 
ATOM      9  O   UNL     1       0.792  -8.183   0.111  0.00  0.00    -0.268 OA
ATOM     10  N   UNL     1      -0.765  -6.619   0.648  0.00  0.00    -0.283 N 
ENDROOT
BRANCH   3  11
ATOM     11  C   UNL     1      -3.630  -5.841  -3.178  0.00  0.00    +0.044 A 
ATOM     12  C   UNL     1      -4.744  -5.697  -2.356  0.00  0.00    +0.017 A 
ATOM     13  C   UNL     1      -5.826  -4.956  -2.785  0.00  0.00    -0.050 A 
ATOM     14  C   UNL     1      -5.808  -4.353  -4.030  0.00  0.00    +0.007 A 
ATOM     15  C   UNL     1      -4.707  -4.490  -4.855  0.00  0.00    +0.046 A 
ATOM     16  C   UNL     1      -3.612  -5.226  -4.434  0.00  0.00    +0.126 A 
ATOM     17  C   UNL     1      -7.032  -4.801  -1.894  0.00  0.00    +0.044 C 
BRANCH  16  18
ATOM     18  O   UNL     1      -2.526  -5.356  -5.240  0.00  0.00    -0.506 OA
ATOM     19  H   UNL     1      -2.595  -6.078  -5.880  0.00  0.00    +0.292 HD
ENDBRANCH  16  18
ENDBRANCH   3  11
BRANCH   1  23
ATOM     20  C   UNL     1      -1.248  -1.762  -0.322  0.00  0.00    +0.162 A 
ATOM     21  C   UNL     1      -0.209  -2.637  -0.599  0.00  0.00    +0.050 A 
ATOM     22  C   UNL     1      -0.415  -4.001  -0.518  0.00  0.00    +0.009 A 
ATOM     23  C   UNL     1      -1.656  -4.497  -0.162  0.00  0.00    -0.019 A 
ATOM     24  C   UNL     1      -2.696  -3.630   0.115  0.00  0.00    +0.055 A 
ATOM     25  C   UNL     1      -2.495  -2.261   0.042  0.00  0.00    +0.162 A 
BRANCH  25  26
ATOM     26  O   UNL     1      -3.516  -1.406   0.321  0.00  0.00    -0.491 OA
ATOM     27  C   UNL     1      -4.768  -1.989   0.687  0.00  0.00    +0.277 C 
ENDBRANCH  25  26
BRANCH  20  28
ATOM     28  O   UNL     1      -1.047  -0.419  -0.400  0.00  0.00    -0.489 OA
BRANCH  28  30
ATOM     29  C   UNL     1       0.292   1.550  -0.813  0.00  0.00    +0.048 C 
ATOM     30  C   UNL     1       0.259   0.020  -0.780  0.00  0.00    +0.226 C 
ENDBRANCH  28  30
ENDBRANCH  20  28
ENDBRANCH   1  23
BRANCH  10  31
ATOM     31  C   UNL     1      -0.378  -6.345   2.034  0.00  0.00    +0.137 C 
BRANCH  31  32
ATOM     32  C   UNL     1      -1.133  -7.290   2.970  0.00  0.00    +0.175 C 
BRANCH  32  33
ATOM     33  O   UNL     1      -0.722  -8.636   2.722  0.00  0.00    -0.393 OA
ATOM     34  H   UNL     1      -1.162  -9.290   3.282  0.00  0.00    +0.209 HD
ENDBRANCH  32  33
ENDBRANCH  31  32
ENDBRANCH  10  31
TORSDOF 9
