REMARK  Name = ZINC63806762
REMARK  8 active torsions:
REMARK  status: ('A' for Active; 'I' for Inactive)
REMARK    1  A    between atoms: C_1  and  C_2
REMARK    2  A    between atoms: C_5  and  C_19
REMARK    3  A    between atoms: C_6  and  C_18
REMARK    4  A    between atoms: N_7  and  C_8
REMARK    5  A    between atoms: C_19  and  C_21
REMARK    6  A    between atoms: C_21  and  N_22
REMARK    7  A    between atoms: C_25  and  C_30
REMARK    8  A    between atoms: C_30  and  C_31
REMARK                            x       y       z     vdW  Elec       q    Type
REMARK                         _______ _______ _______ _____ _____    ______ ____
ROOT
ATOM      1  C   UNL     1      -3.768  -2.250   0.883  0.00  0.00    +0.197 C 
ENDROOT
BRANCH   1   2
ATOM      2  N   UNL     1      -4.669  -3.286   1.394  0.00  0.00    -0.217 N 
ATOM      3  C   UNL     1      -4.809  -4.507   0.841  0.00  0.00    +0.244 C 
ATOM      4  O   UNL     1      -4.235  -4.940  -0.135  0.00  0.00    -0.273 OA
ATOM      5  C   UNL     1      -5.834  -5.228   1.695  0.00  0.00    +0.165 C 
ATOM      6  N   UNL     1      -6.185  -4.236   2.726  0.00  0.00    -0.287 N 
ATOM      7  C   UNL     1      -5.451  -3.138   2.469  0.00  0.00    +0.310 C 
ATOM      8  O   UNL     1      -5.496  -2.124   3.138  0.00  0.00    -0.252 OA
ATOM      9  H   UNL     1      -6.820  -4.353   3.450  0.00  0.00    +0.151 HD
BRANCH   5  10
ATOM     10  C   UNL     1      -5.221  -6.477   2.332  0.00  0.00    +0.065 C 
BRANCH  10  11
ATOM     11  C   UNL     1      -6.290  -7.239   3.072  0.00  0.00    -0.039 C 
ATOM     12  C   UNL     1      -7.017  -8.280   2.607  0.00  0.00    -0.001 A 
ATOM     13  C   UNL     1      -7.031  -8.987   1.321  0.00  0.00    +0.010 A 
ATOM     14  C   UNL     1      -7.892 -10.015   1.147  0.00  0.00    +0.001 A 
ATOM     15  C   UNL     1      -8.769 -10.422   2.162  0.00  0.00    +0.002 A 
ATOM     16  C   UNL     1      -8.815  -9.822   3.370  0.00  0.00    +0.026 A 
ATOM     17  C   UNL     1      -7.953  -8.729   3.662  0.00  0.00    +0.043 A 
ATOM     18  N   UNL     1      -7.810  -7.994   4.739  0.00  0.00    -0.380 N 
ATOM     19  C   UNL     1      -6.761  -6.998   4.489  0.00  0.00    +0.144 C 
ATOM     20  H   UNL     1      -8.310  -8.094   5.563  0.00  0.00    +0.160 HD
ENDBRANCH  10  11
ENDBRANCH   5  10
ENDBRANCH   1   2
BRANCH   1  21
ATOM     21  C   UNL     1      -2.417  -2.394   1.535  0.00  0.00    +0.178 C 
ATOM     22  O   UNL     1      -2.225  -3.278   2.348  0.00  0.00    -0.291 OA
BRANCH  21  26
ATOM     23  C   UNL     1      -0.174   1.699   0.564  0.00  0.00    +0.029 C 
ATOM     24  C   UNL     1      -0.045   0.218   0.204  0.00  0.00    +0.080 C 
ATOM     25  C   UNL     1      -1.436  -0.442   0.133  0.00  0.00    +0.062 C 
ATOM     26  C   UNL     1      -1.381  -1.510   1.204  0.00  0.00    +0.015 C 
ATOM     27  C   UNL     1      -0.164  -1.466   1.785  0.00  0.00    +0.015 C 
ATOM     28  N   UNL     1       0.652  -0.512   1.271  0.00  0.00    -0.300 N 
ATOM     29  C   UNL     1       0.250  -2.390   2.901  0.00  0.00    +0.061 C 
BRANCH  28  30
ATOM     30  C   UNL     1       1.961  -0.258   1.694  0.00  0.00    +0.038 A 
ATOM     31  C   UNL     1       2.194   0.262   2.961  0.00  0.00    +0.027 A 
ATOM     32  C   UNL     1       3.487   0.513   3.378  0.00  0.00    +0.051 A 
ATOM     33  C   UNL     1       4.556   0.246   2.534  0.00  0.00    +0.162 A 
ATOM     34  C   UNL     1       4.326  -0.277   1.267  0.00  0.00    +0.164 A 
ATOM     35  C   UNL     1       3.029  -0.532   0.850  0.00  0.00    +0.072 A 
ATOM     36  O   UNL     1       5.362  -0.553   0.429  0.00  0.00    -0.485 OA
ATOM     37  C   UNL     1       6.620   0.057   0.739  0.00  0.00    +0.270 C 
ATOM     38  C   UNL     1       6.886  -0.125   2.239  0.00  0.00    +0.270 C 
ATOM     39  O   UNL     1       5.823   0.504   2.962  0.00  0.00    -0.485 OA
ENDBRANCH  28  30
ENDBRANCH  21  26
ENDBRANCH   1  21
TORSDOF 6
