REMARK  Name = ZINC05250076
REMARK  9 active torsions:
REMARK  status: ('A' for Active; 'I' for Inactive)
REMARK    1  A    between atoms: C_1  and  C_2
REMARK    2  A    between atoms: C_3  and  C_19
REMARK    3  A    between atoms: C_4  and  C_10
REMARK    4  A    between atoms: C_13  and  N_16
REMARK    5  A    between atoms: N_16  and  C_17
REMARK    6  A    between atoms: N_16  and  C_18
REMARK    7  A    between atoms: N_21  and  N_22
REMARK    8  A    between atoms: C_23  and  C_24
REMARK    9  A    between atoms: C_29  and  O_30
REMARK                            x       y       z     vdW  Elec       q    Type
REMARK                         _______ _______ _______ _____ _____    ______ ____
ROOT
ATOM      1  C   UNL     1      -0.039   1.491   0.090  0.00  0.00    +0.061 C 
ATOM      2  C   UNL     1      -0.009  -0.014   0.029  0.00  0.00    +0.017 C 
ATOM      3  C   UNL     1      -1.170  -0.703   0.033  0.00  0.00    +0.057 C 
ATOM      4  C   UNL     1      -1.094  -2.215  -0.030  0.00  0.00    +0.139 C 
ATOM      5  N   UNL     1       0.250  -2.813  -0.089  0.00  0.00    -0.315 N 
ATOM      6  C   UNL     1       1.319  -1.992  -0.085  0.00  0.00    +0.135 C 
ATOM      7  S   UNL     1       2.887  -2.674  -0.155  0.00  0.00    -0.019 S 
ATOM      8  N   UNL     1       1.193  -0.660  -0.034  0.00  0.00    -0.300 N 
ATOM      9  H   UNL     1       0.363  -3.776  -0.131  0.00  0.00    +0.149 HD
ATOM     10  H   UNL     1       2.001  -0.123  -0.039  0.00  0.00    +0.154 HD
ENDROOT
BRANCH   4  11
ATOM     11  C   UNL     1      -1.794  -2.765   1.186  0.00  0.00    -0.023 A 
ATOM     12  C   UNL     1      -1.186  -2.688   2.426  0.00  0.00    +0.007 A 
ATOM     13  C   UNL     1      -1.824  -3.192   3.542  0.00  0.00    +0.023 A 
ATOM     14  C   UNL     1      -3.078  -3.777   3.419  0.00  0.00    +0.029 A 
ATOM     15  C   UNL     1      -3.686  -3.853   2.172  0.00  0.00    +0.023 A 
ATOM     16  C   UNL     1      -3.045  -3.342   1.060  0.00  0.00    +0.007 A 
BRANCH  14  17
ATOM     17  N   UNL     1      -3.726  -4.288   4.545  0.00  0.00    -0.336 N 
ATOM     18  C   UNL     1      -3.083  -4.207   5.859  0.00  0.00    +0.129 C 
ATOM     19  C   UNL     1      -5.049  -4.904   4.413  0.00  0.00    +0.129 C 
ENDBRANCH  14  17
ENDBRANCH   4  11
BRANCH   3  20
ATOM     20  C   UNL     1      -2.417  -0.034   0.093  0.00  0.00    +0.263 C 
ATOM     21  O   UNL     1      -3.077   0.116  -0.919  0.00  0.00    -0.269 OA
ATOM     22  N   UNL     1      -2.874   0.436   1.271  0.00  0.00    -0.203 N 
ATOM     23  H   UNL     1      -2.316   0.383   2.063  0.00  0.00    +0.178 HD
BRANCH  22  24
ATOM     24  N   UNL     1      -4.153   1.001   1.351  0.00  0.00    -0.187 NA
ATOM     25  C   UNL     1      -4.593   1.454   2.486  0.00  0.00    +0.142 C 
BRANCH  25  26
ATOM     26  C   UNL     1      -5.939   2.048   2.570  0.00  0.00    +0.036 A 
ATOM     27  C   UNL     1      -6.413   2.541   3.788  0.00  0.00    +0.013 A 
ATOM     28  C   UNL     1      -7.673   3.097   3.860  0.00  0.00    +0.001 A 
ATOM     29  C   UNL     1      -8.471   3.167   2.731  0.00  0.00    +0.004 A 
ATOM     30  C   UNL     1      -8.013   2.682   1.520  0.00  0.00    +0.046 A 
ATOM     31  C   UNL     1      -6.747   2.126   1.429  0.00  0.00    +0.125 A 
BRANCH  31  32
ATOM     32  O   UNL     1      -6.294   1.655   0.238  0.00  0.00    -0.506 OA
ATOM     33  H   UNL     1      -6.502   0.724   0.079  0.00  0.00    +0.292 HD
ENDBRANCH  31  32
ENDBRANCH  25  26
ENDBRANCH  22  24
ENDBRANCH   3  20
TORSDOF 6
