REMARK  Name = ZINC12774216
REMARK  8 active torsions:
REMARK  status: ('A' for Active; 'I' for Inactive)
REMARK    1  A    between atoms: C_1  and  C_2
REMARK    2  A    between atoms: C_2  and  C_4
REMARK    3  A    between atoms: C_2  and  S_15
REMARK    4  A    between atoms: N_6  and  C_7
REMARK    5  A    between atoms: C_8  and  C_12
REMARK    6  A    between atoms: S_15  and  C_16
REMARK    7  A    between atoms: C_19  and  C_22
REMARK    8  A    between atoms: N_20  and  C_21
REMARK                            x       y       z     vdW  Elec       q    Type
REMARK                         _______ _______ _______ _____ _____    ______ ____
ROOT
ATOM      1  S   UNL     1      -3.795   1.877  -0.691  0.00  0.00    -0.074 S 
ENDROOT
BRANCH   1   2
ATOM      2  C   UNL     1      -5.117   0.712  -0.707  0.00  0.00    +0.192 A 
ATOM      3  N   UNL     1      -5.063  -0.536  -0.300  0.00  0.00    -0.122 NA
ATOM      4  N   UNL     1      -6.210  -1.095  -0.453  0.00  0.00    -0.130 NA
ATOM      5  C   UNL     1      -7.055  -0.248  -0.969  0.00  0.00    +0.178 A 
ATOM      6  N   UNL     1      -6.389   0.933  -1.149  0.00  0.00    -0.306 N 
ATOM      7  C   UNL     1      -6.929   2.178  -1.702  0.00  0.00    +0.153 C 
BRANCH   5   8
ATOM      8  C   UNL     1      -8.499  -0.519  -1.304  0.00  0.00    +0.278 C 
ATOM      9  C   UNL     1      -8.583  -1.383  -2.570  0.00  0.00    +0.281 C 
ATOM     10  O   UNL     1      -9.964  -1.632  -2.853  0.00  0.00    -0.484 OA
ATOM     11  C   UNL     1     -10.743  -2.014  -1.804  0.00  0.00    +0.162 A 
ATOM     12  C   UNL     1     -11.972  -2.609  -2.050  0.00  0.00    +0.049 A 
ATOM     13  C   UNL     1     -12.775  -2.999  -0.996  0.00  0.00    +0.004 A 
ATOM     14  C   UNL     1     -12.358  -2.796   0.307  0.00  0.00    +0.004 A 
ATOM     15  C   UNL     1     -11.135  -2.204   0.559  0.00  0.00    +0.049 A 
ATOM     16  C   UNL     1     -10.323  -1.812  -0.495  0.00  0.00    +0.163 A 
ATOM     17  O   UNL     1      -9.118  -1.236  -0.231  0.00  0.00    -0.474 OA
ENDBRANCH   5   8
ENDBRANCH   1   2
BRANCH   1  19
ATOM     18  C   UNL     1      -2.849   0.476   1.455  0.00  0.00    +0.029 C 
ATOM     19  C   UNL     1      -2.482   0.853   0.018  0.00  0.00    +0.137 C 
BRANCH  19  20
ATOM     20  C   UNL     1      -1.187   1.624   0.017  0.00  0.00    +0.231 C 
ATOM     21  O   UNL     1      -1.204   2.836   0.023  0.00  0.00    -0.274 OA
ATOM     22  N   UNL     1      -0.011   0.966   0.007  0.00  0.00    -0.278 N 
ATOM     23  H   UNL     1       0.002  -0.004   0.002  0.00  0.00    +0.155 HD
BRANCH  22  24
ATOM     24  C   UNL     1       1.180   1.675  -0.000  0.00  0.00    +0.084 A 
ATOM     25  C   UNL     1       2.479   1.181  -0.015  0.00  0.00    +0.065 A 
ATOM     26  C   UNL     1       3.544   2.156  -0.020  0.00  0.00    +0.022 A 
ATOM     27  C   UNL     1       3.190   3.453  -0.010  0.00  0.00    +0.048 A 
ATOM     28  S   UNL     1       1.410   3.392  -0.001  0.00  0.00    -0.081 S 
BRANCH  25  29
ATOM     29  C   UNL     1       2.754  -0.259  -0.025  0.00  0.00    +0.244 C 
ATOM     30  O   UNL     1       1.833  -1.054  -0.020  0.00  0.00    -0.270 OA
ATOM     31  N   UNL     1       4.027  -0.702  -0.040  0.00  0.00    -0.325 N 
ATOM     32  H   UNL     1       4.761  -0.067  -0.044  0.00  0.00    +0.145 HD
ATOM     33  H   UNL     1       4.209  -1.654  -0.046  0.00  0.00    +0.145 HD
ENDBRANCH  25  29
ENDBRANCH  22  24
ENDBRANCH  19  20
ENDBRANCH   1  19
TORSDOF 6
