REMARK  Name = ZINC04887193
REMARK  5 active torsions:
REMARK  status: ('A' for Active; 'I' for Inactive)
REMARK    1  A    between atoms: C_1  and  C_2
REMARK    2  A    between atoms: C_3  and  N_12
REMARK    3  A    between atoms: C_5  and  S_9
REMARK    4  A    between atoms: N_13  and  C_14
REMARK    5  A    between atoms: C_17  and  O_24
REMARK                            x       y       z     vdW  Elec       q    Type
REMARK                         _______ _______ _______ _____ _____    ______ ____
ROOT
ATOM      1  N   UNL     1       3.563   2.102  -0.021  0.00  0.00    -0.149 NA
ATOM      2  N   UNL     1       4.686   1.468  -0.036  0.00  0.00    -0.149 NA
ENDROOT
BRANCH   2   3
ATOM      3  C   UNL     1       5.857   2.160  -0.043  0.00  0.00    +0.094 A 
ATOM      4  C   UNL     1       5.857   3.553  -0.042  0.00  0.00    +0.034 A 
ATOM      5  C   UNL     1       7.048   4.258  -0.045  0.00  0.00    +0.048 A 
ATOM      6  C   UNL     1       8.268   3.617  -0.060  0.00  0.00    +0.125 A 
ATOM      7  C   UNL     1       8.336   2.208  -0.068  0.00  0.00    +0.026 A 
ATOM      8  C   UNL     1       7.138   1.454  -0.060  0.00  0.00    +0.013 A 
ATOM      9  C   UNL     1       7.201   0.056  -0.069  0.00  0.00    +0.011 A 
ATOM     10  C   UNL     1       8.415  -0.564  -0.084  0.00  0.00    +0.001 A 
ATOM     11  C   UNL     1       9.595   0.175  -0.092  0.00  0.00    +0.001 A 
ATOM     12  C   UNL     1       9.569   1.537  -0.084  0.00  0.00    +0.012 A 
BRANCH   6  13
ATOM     13  O   UNL     1       9.412   4.346  -0.067  0.00  0.00    -0.506 OA
ATOM     14  H   UNL     1       9.735   4.562  -0.953  0.00  0.00    +0.292 HD
ENDBRANCH   6  13
ENDBRANCH   2   3
BRANCH   1  17
ATOM     15  C   UNL     1       1.145   3.597   0.010  0.00  0.00    +0.047 C 
ATOM     16  C   UNL     1       1.167   2.090   0.002  0.00  0.00    -0.005 A 
ATOM     17  C   UNL     1       2.386   1.407  -0.013  0.00  0.00    +0.092 A 
ATOM     18  C   UNL     1       2.397   0.009  -0.021  0.00  0.00    +0.059 A 
ATOM     19  C   UNL     1       1.206  -0.686  -0.013  0.00  0.00    +0.123 A 
ATOM     20  C   UNL     1       0.002  -0.004   0.002  0.00  0.00    +0.050 A 
ATOM     21  C   UNL     1      -0.017   1.381   0.010  0.00  0.00    +0.048 A 
ATOM     22 CL   UNL     1      -1.533   2.227   0.021  0.00  0.00    -0.083 Cl
BRANCH  19  23
ATOM     23  S   UNL     1       1.217  -2.448  -0.023  0.00  0.00    +0.140 S 
ATOM     24  O   UNL     1       2.470  -2.849   0.514  0.00  0.00    -0.140 OA
ATOM     25  O   UNL     1      -0.021  -2.865   0.537  0.00  0.00    -0.140 OA
ATOM     26  O   UNL     1       1.206  -2.890  -1.480  0.00  0.00    -0.043 OA
ENDBRANCH  19  23
ENDBRANCH   1  17
TORSDOF 4
