REMARK  Name = ZINC01001137
REMARK  5 active torsions:
REMARK  status: ('A' for Active; 'I' for Inactive)
REMARK    1  A    between atoms: C_1  and  C_2
REMARK    2  A    between atoms: C_3  and  N_14
REMARK    3  A    between atoms: C_4  and  C_13
REMARK    4  A    between atoms: N_5  and  C_7
REMARK    5  A    between atoms: C_15  and  C_16
REMARK                            x       y       z     vdW  Elec       q    Type
REMARK                         _______ _______ _______ _____ _____    ______ ____
ROOT
ATOM      1  C   UNL     1      -0.236   6.752  -0.906  0.00  0.00    +0.070 C 
ATOM      2  C   UNL     1       0.522   5.551  -0.402  0.00  0.00    +0.086 A 
ATOM      3  C   UNL     1       1.685   5.582   0.397  0.00  0.00    +0.107 A 
ATOM      4  C   UNL     1       2.053   4.287   0.638  0.00  0.00    +0.067 A 
ATOM      5  N   UNL     1       1.161   3.487   0.009  0.00  0.00    -0.235 N 
ATOM      6  N   UNL     1       0.217   4.301  -0.628  0.00  0.00    -0.169 NA
ATOM      7  C   UNL     1       3.236   3.833   1.452  0.00  0.00    +0.068 C 
ENDROOT
BRANCH   5   8
ATOM      8  C   UNL     1       1.177   2.086   0.002  0.00  0.00    +0.066 A 
ATOM      9  C   UNL     1      -0.017   1.377   0.010  0.00  0.00    +0.028 A 
ATOM     10  C   UNL     1       0.002  -0.004   0.002  0.00  0.00    +0.002 A 
ATOM     11  C   UNL     1       1.208  -0.680  -0.014  0.00  0.00    +0.000 A 
ATOM     12  C   UNL     1       2.399   0.023  -0.021  0.00  0.00    +0.002 A 
ATOM     13  C   UNL     1       2.386   1.404  -0.012  0.00  0.00    +0.028 A 
ENDBRANCH   5   8
BRANCH   3  14
ATOM     14  N   UNL     1       2.327   6.705   0.853  0.00  0.00    -0.251 NA
ATOM     15  C   UNL     1       1.993   7.225   1.999  0.00  0.00    +0.119 C 
BRANCH  15  16
ATOM     16  C   UNL     1       2.681   8.430   2.489  0.00  0.00    -0.003 A 
ATOM     17  C   UNL     1       3.698   9.015   1.727  0.00  0.00    +0.013 A 
ATOM     18  C   UNL     1       4.336  10.147   2.185  0.00  0.00    +0.050 A 
ATOM     19  C   UNL     1       3.983  10.704   3.407  0.00  0.00    +0.166 A 
ATOM     20  C   UNL     1       2.973  10.122   4.174  0.00  0.00    +0.167 A 
ATOM     21  C   UNL     1       2.324   8.991   3.719  0.00  0.00    +0.059 A 
ATOM     22  O   UNL     1       2.819  10.853   5.317  0.00  0.00    -0.453 OA
ATOM     23  C   UNL     1       3.457  12.117   5.054  0.00  0.00    +0.466 C 
ATOM     24  O   UNL     1       4.459  11.797   4.071  0.00  0.00    -0.453 OA
ENDBRANCH  15  16
ENDBRANCH   3  14
TORSDOF 3
