REMARK  Name = ZINC04803992
REMARK  4 active torsions:
REMARK  status: ('A' for Active; 'I' for Inactive)
REMARK    1  A    between atoms: C_9  and  O_26
REMARK    2  A    between atoms: C_10  and  N_11
REMARK    3  A    between atoms: N_12  and  C_13
REMARK    4  A    between atoms: C_22  and  S_23
REMARK                            x       y       z     vdW  Elec       q    Type
REMARK                         _______ _______ _______ _____ _____    ______ ____
ROOT
ATOM      1  N   UNL     1      -3.533   2.087  -0.765  0.00  0.00    -0.145 NA
ATOM      2  N   UNL     1      -2.444   1.439  -0.525  0.00  0.00    -0.149 NA
ENDROOT
BRANCH   1  12
ATOM      3  C   UNL     1      -8.359   3.462  -1.543  0.00  0.00    +0.001 A 
ATOM      4  C   UNL     1      -7.157   4.164  -1.549  0.00  0.00    +0.001 A 
ATOM      5  C   UNL     1      -5.975   3.530  -1.301  0.00  0.00    +0.011 A 
ATOM      6  C   UNL     1      -5.970   2.157  -1.032  0.00  0.00    +0.013 A 
ATOM      7  C   UNL     1      -7.190   1.439  -1.029  0.00  0.00    -0.016 A 
ATOM      8  C   UNL     1      -8.389   2.124  -1.289  0.00  0.00    +0.008 A 
ATOM      9  C   UNL     1      -7.182   0.058  -0.763  0.00  0.00    +0.012 A 
ATOM     10  C   UNL     1      -6.017  -0.597  -0.514  0.00  0.00    +0.048 A 
ATOM     11  C   UNL     1      -4.790   0.064  -0.511  0.00  0.00    +0.144 A 
ATOM     12  C   UNL     1      -4.724   1.437  -0.767  0.00  0.00    +0.135 A 
BRANCH  11  13
ATOM     13  O   UNL     1      -3.651  -0.630  -0.258  0.00  0.00    -0.505 OA
ATOM     14  H   UNL     1      -3.412  -0.665   0.678  0.00  0.00    +0.292 HD
ENDBRANCH  11  13
ENDBRANCH   1  12
BRANCH   2  15
ATOM     15  C   UNL     1      -1.249   2.091  -0.523  0.00  0.00    +0.094 A 
ATOM     16  C   UNL     1      -1.185   3.458  -0.773  0.00  0.00    +0.030 A 
ATOM     17  C   UNL     1       0.035   4.119  -0.776  0.00  0.00    +0.003 A 
ATOM     18  C   UNL     1       1.206   3.467  -0.532  0.00  0.00    +0.010 A 
ATOM     19  C   UNL     1       1.217   2.087  -0.267  0.00  0.00    +0.012 A 
ATOM     20  C   UNL     1      -0.005   1.371  -0.253  0.00  0.00    +0.011 A 
ATOM     21  C   UNL     1       0.002  -0.004   0.010  0.00  0.00    +0.011 A 
ATOM     22  C   UNL     1       1.185  -0.637   0.252  0.00  0.00    +0.003 A 
ATOM     23  C   UNL     1       2.388   0.064   0.239  0.00  0.00    +0.030 A 
ATOM     24  C   UNL     1       2.417   1.402  -0.013  0.00  0.00    +0.127 A 
BRANCH  24  25
ATOM     25  S   UNL     1       3.952   2.268  -0.024  0.00  0.00    +0.140 S 
ATOM     26  O   UNL     1       3.676   3.587   0.426  0.00  0.00    -0.140 OA
ATOM     27  O   UNL     1       4.898   1.425   0.620  0.00  0.00    -0.140 OA
ATOM     28  O   UNL     1       4.391   2.386  -1.476  0.00  0.00    -0.043 OA
ENDBRANCH  24  25
ENDBRANCH   2  15
TORSDOF 4
