REMARK  Name = ZINC24255864
REMARK  7 active torsions:
REMARK  status: ('A' for Active; 'I' for Inactive)
REMARK    1  A    between atoms: C_1  and  C_2
REMARK    2  A    between atoms: C_2  and  C_3
REMARK    3  A    between atoms: C_3  and  C_5
REMARK    4  A    between atoms: C_3  and  N_12
REMARK    5  A    between atoms: N_12  and  C_13
REMARK    6  A    between atoms: C_13  and  C_14
REMARK    7  A    between atoms: C_27  and  C_29
REMARK                            x       y       z     vdW  Elec       q    Type
REMARK                         _______ _______ _______ _____ _____    ______ ____
ROOT
ATOM      1  C   UNL     1      -0.194   1.895  -4.077  0.00  0.00    +0.234 C 
ATOM      2  O   UNL     1      -0.960   1.142  -4.639  0.00  0.00    -0.274 OA
ATOM      3  N   UNL     1       0.057   3.113  -4.597  0.00  0.00    -0.256 N 
ATOM      4  C   UNL     1       0.945   3.992  -3.962  0.00  0.00    +0.058 A 
ATOM      5  C   UNL     1       0.594   4.617  -2.777  0.00  0.00    +0.025 A 
ATOM      6  C   UNL     1       1.474   5.498  -2.176  0.00  0.00    +0.002 A 
ATOM      7  C   UNL     1       2.703   5.759  -2.756  0.00  0.00    +0.002 A 
ATOM      8  C   UNL     1       3.064   5.133  -3.934  0.00  0.00    +0.025 A 
ATOM      9  C   UNL     1       2.192   4.240  -4.535  0.00  0.00    +0.055 A 
ATOM     10  N   UNL     1       2.559   3.552  -5.698  0.00  0.00    -0.284 N 
ATOM     11  C   UNL     1       1.718   3.494  -6.753  0.00  0.00    +0.219 C 
ATOM     12  O   UNL     1       2.011   2.825  -7.722  0.00  0.00    -0.275 OA
ATOM     13  C   UNL     1       0.418   4.253  -6.736  0.00  0.00    +0.128 C 
ATOM     14  C   UNL     1      -0.590   3.540  -5.840  0.00  0.00    +0.194 C 
ATOM     15  H   UNL     1       3.423   3.114  -5.746  0.00  0.00    +0.155 HD
ENDROOT
BRANCH  14  16
ATOM     16  C   UNL     1      -1.738   4.497  -5.512  0.00  0.00    +0.409 C 
ATOM     17  F   UNL     1      -1.236   5.615  -4.839  0.00  0.00    -0.169 F 
ATOM     18  F   UNL     1      -2.357   4.906  -6.698  0.00  0.00    -0.169 F 
ATOM     19  F   UNL     1      -2.672   3.844  -4.700  0.00  0.00    -0.169 F 
ENDBRANCH  14  16
BRANCH   1  20
ATOM     20  C   UNL     1       0.480   1.470  -2.798  0.00  0.00    +0.178 C 
BRANCH  20  21
ATOM     21  N   UNL     1       0.044   0.112  -2.444  0.00  0.00    -0.301 NA
ATOM     22  H   UNL     1       0.304  -0.549  -3.160  0.00  0.00    +0.123 HD
BRANCH  21  23
ATOM     23  C   UNL     1       0.583  -0.289  -1.137  0.00  0.00    +0.084 C 
BRANCH  23  24
ATOM     24  C   UNL     1       0.664  -1.793  -1.068  0.00  0.00    -0.030 A 
ATOM     25  C   UNL     1      -0.349  -2.565  -1.605  0.00  0.00    +0.006 A 
ATOM     26  C   UNL     1      -0.275  -3.944  -1.542  0.00  0.00    +0.020 A 
ATOM     27  C   UNL     1       0.814  -4.551  -0.940  0.00  0.00    +0.041 A 
ATOM     28  C   UNL     1       1.827  -3.777  -0.403  0.00  0.00    +0.020 A 
ATOM     29  C   UNL     1       1.754  -2.399  -0.471  0.00  0.00    +0.006 A 
ATOM     30 CL   UNL     1       0.907  -6.282  -0.860  0.00  0.00    -0.084 Cl
ENDBRANCH  23  24
BRANCH  23  32
ATOM     31  C   UNL     1       0.293  -0.072   1.335  0.00  0.00    +0.006 C 
ATOM     32  C   UNL     1      -0.338   0.223  -0.027  0.00  0.00    +0.020 C 
ENDBRANCH  23  32
ENDBRANCH  21  23
ENDBRANCH  20  21
ENDBRANCH   1  20
TORSDOF 6
