REMARK  Name = ZINC51712371
REMARK  7 active torsions:
REMARK  status: ('A' for Active; 'I' for Inactive)
REMARK    1  A    between atoms: C_1  and  O_2
REMARK    2  A    between atoms: O_2  and  C_3
REMARK    3  A    between atoms: C_6  and  N_9
REMARK    4  A    between atoms: C_12  and  C_14
REMARK    5  A    between atoms: C_14  and  N_15
REMARK    6  A    between atoms: C_22  and  C_25
REMARK    7  A    between atoms: N_27  and  C_28
REMARK                            x       y       z     vdW  Elec       q    Type
REMARK                         _______ _______ _______ _____ _____    ______ ____
ROOT
ATOM      1  N   UNL     1       3.308  -2.260  -8.567  0.00  0.00    -0.294 N 
ATOM      2  C   UNL     1       3.740  -2.010  -9.819  0.00  0.00    +0.303 C 
ATOM      3  O   UNL     1       4.927  -1.861 -10.035  0.00  0.00    -0.253 OA
ATOM      4  N   UNL     1       2.855  -1.924 -10.832  0.00  0.00    -0.285 N 
ATOM      5  C   UNL     1       1.410  -1.985 -10.572  0.00  0.00    +0.109 C 
ATOM      6  C   UNL     1       0.797  -3.081 -11.449  0.00  0.00    +0.020 C 
ATOM      7  C   UNL     1       1.161  -2.821 -12.912  0.00  0.00    +0.016 C 
ATOM      8  C   UNL     1       2.682  -2.865 -13.077  0.00  0.00    +0.092 C 
ATOM      9  C   UNL     1       3.317  -1.761 -12.217  0.00  0.00    +0.122 C 
ATOM     10  H   UNL     1       2.357  -2.306  -8.382  0.00  0.00    +0.151 HD
ENDROOT
BRANCH   8  11
ATOM     11  C   UNL     1       3.038  -2.642 -14.524  0.00  0.00    +0.218 C 
ATOM     12  O   UNL     1       2.162  -2.465 -15.344  0.00  0.00    -0.275 OA
ATOM     13  N   UNL     1       4.330  -2.639 -14.907  0.00  0.00    -0.312 N 
ATOM     14  H   UNL     1       5.031  -2.781 -14.252  0.00  0.00    +0.149 HD
BRANCH  13  15
ATOM     15  C   UNL     1       4.677  -2.422 -16.314  0.00  0.00    +0.073 C 
ATOM     16  C   UNL     1       5.754  -3.322 -16.924  0.00  0.00    +0.024 C 
ATOM     17  C   UNL     1       6.064  -1.855 -16.621  0.00  0.00    +0.024 C 
ENDBRANCH  13  15
ENDBRANCH   8  11
BRANCH   1  18
ATOM     18  C   UNL     1       4.276  -2.464  -7.486  0.00  0.00    +0.163 C 
BRANCH  18  22
ATOM     19  N   UNL     1       2.461  -2.463  -4.302  0.00  0.00    -0.240 N 
ATOM     20  C   UNL     1       2.574  -3.795  -4.501  0.00  0.00    +0.115 A 
ATOM     21  C   UNL     1       3.237  -3.983  -5.666  0.00  0.00    +0.046 A 
ATOM     22  C   UNL     1       3.540  -2.725  -6.197  0.00  0.00    +0.080 A 
ATOM     23  N   UNL     1       3.070  -1.813  -5.383  0.00  0.00    -0.170 NA
BRANCH  19  27
ATOM     24  C   UNL     1       0.608  -0.614  -1.054  0.00  0.00    +0.120 A 
ATOM     25  C   UNL     1       1.175   0.156  -2.060  0.00  0.00    +0.048 A 
ATOM     26  C   UNL     1       1.789  -0.456  -3.135  0.00  0.00    +0.031 A 
ATOM     27  C   UNL     1       1.838  -1.841  -3.210  0.00  0.00    +0.066 A 
ATOM     28  C   UNL     1       1.270  -2.611  -2.204  0.00  0.00    +0.031 A 
ATOM     29  C   UNL     1       0.662  -1.998  -1.126  0.00  0.00    +0.048 A 
BRANCH  24  31
ATOM     30  C   UNL     1      -0.014   1.418   0.014  0.00  0.00    +0.277 C 
ATOM     31  O   UNL     1       0.005  -0.011   0.004  0.00  0.00    -0.495 OA
ENDBRANCH  24  31
ENDBRANCH  19  27
ENDBRANCH  18  22
ENDBRANCH   1  18
TORSDOF 6
