REMARK  Name = ZINC02672077
REMARK  11 active torsions:
REMARK  status: ('A' for Active; 'I' for Inactive)
REMARK    1  A    between atoms: C_1  and  C_2
REMARK    2  A    between atoms: C_7  and  N_24
REMARK    3  A    between atoms: C_8  and  C_13
REMARK    4  A    between atoms: N_17  and  C_21
REMARK    5  A    between atoms: C_21  and  C_22
REMARK    6  A    between atoms: C_21  and  C_23
REMARK    7  A    between atoms: N_24  and  C_25
REMARK    8  A    between atoms: C_27  and  C_33
REMARK    9  A    between atoms: C_27  and  C_34
REMARK   10  A    between atoms: C_29  and  C_31
REMARK   11  A    between atoms: C_29  and  C_32
REMARK                            x       y       z     vdW  Elec       q    Type
REMARK                         _______ _______ _______ _____ _____    ______ ____
ROOT
ATOM      1  C   UNL     1       1.935  -8.142  -2.365  0.00  0.00    +0.045 C 
ATOM      2  C   UNL     1       1.140  -7.745  -1.147  0.00  0.00    -0.034 A 
ATOM      3  C   UNL     1       0.642  -8.731  -0.285  0.00  0.00    +0.008 A 
ATOM      4  C   UNL     1      -0.076  -8.362   0.814  0.00  0.00    +0.047 A 
ATOM      5  C   UNL     1      -0.307  -6.998   1.067  0.00  0.00    +0.142 A 
ATOM      6  N   UNL     1      -1.010  -6.647   2.143  0.00  0.00    -0.214 NA
ATOM      7  C   UNL     1      -1.258  -5.377   2.429  0.00  0.00    +0.134 A 
ATOM      8  C   UNL     1      -0.766  -4.362   1.575  0.00  0.00    +0.081 A 
ATOM      9  C   UNL     1      -0.025  -4.746   0.432  0.00  0.00    +0.267 A 
ATOM     10  O   UNL     1       0.414  -3.905  -0.333  0.00  0.00    -0.267 OA
ATOM     11  N   UNL     1       0.192  -6.059   0.207  0.00  0.00    -0.267 N 
ATOM     12  C   UNL     1       0.909  -6.438  -0.889  0.00  0.00    +0.099 A 
ENDROOT
BRANCH   8  13
ATOM     13  C   UNL     1      -1.014  -2.997   1.854  0.00  0.00    +0.037 C 
ATOM     14  C   UNL     1      -0.638  -2.466   3.054  0.00  0.00    +0.077 C 
ATOM     15  C   UNL     1      -0.891  -1.172   3.591  0.00  0.00    +0.259 C 
ATOM     16  O   UNL     1      -1.528  -0.346   2.961  0.00  0.00    -0.269 OA
ATOM     17  N   UNL     1      -0.411  -0.891   4.790  0.00  0.00    -0.253 N 
ATOM     18  C   UNL     1       0.291  -1.809   5.491  0.00  0.00    +0.121 C 
ATOM     19  S   UNL     1       0.992  -1.666   7.046  0.00  0.00    -0.027 S 
ATOM     20  S   UNL     1       0.301  -3.209   4.382  0.00  0.00    -0.061 S 
BRANCH  17  21
ATOM     21  C   UNL     1      -0.649   0.433   5.370  0.00  0.00    +0.077 C 
ATOM     22  C   UNL     1      -1.426   0.284   6.680  0.00  0.00    +0.028 C 
ATOM     23  C   UNL     1       0.691   1.117   5.647  0.00  0.00    +0.028 C 
ENDBRANCH  17  21
ENDBRANCH   8  13
BRANCH   7  24
ATOM     24  N   UNL     1      -1.988  -5.048   3.550  0.00  0.00    -0.326 N 
ATOM     25  H   UNL     1      -2.190  -3.992   3.784  0.00  0.00    +0.148 HD
BRANCH  24  26
ATOM     26  C   UNL     1      -2.495  -6.106   4.433  0.00  0.00    +0.069 C 
ATOM     27  C   UNL     1      -3.838  -6.605   3.899  0.00  0.00    +0.009 C 
ATOM     28  C   UNL     1      -4.402  -7.691   4.812  0.00  0.00    -0.072 C 
ATOM     29  N   UNL     1      -4.392  -7.317   6.210  0.00  0.00    +0.386 N 
ATOM     30  C   UNL     1      -3.260  -6.607   6.768  0.00  0.00    -0.072 C 
ATOM     31  C   UNL     1      -2.712  -5.532   5.833  0.00  0.00    +0.009 C 
ATOM     32  C   UNL     1      -2.135  -7.575   7.153  0.00  0.00    -0.010 C 
ATOM     33  C   UNL     1      -3.722  -5.905   8.064  0.00  0.00    -0.010 C 
ATOM     34  C   UNL     1      -3.638  -9.000   4.583  0.00  0.00    -0.010 C 
ATOM     35  C   UNL     1      -5.868  -7.938   4.389  0.00  0.00    -0.010 C 
ATOM     36  H   UNL     1      -5.246  -6.655   6.419  0.00  0.00    -0.084 HD
ATOM     37  H   UNL     1      -4.468  -8.221   6.832  0.00  0.00    -0.084 HD
ENDBRANCH  24  26
ENDBRANCH   7  24
TORSDOF 4
