REMARK  Name = ZINC10003483
REMARK  5 active torsions:
REMARK  status: ('A' for Active; 'I' for Inactive)
REMARK    1  A    between atoms: C_3  and  N_9
REMARK    2  A    between atoms: C_13  and  C_14
REMARK    3  A    between atoms: C_14  and  N_40
REMARK    4  A    between atoms: C_15  and  C_16
REMARK    5  A    between atoms: C_15  and  N_40
REMARK                            x       y       z     vdW  Elec       q    Type
REMARK                         _______ _______ _______ _____ _____    ______ ____
ROOT
ATOM      1  C   UNL     1       7.414  -1.190   1.764  0.00  0.00    -0.027 C 
ENDROOT
BRANCH   1   6
ATOM      2  N   UNL     1       8.597  -2.906   0.279  0.00  0.00    -0.321 N 
ATOM      3  C   UNL     1       9.504  -2.891  -0.741  0.00  0.00    +0.091 A 
ATOM      4  C   UNL     1       9.839  -1.608  -0.988  0.00  0.00    +0.020 A 
ATOM      5  C   UNL     1       9.110  -0.801  -0.092  0.00  0.00    +0.021 A 
ATOM      6  C   UNL     1       8.356  -1.619   0.669  0.00  0.00    +0.007 A 
BRANCH   2   9
ATOM      7  C   UNL     1       8.207  -6.107   2.053  0.00  0.00    +0.004 A 
ATOM      8  C   UNL     1       8.789  -4.978   1.508  0.00  0.00    +0.028 A 
ATOM      9  C   UNL     1       8.008  -4.052   0.833  0.00  0.00    +0.066 A 
ATOM     10  C   UNL     1       6.639  -4.259   0.711  0.00  0.00    +0.083 A 
ATOM     11  C   UNL     1       6.063  -5.394   1.253  0.00  0.00    +0.061 A 
ATOM     12  C   UNL     1       6.846  -6.314   1.926  0.00  0.00    +0.021 A 
ATOM     13 CL   UNL     1       4.354  -5.658   1.096  0.00  0.00    -0.082 Cl
ATOM     14 CL   UNL     1       5.656  -3.100  -0.128  0.00  0.00    -0.080 Cl
ENDBRANCH   2   9
ENDBRANCH   1   6
BRANCH   1  15
ATOM     15  N   UNL     1       6.051  -1.076   1.213  0.00  0.00    +0.385 N 
ATOM     16  H   UNL     1       5.759  -1.987   0.840  0.00  0.00    -0.085 HD
ATOM     17  H   UNL     1       6.048  -0.380   0.458  0.00  0.00    -0.085 HD
BRANCH  15  18
ATOM     18  C   UNL     1       5.107  -0.655   2.265  0.00  0.00    -0.046 C 
BRANCH  18  19
ATOM     19  C   UNL     1       3.725  -0.548   1.674  0.00  0.00    -0.061 A 
ATOM     20  C   UNL     1       2.885  -1.646   1.677  0.00  0.00    +0.005 A 
ATOM     21  C   UNL     1       1.617  -1.553   1.135  0.00  0.00    +0.050 A 
ATOM     22  C   UNL     1       1.183  -0.356   0.589  0.00  0.00    +0.166 A 
ATOM     23  C   UNL     1       2.028   0.751   0.586  0.00  0.00    +0.166 A 
ATOM     24  C   UNL     1       3.298   0.650   1.131  0.00  0.00    +0.051 A 
ATOM     25  O   UNL     1       1.376   1.797  -0.001  0.00  0.00    -0.453 OA
ATOM     26  C   UNL     1      -0.018   1.436   0.010  0.00  0.00    +0.466 C 
ATOM     27  O   UNL     1       0.002  -0.004   0.002  0.00  0.00    -0.453 OA
ENDBRANCH  18  19
ENDBRANCH  15  18
ENDBRANCH   1  15
TORSDOF 5
