REMARK  Name = ZINC27548265
REMARK  5 active torsions:
REMARK  status: ('A' for Active; 'I' for Inactive)
REMARK    1  A    between atoms: C_1  and  C_2
REMARK    2  A    between atoms: N_11  and  N_12
REMARK    3  A    between atoms: N_12  and  C_13
REMARK    4  A    between atoms: C_16  and  S_19
REMARK    5  A    between atoms: S_19  and  N_22
REMARK                            x       y       z     vdW  Elec       q    Type
REMARK                         _______ _______ _______ _____ _____    ______ ____
ROOT
ATOM      1  C   UNL     1      -0.142  -0.924   4.692  0.00  0.00    +0.048 A 
ATOM      2  C   UNL     1      -0.163   0.430   5.006  0.00  0.00    +0.026 A 
ATOM      3  C   UNL     1      -0.260   0.829   6.325  0.00  0.00    +0.030 A 
ATOM      4  C   UNL     1      -0.335  -0.116   7.332  0.00  0.00    +0.106 A 
ATOM      5  C   UNL     1      -0.314  -1.464   7.022  0.00  0.00    +0.030 A 
ATOM      6  C   UNL     1      -0.224  -1.871   5.706  0.00  0.00    +0.026 A 
ENDROOT
BRANCH   4   7
ATOM      7  S   UNL     1      -0.458   0.398   9.012  0.00  0.00    +0.061 S 
ATOM      8  O   UNL     1       0.035  -0.676   9.802  0.00  0.00    -0.153 OA
ATOM      9  O   UNL     1       0.091   1.707   9.078  0.00  0.00    -0.153 OA
BRANCH   7  10
ATOM     10  N   UNL     1      -2.070   0.543   9.364  0.00  0.00    -0.172 NA
ATOM     11  C   UNL     1      -2.780   1.814   9.151  0.00  0.00    +0.137 C 
ATOM     12  C   UNL     1      -4.051   1.529   8.344  0.00  0.00    +0.177 C 
ATOM     13  O   UNL     1      -4.792   0.487   8.984  0.00  0.00    -0.377 OA
ATOM     14  C   UNL     1      -4.103  -0.763   9.053  0.00  0.00    +0.177 C 
ATOM     15  C   UNL     1      -2.836  -0.597   9.891  0.00  0.00    +0.137 C 
ENDBRANCH   7  10
ENDBRANCH   4   7
BRANCH   1  16
ATOM     16  N   UNL     1      -0.045  -1.331   3.361  0.00  0.00    -0.237 N 
ATOM     17  H   UNL     1      -0.034  -2.276   3.143  0.00  0.00    +0.174 HD
BRANCH  16  28
ATOM     18  C   UNL     1       0.484   1.460   0.018  0.00  0.00    +0.068 C 
ATOM     19  C   UNL     1       0.212  -0.022   0.005  0.00  0.00    +0.066 C 
ATOM     20  N   UNL     1       0.127  -0.763  -1.064  0.00  0.00    -0.250 NA
ATOM     21  C   UNL     1      -0.126  -2.063  -0.773  0.00  0.00    +0.073 A 
ATOM     22  C   UNL     1      -0.298  -3.200  -1.569  0.00  0.00    +0.028 A 
ATOM     23  C   UNL     1      -0.551  -4.419  -0.980  0.00  0.00    +0.002 A 
ATOM     24  C   UNL     1      -0.638  -4.536   0.400  0.00  0.00    +0.001 A 
ATOM     25  C   UNL     1      -0.472  -3.428   1.205  0.00  0.00    +0.012 A 
ATOM     26  C   UNL     1      -0.217  -2.192   0.629  0.00  0.00    +0.029 A 
ATOM     27  C   UNL     1       0.015  -0.831   1.158  0.00  0.00    +0.112 C 
ATOM     28  N   UNL     1       0.032  -0.451   2.421  0.00  0.00    -0.180 NA
ENDBRANCH  16  28
ENDBRANCH   1  16
TORSDOF 4
