REMARK  Name = ZINC20759893
REMARK  2 active torsions:
REMARK  status: ('A' for Active; 'I' for Inactive)
REMARK    1  A    between atoms: C_4  and  N_7
REMARK    2  A    between atoms: C_11  and  N_15
REMARK                            x       y       z     vdW  Elec       q    Type
REMARK                         _______ _______ _______ _____ _____    ______ ____
ROOT
ATOM      1  N   UNL     1       5.432  -3.245  -1.167  0.00  0.00    -0.286 NA
ATOM      2  C   UNL     1       4.975  -2.598  -2.405  0.00  0.00    +0.091 C 
ATOM      3  C   UNL     1       5.597  -3.308  -3.615  0.00  0.00    +0.069 C 
ATOM      4  C   UNL     1       5.376  -4.793  -3.451  0.00  0.00    +0.023 A 
ATOM      5  C   UNL     1       5.024  -5.356  -2.272  0.00  0.00    -0.005 A 
ATOM      6  C   UNL     1       4.901  -6.779  -2.501  0.00  0.00    +0.004 A 
ATOM      7  C   UNL     1       4.568  -7.850  -1.666  0.00  0.00    +0.010 A 
ATOM      8  C   UNL     1       4.548  -9.099  -2.236  0.00  0.00    +0.001 A 
ATOM      9  C   UNL     1       4.843  -9.303  -3.574  0.00  0.00    +0.002 A 
ATOM     10  C   UNL     1       5.176  -8.261  -4.423  0.00  0.00    +0.026 A 
ATOM     11  C   UNL     1       5.205  -6.982  -3.872  0.00  0.00    +0.047 A 
ATOM     12  N   UNL     1       5.487  -5.760  -4.412  0.00  0.00    -0.358 N 
ATOM     13  H   UNL     1       5.729  -5.601  -5.338  0.00  0.00    +0.166 HD
ATOM     14  C   UNL     1       4.820  -4.574  -1.000  0.00  0.00    +0.122 C 
ENDROOT
BRANCH   1  19
ATOM     15  N   UNL     1       3.624  -0.652  -0.037  0.00  0.00    -0.209 N 
ATOM     16  C   UNL     1       4.802  -0.025  -0.139  0.00  0.00    +0.228 C 
ATOM     17  O   UNL     1       4.954   1.175  -0.226  0.00  0.00    -0.275 OA
ATOM     18  C   UNL     1       5.915  -1.050  -0.127  0.00  0.00    +0.125 C 
ATOM     19  C   UNL     1       5.167  -2.393   0.001  0.00  0.00    +0.153 C 
ATOM     20  C   UNL     1       3.711  -1.985   0.053  0.00  0.00    +0.244 C 
ATOM     21  O   UNL     1       2.772  -2.745   0.157  0.00  0.00    -0.273 OA
BRANCH  15  25
ATOM     22  C   UNL     1      -0.016   1.380   0.011  0.00  0.00    +0.000 A 
ATOM     23  C   UNL     1       0.420   0.718   1.145  0.00  0.00    +0.002 A 
ATOM     24  C   UNL     1       1.625   0.044   1.131  0.00  0.00    +0.024 A 
ATOM     25  C   UNL     1       2.399   0.031  -0.021  0.00  0.00    +0.044 A 
ATOM     26  C   UNL     1       1.959   0.696  -1.157  0.00  0.00    +0.024 A 
ATOM     27  C   UNL     1       0.753   1.369  -1.138  0.00  0.00    +0.002 A 
ENDBRANCH  15  25
ENDBRANCH   1  19
TORSDOF 2
