REMARK  Name = ZINC12867266
REMARK  8 active torsions:
REMARK  status: ('A' for Active; 'I' for Inactive)
REMARK    1  A    between atoms: C_1  and  C_2
REMARK    2  A    between atoms: C_2  and  C_4
REMARK    3  A    between atoms: C_2  and  S_11
REMARK    4  A    between atoms: N_9  and  C_10
REMARK    5  A    between atoms: S_11  and  C_12
REMARK    6  A    between atoms: N_25  and  C_26
REMARK    7  A    between atoms: C_29  and  O_32
REMARK    8  A    between atoms: O_32  and  C_33
REMARK                            x       y       z     vdW  Elec       q    Type
REMARK                         _______ _______ _______ _____ _____    ______ ____
ROOT
ATOM      1  C   UNL     1      -2.574  -4.700   0.176  0.00  0.00    +0.178 A 
ATOM      2  N   UNL     1      -1.393  -5.139  -0.209  0.00  0.00    -0.215 NA
ATOM      3  C   UNL     1      -0.920  -6.298   0.236  0.00  0.00    +0.118 A 
ATOM      4  C   UNL     1      -1.646  -7.112   1.120  0.00  0.00    +0.077 A 
ATOM      5  C   UNL     1      -0.998  -8.366   1.529  0.00  0.00    -0.012 A 
ATOM      6  C   UNL     1       0.226  -8.604   0.997  0.00  0.00    +0.051 A 
ATOM      7  S   UNL     1       0.579  -7.210  -0.034  0.00  0.00    -0.062 S 
ATOM      8  S   UNL     1       1.234 -10.015   1.282  0.00  0.00    -0.118 S 
ATOM      9  C   UNL     1       0.356 -10.817   2.666  0.00  0.00    +0.075 C 
ATOM     10  C   UNL     1      -1.144 -10.747   2.347  0.00  0.00    +0.016 C 
ATOM     11  C   UNL     1      -1.664  -9.327   2.502  0.00  0.00    +0.038 C 
ATOM     12  C   UNL     1      -2.927  -6.615   1.516  0.00  0.00    +0.268 A 
ATOM     13  O   UNL     1      -3.629  -7.255   2.280  0.00  0.00    -0.267 OA
ATOM     14  N   UNL     1      -3.348  -5.431   1.033  0.00  0.00    -0.255 N 
ENDROOT
BRANCH  14  15
ATOM     15  C   UNL     1      -4.603  -4.938   1.417  0.00  0.00    +0.052 A 
ATOM     16  C   UNL     1      -4.719  -4.136   2.544  0.00  0.00    +0.030 A 
ATOM     17  C   UNL     1      -5.954  -3.646   2.919  0.00  0.00    +0.047 A 
ATOM     18  C   UNL     1      -7.082  -3.965   2.176  0.00  0.00    +0.120 A 
ATOM     19  C   UNL     1      -6.967  -4.772   1.053  0.00  0.00    +0.047 A 
ATOM     20  C   UNL     1      -5.732  -5.257   0.674  0.00  0.00    +0.030 A 
BRANCH  18  21
ATOM     21  O   UNL     1      -8.299  -3.488   2.548  0.00  0.00    -0.495 OA
ATOM     22  C   UNL     1      -8.343  -2.663   3.715  0.00  0.00    +0.277 C 
ENDBRANCH  18  21
ENDBRANCH  14  15
BRANCH   1  23
ATOM     23  S   UNL     1      -3.167  -3.155  -0.429  0.00  0.00    -0.075 S 
BRANCH  23  25
ATOM     24  C   UNL     1      -1.639  -3.657  -2.637  0.00  0.00    +0.029 C 
ATOM     25  C   UNL     1      -1.772  -2.671  -1.475  0.00  0.00    +0.137 C 
BRANCH  25  26
ATOM     26  C   UNL     1      -2.008  -1.285  -2.018  0.00  0.00    +0.233 C 
ATOM     27  O   UNL     1      -3.130  -0.827  -2.043  0.00  0.00    -0.274 OA
ATOM     28  N   UNL     1      -0.972  -0.554  -2.475  0.00  0.00    -0.239 N 
ATOM     29  C   UNL     1      -1.184   0.685  -2.961  0.00  0.00    +0.306 C 
ATOM     30  O   UNL     1      -2.309   1.142  -2.990  0.00  0.00    -0.252 OA
ATOM     31  N   UNL     1      -0.147   1.416  -3.418  0.00  0.00    -0.302 N 
ATOM     32  C   UNL     1      -0.378   2.763  -3.946  0.00  0.00    +0.129 C 
ATOM     33  H   UNL     1      -0.074  -0.920  -2.455  0.00  0.00    +0.159 HD
ATOM     34  H   UNL     1       0.750   1.049  -3.398  0.00  0.00    +0.150 HD
ENDBRANCH  25  26
ENDBRANCH  23  25
ENDBRANCH   1  23
TORSDOF 5
