REMARK  Name = ZINC08655741
REMARK  3 active torsions:
REMARK  status: ('A' for Active; 'I' for Inactive)
REMARK    1  A    between atoms: C_1  and  O_2
REMARK    2  A    between atoms: O_2  and  C_3
REMARK    3  A    between atoms: C_3  and  C_5
REMARK                            x       y       z     vdW  Elec       q    Type
REMARK                         _______ _______ _______ _____ _____    ______ ____
ROOT
ATOM      1  C   UNL     1      -1.548   4.377   3.016  0.00  0.00    +0.153 A 
ATOM      2  C   UNL     1      -0.798   3.671   2.075  0.00  0.00    -0.011 A 
ATOM      3  C   UNL     1       0.035   2.654   2.526  0.00  0.00    -0.028 A 
ATOM      4  C   UNL     1       0.039   2.349   3.889  0.00  0.00    +0.063 A 
ATOM      5  C   UNL     1       0.735   1.329   4.702  0.00  0.00    +0.128 A 
ATOM      6  N   UNL     1       0.329   1.522   6.009  0.00  0.00    -0.283 N 
ATOM      7  H   UNL     1       0.622   0.999   6.772  0.00  0.00    +0.188 HD
ATOM      8  N   UNL     1      -0.571   2.590   6.051  0.00  0.00    -0.281 N 
ATOM      9  H   UNL     1      -1.000   2.928   6.851  0.00  0.00    +0.188 HD
ATOM     10  C   UNL     1      -0.757   3.095   4.775  0.00  0.00    +0.157 A 
ATOM     11  N   UNL     1      -1.504   4.077   4.311  0.00  0.00    -0.221 NA
ATOM     12  C   UNL     1       0.951   1.891   1.608  0.00  0.00    +0.036 C 
ATOM     13  C   UNL     1       0.159   1.028   0.630  0.00  0.00    +0.005 C 
ATOM     14  C   UNL     1       1.133   0.301  -0.303  0.00  0.00    +0.000 C 
ATOM     15  C   UNL     1       0.751   0.569  -1.759  0.00  0.00    +0.000 C 
ATOM     16  C   UNL     1       1.324   1.913  -2.211  0.00  0.00    +0.000 C 
ATOM     17  C   UNL     1       0.187   2.912  -2.430  0.00  0.00    +0.000 C 
ATOM     18  C   UNL     1       0.749   4.331  -2.486  0.00  0.00    +0.000 C 
ATOM     19  C   UNL     1       0.307   5.134  -1.265  0.00  0.00    +0.000 C 
ATOM     20  C   UNL     1       0.479   4.302   0.008  0.00  0.00    +0.005 C 
ATOM     21  C   UNL     1      -0.892   4.002   0.611  0.00  0.00    +0.038 C 
ATOM     22  H   UNL     1       2.014  -0.247   4.843  0.00  0.00    +0.157 HD
ATOM     23  N   UNL     1       1.572   0.426   4.217  0.00  0.00    -0.383 N 
ATOM     24  H   UNL     1       1.775   0.403   3.211  0.00  0.00    +0.157 HD
ENDROOT
BRANCH   1  25
ATOM     25  C   UNL     1      -2.429   5.498   2.611  0.00  0.00    +0.358 C 
ATOM     26  O   UNL     1      -1.948   6.575   2.322  0.00  0.00    -0.243 OA
BRANCH  25  28
ATOM     27  C   UNL     1      -4.564   6.464   2.158  0.00  0.00    +0.280 C 
ATOM     28  O   UNL     1      -3.763   5.322   2.563  0.00  0.00    -0.463 OA
ENDBRANCH  25  28
ENDBRANCH   1  25
TORSDOF 2
