REMARK  Name = ZINC39666244
REMARK  9 active torsions:
REMARK  status: ('A' for Active; 'I' for Inactive)
REMARK    1  A    between atoms: C_1  and  C_2
REMARK    2  A    between atoms: C_5  and  O_8
REMARK    3  A    between atoms: O_8  and  C_9
REMARK    4  A    between atoms: C_9  and  C_11
REMARK    5  A    between atoms: C_9  and  C_12
REMARK    6  A    between atoms: C_12  and  N_13
REMARK    7  A    between atoms: C_14  and  C_16
REMARK    8  A    between atoms: C_27  and  C_29
REMARK    9  A    between atoms: C_32  and  C_34
REMARK                            x       y       z     vdW  Elec       q    Type
REMARK                         _______ _______ _______ _____ _____    ______ ____
ROOT
ATOM      1  C   UNL     1      -3.819  -6.444  -0.079  0.00  0.00    +0.100 C 
ATOM      2  C   UNL     1      -3.689  -5.842  -1.496  0.00  0.00    +0.121 C 
ATOM      3  N   UNL     1      -3.913  -6.986  -2.411  0.00  0.00    -0.294 N 
ATOM      4  C   UNL     1      -5.001  -7.762  -1.770  0.00  0.00    +0.115 C 
ATOM      5  C   UNL     1      -4.685  -7.702  -0.262  0.00  0.00    -0.004 C 
ATOM      6  C   UNL     1      -5.974  -7.578   0.544  0.00  0.00    -0.010 C 
ATOM      7  C   UNL     1      -6.791  -8.865   0.392  0.00  0.00    -0.082 C 
ATOM      8  N   UNL     1      -6.000 -10.007   0.867  0.00  0.00    +0.379 N 
ATOM      9  C   UNL     1      -4.808 -10.175   0.027  0.00  0.00    -0.082 C 
ATOM     10  C   UNL     1      -3.908  -8.944   0.163  0.00  0.00    -0.010 C 
ATOM     11  C   UNL     1      -3.273  -7.259  -3.565  0.00  0.00    +0.282 C 
ATOM     12  O   UNL     1      -3.636  -8.192  -4.257  0.00  0.00    -0.267 OA
ATOM     13  H   UNL     1      -5.717  -9.845   1.822  0.00  0.00    -0.086 HD
ATOM     14  H   UNL     1      -6.562 -10.844   0.824  0.00  0.00    -0.086 HD
ENDROOT
BRANCH  11  15
ATOM     15  C   UNL     1      -2.139  -6.432  -3.986  0.00  0.00    +0.190 A 
ATOM     16  C   UNL     1      -1.464  -6.535  -5.183  0.00  0.00    +0.055 A 
ATOM     17  C   UNL     1      -0.462  -5.560  -5.166  0.00  0.00    +0.050 A 
ATOM     18  C   UNL     1      -0.561  -4.903  -3.973  0.00  0.00    +0.136 A 
ATOM     19  O   UNL     1      -1.578  -5.433  -3.273  0.00  0.00    -0.450 OA
BRANCH  18  20
ATOM     20  C   UNL     1       0.303  -3.792  -3.528  0.00  0.00    +0.017 A 
ATOM     21  C   UNL     1       1.254  -3.251  -4.397  0.00  0.00    +0.014 A 
ATOM     22  C   UNL     1       2.057  -2.213  -3.977  0.00  0.00    +0.039 A 
ATOM     23  C   UNL     1       1.924  -1.705  -2.693  0.00  0.00    +0.123 A 
ATOM     24  C   UNL     1       0.983  -2.238  -1.826  0.00  0.00    +0.039 A 
ATOM     25  C   UNL     1       0.170  -3.273  -2.238  0.00  0.00    +0.014 A 
ATOM     26  F   UNL     1       2.714  -0.688  -2.287  0.00  0.00    -0.205 F 
ENDBRANCH  18  20
ENDBRANCH  11  15
BRANCH   1  28
ATOM     27  N   UNL     1      -2.276  -6.937   1.790  0.00  0.00    -0.312 N 
ATOM     28  C   UNL     1      -2.462  -6.814   0.461  0.00  0.00    +0.218 C 
ATOM     29  O   UNL     1      -1.537  -7.003  -0.301  0.00  0.00    -0.275 OA
ATOM     30  H   UNL     1      -3.030  -6.857   2.395  0.00  0.00    +0.149 HD
BRANCH  27  31
ATOM     31  C   UNL     1      -0.934  -7.190   2.322  0.00  0.00    +0.148 C 
BRANCH  31  32
ATOM     32  C   UNL     1      -0.978  -7.160   3.851  0.00  0.00    +0.187 C 
ATOM     33  C   UNL     1       0.408  -7.493   4.407  0.00  0.00    +0.053 C 
BRANCH  32  34
ATOM     34  O   UNL     1      -1.367  -5.858   4.291  0.00  0.00    -0.488 OA
BRANCH  34  39
ATOM     35  C   UNL     1      -3.666  -5.473   9.419  0.00  0.00    +0.044 C 
ATOM     36  C   UNL     1      -3.051  -5.576   8.047  0.00  0.00    -0.050 A 
ATOM     37  C   UNL     1      -2.822  -4.431   7.306  0.00  0.00    +0.007 A 
ATOM     38  C   UNL     1      -2.259  -4.523   6.048  0.00  0.00    +0.046 A 
ATOM     39  C   UNL     1      -1.921  -5.765   5.529  0.00  0.00    +0.121 A 
ATOM     40  C   UNL     1      -2.152  -6.911   6.275  0.00  0.00    +0.046 A 
ATOM     41  C   UNL     1      -2.711  -6.814   7.535  0.00  0.00    +0.007 A 
ENDBRANCH  34  39
ENDBRANCH  32  34
ENDBRANCH  31  32
ENDBRANCH  27  31
ENDBRANCH   1  28
TORSDOF 7
