REMARK  Name = ZINC39623734
REMARK  6 active torsions:
REMARK  status: ('A' for Active; 'I' for Inactive)
REMARK    1  A    between atoms: C_4  and  C_7
REMARK    2  A    between atoms: C_7  and  C_8
REMARK    3  A    between atoms: C_8  and  C_9
REMARK    4  A    between atoms: C_9  and  N_10
REMARK    5  A    between atoms: C_11  and  C_13
REMARK    6  A    between atoms: C_24  and  C_26
REMARK                            x       y       z     vdW  Elec       q    Type
REMARK                         _______ _______ _______ _____ _____    ______ ____
ROOT
ATOM      1  C   UNL     1       7.623  -2.772   4.320  0.00  0.00    +0.100 C 
ATOM      2  C   UNL     1       7.959  -1.465   5.072  0.00  0.00    +0.121 C 
ATOM      3  N   UNL     1       9.130  -1.807   5.913  0.00  0.00    -0.297 N 
ATOM      4  C   UNL     1       9.958  -2.686   5.053  0.00  0.00    +0.115 C 
ATOM      5  C   UNL     1       8.938  -3.570   4.309  0.00  0.00    -0.004 C 
ATOM      6  C   UNL     1       9.397  -3.811   2.874  0.00  0.00    -0.010 C 
ATOM      7  C   UNL     1      10.674  -4.656   2.887  0.00  0.00    -0.082 C 
ATOM      8  N   UNL     1      10.410  -5.934   3.559  0.00  0.00    +0.379 N 
ATOM      9  C   UNL     1      10.059  -5.698   4.965  0.00  0.00    -0.082 C 
ATOM     10  C   UNL     1       8.757  -4.897   5.040  0.00  0.00    -0.010 C 
ATOM     11  C   UNL     1       9.384  -1.410   7.176  0.00  0.00    +0.260 C 
ATOM     12  O   UNL     1       8.561  -0.760   7.785  0.00  0.00    -0.271 OA
ATOM     13  H   UNL     1       9.646  -6.404   3.098  0.00  0.00    -0.086 HD
ATOM     14  H   UNL     1      11.235  -6.514   3.513  0.00  0.00    -0.086 HD
ENDROOT
BRANCH  11  15
ATOM     15  C   UNL     1      10.692  -1.773   7.831  0.00  0.00    +0.296 C 
ATOM     16  C   UNL     1      11.842  -1.032   7.136  0.00  0.00    +0.283 C 
ATOM     17  O   UNL     1      13.065  -1.388   7.790  0.00  0.00    -0.484 OA
ATOM     18  C   UNL     1      13.060  -1.361   9.151  0.00  0.00    +0.162 A 
ATOM     19  C   UNL     1      14.267  -1.335   9.835  0.00  0.00    +0.049 A 
ATOM     20  C   UNL     1      14.278  -1.312  11.217  0.00  0.00    +0.004 A 
ATOM     21  C   UNL     1      13.088  -1.314  11.921  0.00  0.00    +0.004 A 
ATOM     22  C   UNL     1      11.883  -1.339  11.245  0.00  0.00    +0.049 A 
ATOM     23  C   UNL     1      11.864  -1.361   9.858  0.00  0.00    +0.163 A 
ATOM     24  O   UNL     1      10.669  -1.377   9.207  0.00  0.00    -0.473 OA
ENDBRANCH  11  15
BRANCH   1  26
ATOM     25  N   UNL     1       6.433  -3.360   2.233  0.00  0.00    -0.315 N 
ATOM     26  C   UNL     1       7.181  -2.468   2.912  0.00  0.00    +0.218 C 
ATOM     27  O   UNL     1       7.500  -1.421   2.389  0.00  0.00    -0.275 OA
ATOM     28  H   UNL     1       6.178  -4.197   2.651  0.00  0.00    +0.149 HD
BRANCH  25  29
ATOM     29  C   UNL     1       6.003  -3.065   0.864  0.00  0.00    +0.104 C 
BRANCH  29  30
ATOM     30  C   UNL     1       5.173  -4.232   0.327  0.00  0.00    +0.023 C 
BRANCH  30  31
ATOM     31  C   UNL     1       4.724  -3.924  -1.103  0.00  0.00    +0.036 C 
BRANCH  31  35
ATOM     32  C   UNL     1       2.405  -7.181  -2.604  0.00  0.00    +0.000 A 
ATOM     33  C   UNL     1       1.785  -6.141  -1.938  0.00  0.00    +0.000 A 
ATOM     34  C   UNL     1       2.536  -5.087  -1.452  0.00  0.00    +0.003 A 
ATOM     35  C   UNL     1       3.906  -5.073  -1.632  0.00  0.00    -0.047 A 
ATOM     36  C   UNL     1       4.526  -6.114  -2.298  0.00  0.00    +0.003 A 
ATOM     37  C   UNL     1       3.776  -7.168  -2.785  0.00  0.00    +0.000 A 
ENDBRANCH  31  35
ENDBRANCH  30  31
ENDBRANCH  29  30
ENDBRANCH  25  29
ENDBRANCH   1  26
TORSDOF 6
