REMARK  Name = ZINC09563006
REMARK  5 active torsions:
REMARK  status: ('A' for Active; 'I' for Inactive)
REMARK    1  A    between atoms: C_6  and  N_7
REMARK    2  A    between atoms: N_14  and  N_17
REMARK    3  A    between atoms: C_18  and  C_20
REMARK    4  A    between atoms: C_20  and  O_21
REMARK    5  A    between atoms: O_21  and  C_22
REMARK                            x       y       z     vdW  Elec       q    Type
REMARK                         _______ _______ _______ _____ _____    ______ ____
ROOT
ATOM      1  N   UNL     1       0.002  -0.004   0.002  0.00  0.00    -0.214 N 
ATOM      2  C   UNL     1       1.300  -0.413  -0.013  0.00  0.00    +0.170 A 
ATOM      3  C   UNL     1       2.086   0.750  -0.014  0.00  0.00    +0.105 A 
ATOM      4  C   UNL     1       1.207   1.849   0.001  0.00  0.00    +0.150 A 
ATOM      5  N   UNL     1      -0.017   1.396   0.010  0.00  0.00    -0.172 NA
ATOM      6  C   UNL     1       3.541   0.599  -0.029  0.00  0.00    +0.282 A 
ATOM      7  O   UNL     1       4.278   1.569  -0.032  0.00  0.00    -0.265 OA
ATOM      8  N   UNL     1       4.038  -0.660  -0.041  0.00  0.00    -0.212 N 
ATOM      9  C   UNL     1       3.200  -1.727  -0.038  0.00  0.00    +0.224 A 
ATOM     10  N   UNL     1       1.904  -1.611  -0.025  0.00  0.00    -0.216 NA
ENDROOT
BRANCH   1  16
ATOM     11  C   UNL     1      -1.101  -2.039  -0.692  0.00  0.00    +0.030 A 
ATOM     12  C   UNL     1      -2.208  -2.864  -0.681  0.00  0.00    +0.040 A 
ATOM     13  C   UNL     1      -3.343  -2.492   0.020  0.00  0.00    +0.124 A 
ATOM     14  C   UNL     1      -3.368  -1.294   0.715  0.00  0.00    +0.040 A 
ATOM     15  C   UNL     1      -2.261  -0.469   0.710  0.00  0.00    +0.030 A 
ATOM     16  C   UNL     1      -1.122  -0.841   0.008  0.00  0.00    +0.068 A 
ATOM     17  F   UNL     1      -4.427  -3.298   0.026  0.00  0.00    -0.205 F 
ENDBRANCH   1  16
BRANCH   8  18
ATOM     18  N   UNL     1       5.425  -0.863  -0.055  0.00  0.00    -0.216 N 
ATOM     19  C   UNL     1       6.037  -1.253  -1.191  0.00  0.00    +0.269 C 
ATOM     20  O   UNL     1       5.387  -1.429  -2.200  0.00  0.00    -0.270 OA
ATOM     21  H   UNL     1       5.944  -0.722   0.752  0.00  0.00    +0.176 HD
BRANCH  19  22
ATOM     22  C   UNL     1       7.528  -1.471  -1.207  0.00  0.00    +0.326 C 
BRANCH  22  23
ATOM     23  O   UNL     1       7.936  -1.878  -2.514  0.00  0.00    -0.483 OA
BRANCH  23  24
ATOM     24  C   UNL     1       9.261  -2.117  -2.701  0.00  0.00    +0.121 A 
ATOM     25  C   UNL     1      10.150  -1.958  -1.648  0.00  0.00    +0.047 A 
ATOM     26  C   UNL     1      11.496  -2.206  -1.838  0.00  0.00    +0.023 A 
ATOM     27  C   UNL     1      11.958  -2.603  -3.080  0.00  0.00    +0.041 A 
ATOM     28  C   UNL     1      11.073  -2.758  -4.133  0.00  0.00    +0.023 A 
ATOM     29  C   UNL     1       9.726  -2.515  -3.945  0.00  0.00    +0.047 A 
ATOM     30 CL   UNL     1      13.650  -2.909  -3.318  0.00  0.00    -0.084 Cl
ENDBRANCH  23  24
ENDBRANCH  22  23
ENDBRANCH  19  22
ENDBRANCH   8  18
TORSDOF 5
