REMARK  Name = ZINC42946233
REMARK  6 active torsions:
REMARK  status: ('A' for Active; 'I' for Inactive)
REMARK    1  A    between atoms: C_3  and  S_23
REMARK    2  A    between atoms: C_6  and  C_7
REMARK    3  A    between atoms: C_7  and  C_8
REMARK    4  A    between atoms: C_8  and  N_9
REMARK    5  A    between atoms: C_16  and  C_18
REMARK    6  A    between atoms: S_23  and  N_26
REMARK                            x       y       z     vdW  Elec       q    Type
REMARK                         _______ _______ _______ _____ _____    ______ ____
ROOT
ATOM      1  C   UNL     1      -1.745  -1.028  -1.429  0.00  0.00    +0.110 C 
ENDROOT
BRANCH   1   2
ATOM      2  N   UNL     1      -3.004  -1.778  -1.420  0.00  0.00    -0.299 N 
ATOM      3  C   UNL     1      -3.594  -2.117  -2.584  0.00  0.00    +0.303 C 
ATOM      4  O   UNL     1      -3.082  -1.800  -3.640  0.00  0.00    -0.253 OA
ATOM      5  N   UNL     1      -4.752  -2.807  -2.576  0.00  0.00    -0.279 N 
ATOM      6  C   UNL     1      -5.482  -3.247  -1.373  0.00  0.00    +0.110 C 
ATOM      7  C   UNL     1      -6.325  -4.459  -1.842  0.00  0.00    +0.021 C 
ATOM      8  C   UNL     1      -6.738  -4.016  -3.271  0.00  0.00    +0.029 C 
ATOM      9  C   UNL     1      -5.500  -3.239  -3.766  0.00  0.00    +0.108 C 
ATOM     10  H   UNL     1      -3.412  -2.031  -0.578  0.00  0.00    +0.150 HD
BRANCH   9  11
ATOM     11  C   UNL     1      -5.932  -2.036  -4.564  0.00  0.00    -0.020 A 
ATOM     12  C   UNL     1      -5.913  -2.067  -5.946  0.00  0.00    +0.013 A 
ATOM     13  C   UNL     1      -6.308  -0.968  -6.634  0.00  0.00    +0.045 A 
ATOM     14  S   UNL     1      -6.725   0.162  -5.317  0.00  0.00    -0.105 S 
ATOM     15  C   UNL     1      -6.351  -0.909  -3.938  0.00  0.00    +0.050 A 
ENDBRANCH   9  11
ENDBRANCH   1   2
BRANCH   1  16
ATOM     16  C   UNL     1      -1.293  -0.775   0.011  0.00  0.00    +0.054 C 
BRANCH  16  22
ATOM     17  C   UNL     1      -0.017   1.378   0.010  0.00  0.00    +0.005 A 
ATOM     18  C   UNL     1       1.171   2.086   0.002  0.00  0.00    +0.029 A 
ATOM     19  C   UNL     1       2.377   1.411  -0.013  0.00  0.00    +0.105 A 
ATOM     20  C   UNL     1       2.396   0.029  -0.020  0.00  0.00    +0.029 A 
ATOM     21  C   UNL     1       1.208  -0.679  -0.012  0.00  0.00    +0.005 A 
ATOM     22  C   UNL     1       0.002  -0.004   0.002  0.00  0.00    -0.046 A 
BRANCH  19  23
ATOM     23  S   UNL     1       3.891   2.312  -0.024  0.00  0.00    +0.056 S 
ATOM     24  O   UNL     1       4.872   1.453  -0.588  0.00  0.00    -0.153 OA
ATOM     25  O   UNL     1       3.597   3.593  -0.566  0.00  0.00    -0.153 OA
BRANCH  23  26
ATOM     26  N   UNL     1       4.327   2.556   1.555  0.00  0.00    -0.204 NA
ATOM     27  H   UNL     1       3.768   2.215   2.271  0.00  0.00    +0.144 HD
ATOM     28  H   UNL     1       5.142   3.039   1.764  0.00  0.00    +0.144 HD
ENDBRANCH  23  26
ENDBRANCH  19  23
ENDBRANCH  16  22
ENDBRANCH   1  16
TORSDOF 6
