REMARK  Name = ZINC06370579
REMARK  6 active torsions:
REMARK  status: ('A' for Active; 'I' for Inactive)
REMARK    1  A    between atoms: C_1  and  C_2
REMARK    2  A    between atoms: C_15  and  C_17
REMARK    3  A    between atoms: C_17  and  C_19
REMARK    4  A    between atoms: C_17  and  S_20
REMARK    5  A    between atoms: S_20  and  C_21
REMARK    6  A    between atoms: N_25  and  C_26
REMARK                            x       y       z     vdW  Elec       q    Type
REMARK                         _______ _______ _______ _____ _____    ______ ____
ROOT
ATOM      1  C   UNL     1       2.639 -10.244  -0.368  0.00  0.00    +0.008 C 
ATOM      2  C   UNL     1       2.492  -8.751  -0.667  0.00  0.00    -0.009 C 
ATOM      3  C   UNL     1       3.866  -8.077  -0.607  0.00  0.00    +0.008 C 
ATOM      4  C   UNL     1       3.769  -6.650  -1.147  0.00  0.00    +0.037 C 
ATOM      5  C   UNL     1       2.646  -5.922  -0.413  0.00  0.00    -0.023 A 
ATOM      6  C   UNL     1       1.696  -6.612   0.252  0.00  0.00    -0.004 A 
ATOM      7  S   UNL     1       0.625  -5.377   0.936  0.00  0.00    -0.073 S 
ATOM      8  C   UNL     1       1.459  -3.934   0.325  0.00  0.00    +0.116 A 
ATOM      9  C   UNL     1       2.543  -4.463  -0.392  0.00  0.00    +0.075 A 
ATOM     10  C   UNL     1       3.408  -3.501  -1.009  0.00  0.00    +0.260 A 
ATOM     11  O   UNL     1       4.378  -3.862  -1.653  0.00  0.00    -0.267 OA
ATOM     12  N   UNL     1       3.132  -2.191  -0.865  0.00  0.00    -0.309 N 
ATOM     13  H   UNL     1       3.731  -1.514  -1.292  0.00  0.00    +0.170 HD
ATOM     14  C   UNL     1       2.056  -1.771  -0.150  0.00  0.00    +0.124 A 
ATOM     15  N   UNL     1       1.253  -2.624   0.428  0.00  0.00    -0.225 NA
ATOM     16  C   UNL     1       1.578  -8.100   0.380  0.00  0.00    +0.046 C 
ENDROOT
BRANCH  14  17
ATOM     17  C   UNL     1       1.789  -0.294  -0.016  0.00  0.00    +0.117 C 
ATOM     18  C   UNL     1       2.402   0.219   1.289  0.00  0.00    +0.027 C 
BRANCH  17  19
ATOM     19  S   UNL     1       0.002  -0.004   0.002  0.00  0.00    -0.074 S 
BRANCH  19  20
ATOM     20  C   UNL     1      -0.022   1.758   0.012  0.00  0.00    +0.210 A 
ATOM     21  N   UNL     1       1.026   2.554   0.006  0.00  0.00    -0.102 NA
ATOM     22  N   UNL     1       0.656   3.783   0.016  0.00  0.00    -0.022 NA
ATOM     23  N   UNL     1      -0.631   3.865   0.029  0.00  0.00    -0.043 NA
ATOM     24  N   UNL     1      -1.122   2.547   0.021  0.00  0.00    -0.223 N 
ATOM     25  C   UNL     1      -2.523   2.120   0.023  0.00  0.00    +0.177 C 
ENDBRANCH  19  20
ENDBRANCH  17  19
ENDBRANCH  14  17
TORSDOF 3
