REMARK  Name = ZINC18341538
REMARK  6 active torsions:
REMARK  status: ('A' for Active; 'I' for Inactive)
REMARK    1  A    between atoms: N_7  and  C_12
REMARK    2  A    between atoms: C_12  and  C_13
REMARK    3  A    between atoms: C_13  and  C_14
REMARK    4  A    between atoms: C_14  and  O_16
REMARK    5  A    between atoms: O_16  and  C_17
REMARK    6  A    between atoms: C_17  and  C_18
REMARK                            x       y       z     vdW  Elec       q    Type
REMARK                         _______ _______ _______ _____ _____    ______ ____
ROOT
ATOM      1  C   UNL     1       3.283   7.049  -1.783  0.00  0.00    +0.308 C 
ENDROOT
BRANCH   1   2
ATOM      2  C   UNL     1       2.757   5.755  -1.217  0.00  0.00    +0.170 A 
ATOM      3  N   UNL     1       1.459   5.529  -1.272  0.00  0.00    -0.214 NA
ATOM      4  C   UNL     1       0.876   4.426  -0.807  0.00  0.00    +0.128 A 
ATOM      5  C   UNL     1       1.747   3.462  -0.223  0.00  0.00    +0.051 A 
ATOM      6  C   UNL     1       1.377   2.182   0.357  0.00  0.00    -0.025 A 
ATOM      7  C   UNL     1       2.383   1.428   0.856  0.00  0.00    -0.004 A 
ATOM      8  S   UNL     1       3.859   2.377   0.582  0.00  0.00    -0.073 S 
ATOM      9  C   UNL     1       3.129   3.779  -0.200  0.00  0.00    +0.114 A 
ATOM     10  N   UNL     1       3.623   4.901  -0.686  0.00  0.00    -0.221 NA
ATOM     11  C   UNL     1       2.273   0.080   1.500  0.00  0.00    +0.043 C 
ATOM     12  C   UNL     1       0.800  -0.174   1.850  0.00  0.00    +0.005 C 
ATOM     13  C   UNL     1      -0.060   0.172   0.631  0.00  0.00    +0.005 C 
ATOM     14  C   UNL     1      -0.065   1.685   0.412  0.00  0.00    +0.037 C 
ATOM     15  N   UNL     1      -0.491   4.229  -0.886  0.00  0.00    -0.343 N 
ATOM     16  H   UNL     1      -1.025   4.771  -1.487  0.00  0.00    +0.144 HD
ATOM     17  H   UNL     1      -0.915   3.547  -0.342  0.00  0.00    +0.144 HD
ENDBRANCH   1   2
BRANCH   1  18
ATOM     18  O   UNL     1       3.609   6.865  -3.186  0.00  0.00    -0.457 OA
BRANCH  18  19
ATOM     19  C   UNL     1       4.094   7.931  -3.843  0.00  0.00    +0.309 C 
ATOM     20  O   UNL     1       4.241   8.982  -3.265  0.00  0.00    -0.251 OA
BRANCH  19  21
ATOM     21  C   UNL     1       4.455   7.816  -5.302  0.00  0.00    +0.140 C 
BRANCH  21  22
ATOM     22  C   UNL     1       4.980   9.162  -5.805  0.00  0.00    +0.125 C 
BRANCH  22  29
ATOM     23  C   UNL     1       8.774   7.748  -7.096  0.00  0.00    +0.002 A 
ATOM     24  C   UNL     1       9.178   7.958  -8.402  0.00  0.00    +0.004 A 
ATOM     25  C   UNL     1       8.309   8.517  -9.317  0.00  0.00    +0.047 A 
ATOM     26  C   UNL     1       7.034   8.884  -8.924  0.00  0.00    +0.142 A 
ATOM     27  C   UNL     1       6.627   8.678  -7.608  0.00  0.00    +0.078 A 
ATOM     28  C   UNL     1       7.499   8.107  -6.696  0.00  0.00    +0.027 A 
ATOM     29  N   UNL     1       5.331   9.051  -7.223  0.00  0.00    -0.265 N 
ATOM     30  C   UNL     1       4.413   9.310  -8.179  0.00  0.00    +0.258 C 
ATOM     31  O   UNL     1       3.296   9.668  -7.870  0.00  0.00    -0.272 OA
ATOM     32  C   UNL     1       4.782   9.154  -9.632  0.00  0.00    +0.325 C 
ATOM     33  O   UNL     1       6.170   9.449  -9.810  0.00  0.00    -0.481 OA
ENDBRANCH  22  29
ENDBRANCH  21  22
ENDBRANCH  19  21
ENDBRANCH  18  19
ENDBRANCH   1  18
TORSDOF 6
