REMARK  Name = ZINC64399148
REMARK  9 active torsions:
REMARK  status: ('A' for Active; 'I' for Inactive)
REMARK    1  A    between atoms: C_1  and  C_2
REMARK    2  A    between atoms: C_2  and  C_3
REMARK    3  A    between atoms: C_2  and  C_4
REMARK    4  A    between atoms: C_2  and  N_5
REMARK    5  A    between atoms: C_9  and  C_11
REMARK    6  A    between atoms: C_11  and  N_12
REMARK    7  A    between atoms: N_12  and  C_13
REMARK    8  A    between atoms: C_18  and  S_19
REMARK    9  A    between atoms: S_19  and  C_20
REMARK                            x       y       z     vdW  Elec       q    Type
REMARK                         _______ _______ _______ _____ _____    ______ ____
ROOT
ATOM      1  N   UNL     1       0.688  -0.476  -1.203  0.00  0.00    -0.294 N 
ATOM      2  C   UNL     1       1.972  -0.132  -1.427  0.00  0.00    +0.306 C 
ATOM      3  O   UNL     1       2.560   0.570  -0.629  0.00  0.00    -0.252 OA
ATOM      4  N   UNL     1       2.602  -0.567  -2.536  0.00  0.00    -0.239 N 
ATOM      5  C   UNL     1       3.886  -0.223  -2.760  0.00  0.00    +0.237 C 
ATOM      6  O   UNL     1       4.473   0.478  -1.963  0.00  0.00    -0.274 OA
ATOM      7  H   UNL     1       0.218  -1.037  -1.840  0.00  0.00    +0.151 HD
ATOM      8  H   UNL     1       2.132  -1.127  -3.173  0.00  0.00    +0.159 HD
ENDROOT
BRANCH   1  10
ATOM      9  C   UNL     1      -0.019   1.526   0.010  0.00  0.00    +0.031 C 
ATOM     10  C   UNL     1       0.002  -0.004   0.002  0.00  0.00    +0.028 C 
ATOM     11  C   UNL     1       0.742  -0.511   1.242  0.00  0.00    +0.031 C 
ATOM     12  C   UNL     1      -1.433  -0.534   0.013  0.00  0.00    +0.031 C 
ENDBRANCH   1  10
BRANCH   5  13
ATOM     13  C   UNL     1       4.591  -0.709  -3.999  0.00  0.00    +0.198 C 
BRANCH  13  14
ATOM     14  N   UNL     1       5.966  -0.202  -4.010  0.00  0.00    -0.334 N 
ATOM     15  H   UNL     1       6.282   0.356  -3.282  0.00  0.00    +0.147 HD
BRANCH  14  16
ATOM     16  C   UNL     1       6.822  -0.522  -5.070  0.00  0.00    +0.042 A 
ATOM     17  C   UNL     1       6.370  -1.315  -6.114  0.00  0.00    +0.044 A 
ATOM     18  C   UNL     1       7.218  -1.631  -7.160  0.00  0.00    +0.043 A 
ATOM     19  C   UNL     1       8.518  -1.157  -7.169  0.00  0.00    +0.021 A 
ATOM     20  C   UNL     1       8.977  -0.366  -6.132  0.00  0.00    +0.018 A 
ATOM     21  C   UNL     1       8.132  -0.041  -5.082  0.00  0.00    +0.029 A 
ATOM     22 CL   UNL     1       6.650  -2.624  -8.466  0.00  0.00    -0.083 Cl
BRANCH  21  23
ATOM     23  S   UNL     1       8.712   0.973  -3.762  0.00  0.00    -0.127 S 
ATOM     24  C   UNL     1      10.429   1.341  -4.215  0.00  0.00    +0.090 C 
ENDBRANCH  21  23
ENDBRANCH  14  16
ENDBRANCH  13  14
ENDBRANCH   5  13
TORSDOF 5
