REMARK  Name = ZINC12492341
REMARK  7 active torsions:
REMARK  status: ('A' for Active; 'I' for Inactive)
REMARK    1  A    between atoms: C_1  and  C_2
REMARK    2  A    between atoms: C_2  and  C_3
REMARK    3  A    between atoms: C_14  and  S_17
REMARK    4  A    between atoms: S_17  and  C_18
REMARK    5  A    between atoms: C_18  and  C_19
REMARK    6  A    between atoms: C_22  and  C_30
REMARK    7  A    between atoms: C_27  and  C_29
REMARK                            x       y       z     vdW  Elec       q    Type
REMARK                         _______ _______ _______ _____ _____    ______ ____
ROOT
ATOM      1  C   UNL     1       8.763   6.242  -0.884  0.00  0.00    -0.047 A 
ATOM      2  C   UNL     1       9.761   5.433  -0.364  0.00  0.00    +0.005 A 
ATOM      3  C   UNL     1       9.453   4.213   0.199  0.00  0.00    +0.026 A 
ATOM      4  C   UNL     1       8.130   3.784   0.250  0.00  0.00    +0.050 A 
ATOM      5  C   UNL     1       7.121   4.604  -0.276  0.00  0.00    +0.029 A 
ATOM      6  C   UNL     1       7.447   5.834  -0.843  0.00  0.00    +0.016 A 
ATOM      7  C   UNL     1       5.852   3.884  -0.074  0.00  0.00    +0.137 A 
ATOM      8  C   UNL     1       6.183   2.670   0.564  0.00  0.00    +0.162 A 
ATOM      9  N   UNL     1       7.543   2.632   0.747  0.00  0.00    -0.338 N 
ATOM     10  H   UNL     1       8.167   1.851   1.208  0.00  0.00    +0.167 HD
ATOM     11  N   UNL     1       5.200   1.828   0.867  0.00  0.00    -0.201 NA
ATOM     12  C   UNL     1       3.952   2.147   0.553  0.00  0.00    +0.212 A 
ATOM     13  N   UNL     1       3.665   3.297  -0.049  0.00  0.00    -0.122 NA
ATOM     14  N   UNL     1       4.585   4.146  -0.356  0.00  0.00    -0.143 NA
ENDROOT
BRANCH   1  16
ATOM     15  C   UNL     1       9.083   8.656  -0.418  0.00  0.00    +0.009 C 
ATOM     16  C   UNL     1       9.118   7.572  -1.497  0.00  0.00    +0.032 C 
ENDBRANCH   1  16
BRANCH  12  17
ATOM     17  S   UNL     1       2.648   1.029   0.947  0.00  0.00    -0.075 S 
BRANCH  17  18
ATOM     18  C   UNL     1       1.232   1.962   0.316  0.00  0.00    +0.173 C 
BRANCH  18  19
ATOM     19  C   UNL     1      -0.032   1.177   0.550  0.00  0.00    +0.226 C 
ATOM     20  O   UNL     1       0.009   0.129   1.161  0.00  0.00    -0.275 OA
ATOM     21  N   UNL     1      -1.208   1.635   0.077  0.00  0.00    -0.295 N 
ATOM     22  C   UNL     1      -2.364   0.737  -0.052  0.00  0.00    +0.073 C 
ATOM     23  C   UNL     1      -3.555   1.358   0.685  0.00  0.00    +0.022 C 
ATOM     24  C   UNL     1      -3.796   2.773   0.156  0.00  0.00    +0.004 C 
ATOM     25  C   UNL     1      -2.561   3.636   0.422  0.00  0.00    +0.022 C 
ATOM     26  C   UNL     1      -1.360   3.043  -0.313  0.00  0.00    +0.073 C 
ATOM     27  C   UNL     1      -0.096   3.819   0.063  0.00  0.00    +0.028 C 
ATOM     28  C   UNL     1      -2.030  -0.622   0.566  0.00  0.00    +0.028 C 
ENDBRANCH  18  19
ENDBRANCH  17  18
ENDBRANCH  12  17
TORSDOF 4
