REMARK  Name = ZINC40002649
REMARK  15 active torsions:
REMARK  status: ('A' for Active; 'I' for Inactive)
REMARK    1  A    between atoms: C_1  and  C_2
REMARK    2  A    between atoms: C_5  and  C_7
REMARK    3  A    between atoms: C_7  and  C_8
REMARK    4  A    between atoms: N_10  and  N_11
REMARK    5  A    between atoms: C_12  and  C_14
REMARK    6  A    between atoms: C_14  and  N_15
REMARK    7  A    between atoms: N_15  and  C_16
REMARK    8  A    between atoms: C_16  and  C_18
REMARK    9  A    between atoms: C_16  and  C_28
REMARK   10  A    between atoms: C_21  and  C_24
REMARK   11  A    between atoms: C_24  and  C_25
REMARK   12  A    between atoms: C_25  and  C_26
REMARK   13  A    between atoms: C_25  and  C_27
REMARK   14  A    between atoms: C_28  and  C_29
REMARK   15  A    between atoms: C_28  and  C_30
REMARK                            x       y       z     vdW  Elec       q    Type
REMARK                         _______ _______ _______ _____ _____    ______ ____
ROOT
ATOM      1  N   UNL     1      -4.582  -6.559   6.543  0.00  0.00    +0.389 N 
ATOM      2  H   UNL     1      -4.070  -6.232   7.349  0.00  0.00    -0.084 HD
ATOM      3  H   UNL     1      -4.564  -5.851   5.824  0.00  0.00    -0.084 HD
ENDROOT
BRANCH   1   4
ATOM      4  C   UNL     1      -3.961  -7.789   6.034  0.00  0.00    +0.017 C 
BRANCH   4   6
ATOM      5  N   UNL     1      -1.813  -8.463   5.009  0.00  0.00    -0.236 N 
ATOM      6  C   UNL     1      -2.576  -7.480   5.526  0.00  0.00    +0.212 C 
ATOM      7  O   UNL     1      -2.149  -6.346   5.581  0.00  0.00    -0.276 OA
ATOM      8  H   UNL     1      -2.155  -9.370   4.964  0.00  0.00    +0.173 HD
BRANCH   5  11
ATOM      9  C   UNL     1       0.237  -9.159   4.019  0.00  0.00    +0.235 C 
ATOM     10  O   UNL     1      -0.190 -10.292   3.963  0.00  0.00    -0.274 OA
ATOM     11  N   UNL     1      -0.526  -8.175   4.536  0.00  0.00    -0.234 N 
ATOM     12  H   UNL     1      -0.184  -7.269   4.580  0.00  0.00    +0.173 HD
BRANCH   9  13
ATOM     13  C   UNL     1       1.622  -8.849   3.510  0.00  0.00    +0.160 C 
BRANCH  13  18
ATOM     14  C   UNL     1       2.788 -12.295   0.073  0.00  0.00    +0.066 C 
ATOM     15  C   UNL     1       2.832 -11.727   1.469  0.00  0.00    +0.046 A 
ATOM     16  C   UNL     1       3.506 -12.352   2.468  0.00  0.00    +0.070 A 
ATOM     17  S   UNL     1       3.195 -11.233   3.824  0.00  0.00    -0.080 S 
ATOM     18  C   UNL     1       2.259 -10.111   2.988  0.00  0.00    +0.087 A 
ATOM     19  N   UNL     1       2.222 -10.599   1.773  0.00  0.00    -0.249 NA
ENDBRANCH  13  18
ENDBRANCH   9  13
ENDBRANCH   5  11
ENDBRANCH   4   6
ENDBRANCH   1   4
BRANCH   1  20
ATOM     20  C   UNL     1      -5.973  -6.834   6.925  0.00  0.00    -0.038 C 
BRANCH  20  21
ATOM     21  C   UNL     1      -5.994  -7.789   8.091  0.00  0.00    -0.061 A 
ATOM     22  C   UNL     1      -5.074  -7.651   9.114  0.00  0.00    +0.002 A 
ATOM     23  C   UNL     1      -5.093  -8.527  10.183  0.00  0.00    +0.004 A 
ATOM     24  C   UNL     1      -6.032  -9.540  10.230  0.00  0.00    -0.047 A 
ATOM     25  C   UNL     1      -6.953  -9.677   9.208  0.00  0.00    +0.004 A 
ATOM     26  C   UNL     1      -6.936  -8.799   8.140  0.00  0.00    +0.002 A 
BRANCH  24  27
ATOM     27  C   UNL     1      -6.053 -10.495  11.395  0.00  0.00    +0.038 C 
BRANCH  27  28
ATOM     28  C   UNL     1      -6.968  -9.944  12.491  0.00  0.00    -0.013 C 
ATOM     29  C   UNL     1      -7.087 -10.970  13.620  0.00  0.00    +0.007 C 
ATOM     30  C   UNL     1      -6.378  -8.645  13.043  0.00  0.00    +0.007 C 
ENDBRANCH  27  28
ENDBRANCH  24  27
ENDBRANCH  20  21
BRANCH  20  31
ATOM     31  C   UNL     1      -6.661  -5.527   7.324  0.00  0.00    -0.027 C 
ATOM     32  C   UNL     1      -6.671  -4.571   6.130  0.00  0.00    +0.006 C 
ATOM     33  C   UNL     1      -8.099  -5.819   7.756  0.00  0.00    +0.006 C 
ENDBRANCH  20  31
ENDBRANCH   1  20
TORSDOF 10
