REMARK  Name = ZINC00705599
REMARK  9 active torsions:
REMARK  status: ('A' for Active; 'I' for Inactive)
REMARK    1  A    between atoms: C_1  and  C_2
REMARK    2  A    between atoms: C_3  and  C_22
REMARK    3  A    between atoms: C_14  and  C_18
REMARK    4  A    between atoms: C_15  and  N_17
REMARK    5  A    between atoms: C_18  and  O_20
REMARK    6  A    between atoms: O_20  and  C_21
REMARK    7  A    between atoms: C_22  and  O_24
REMARK    8  A    between atoms: O_24  and  C_25
REMARK    9  A    between atoms: C_25  and  C_26
REMARK                            x       y       z     vdW  Elec       q    Type
REMARK                         _______ _______ _______ _____ _____    ______ ____
ROOT
ATOM      1  C   UNL     1      -2.376   1.121  -0.027  0.00  0.00    +0.087 C 
ATOM      2  C   UNL     1      -1.149   1.996  -0.002  0.00  0.00    +0.116 C 
ATOM      3  C   UNL     1       0.059   1.415   0.007  0.00  0.00    +0.098 C 
ATOM      4  C   UNL     1       1.311   2.244   0.023  0.00  0.00    +0.145 C 
ATOM      5  C   UNL     1       1.973   2.178   1.376  0.00  0.00    -0.002 A 
ATOM      6  C   UNL     1       1.569   2.547   2.640  0.00  0.00    +0.007 A 
ATOM      7  C   UNL     1       2.416   2.359   3.718  0.00  0.00    +0.000 A 
ATOM      8  C   UNL     1       3.666   1.802   3.522  0.00  0.00    +0.002 A 
ATOM      9  C   UNL     1       4.074   1.432   2.258  0.00  0.00    +0.023 A 
ATOM     10  C   UNL     1       3.227   1.617   1.167  0.00  0.00    +0.038 A 
ATOM     11  N   UNL     1       3.408   1.329  -0.187  0.00  0.00    -0.284 N 
ATOM     12  C   UNL     1       2.335   1.665  -0.925  0.00  0.00    +0.237 C 
ATOM     13  O   UNL     1       2.213   1.529  -2.124  0.00  0.00    -0.274 OA
ATOM     14  C   UNL     1       1.004   3.667  -0.346  0.00  0.00    +0.117 C 
ATOM     15  C   UNL     1      -0.277   4.121  -0.330  0.00  0.00    +0.195 C 
ATOM     16  O   UNL     1      -1.304   3.328   0.015  0.00  0.00    -0.446 OA
ATOM     17  H   UNL     1       4.214   0.932  -0.553  0.00  0.00    +0.155 HD
ENDROOT
BRANCH  15  18
ATOM     18  N   UNL     1      -0.527   5.422  -0.676  0.00  0.00    -0.329 N 
ATOM     19  H   UNL     1       0.004   5.852  -1.365  0.00  0.00    +0.145 HD
ATOM     20  H   UNL     1      -1.235   5.915  -0.232  0.00  0.00    +0.145 HD
ENDBRANCH  15  18
BRANCH  14  21
ATOM     21  C   UNL     1       2.047   4.533  -0.709  0.00  0.00    +0.341 C 
ATOM     22  O   UNL     1       1.819   5.714  -0.901  0.00  0.00    -0.245 OA
BRANCH  21  23
ATOM     23  O   UNL     1       3.304   4.058  -0.844  0.00  0.00    -0.465 OA
ATOM     24  C   UNL     1       4.316   4.995  -1.215  0.00  0.00    +0.280 C 
ENDBRANCH  21  23
ENDBRANCH  14  21
BRANCH   3  25
ATOM     25  C   UNL     1       0.156   0.002  -0.004  0.00  0.00    +0.340 C 
ATOM     26  O   UNL     1       0.452  -0.595   1.014  0.00  0.00    -0.245 OA
BRANCH  25  27
ATOM     27  O   UNL     1      -0.080  -0.682  -1.142  0.00  0.00    -0.457 OA
BRANCH  27  28
ATOM     28  C   UNL     1       0.036  -2.105  -1.081  0.00  0.00    +0.268 C 
BRANCH  28  29
ATOM     29  C   UNL     1      -0.261  -2.692  -2.436  0.00  0.00    -0.010 A 
ATOM     30  C   UNL     1      -1.555  -3.048  -2.767  0.00  0.00    +0.007 A 
ATOM     31  C   UNL     1      -1.827  -3.584  -4.012  0.00  0.00    +0.000 A 
ATOM     32  C   UNL     1      -0.804  -3.771  -4.923  0.00  0.00    +0.000 A 
ATOM     33  C   UNL     1       0.490  -3.419  -4.590  0.00  0.00    +0.000 A 
ATOM     34  C   UNL     1       0.762  -2.880  -3.347  0.00  0.00    +0.007 A 
ENDBRANCH  28  29
ENDBRANCH  27  28
ENDBRANCH  25  27
ENDBRANCH   3  25
TORSDOF 7
