REMARK  Name = ZINC39605059
REMARK  9 active torsions:
REMARK  status: ('A' for Active; 'I' for Inactive)
REMARK    1  A    between atoms: C_1  and  C_2
REMARK    2  A    between atoms: C_2  and  C_3
REMARK    3  A    between atoms: C_2  and  O_4
REMARK    4  A    between atoms: O_4  and  C_5
REMARK    5  A    between atoms: C_5  and  C_6
REMARK    6  A    between atoms: C_6  and  C_7
REMARK    7  A    between atoms: C_7  and  N_8
REMARK    8  A    between atoms: C_9  and  C_11
REMARK    9  A    between atoms: C_22  and  C_24
REMARK                            x       y       z     vdW  Elec       q    Type
REMARK                         _______ _______ _______ _____ _____    ______ ____
ROOT
ATOM      1  C   UNL     1       0.838  -2.666   8.147  0.00  0.00    +0.100 C 
ATOM      2  C   UNL     1       1.956  -1.653   8.480  0.00  0.00    +0.121 C 
ATOM      3  N   UNL     1       1.393  -0.817   9.566  0.00  0.00    -0.296 N 
ATOM      4  C   UNL     1       0.647  -1.774  10.419  0.00  0.00    +0.115 C 
ATOM      5  C   UNL     1      -0.017  -2.745   9.423  0.00  0.00    -0.004 C 
ATOM      6  C   UNL     1      -0.004  -4.165   9.981  0.00  0.00    -0.010 C 
ATOM      7  C   UNL     1      -0.906  -4.232  11.216  0.00  0.00    -0.082 C 
ATOM      8  N   UNL     1      -2.273  -3.842  10.847  0.00  0.00    +0.379 N 
ATOM      9  C   UNL     1      -2.291  -2.445  10.399  0.00  0.00    -0.082 C 
ATOM     10  C   UNL     1      -1.447  -2.302   9.130  0.00  0.00    -0.010 C 
ATOM     11  C   UNL     1       1.528   0.512   9.739  0.00  0.00    +0.249 C 
ATOM     12  O   UNL     1       1.000   1.058  10.689  0.00  0.00    -0.270 OA
ATOM     13  H   UNL     1      -2.601  -4.438  10.101  0.00  0.00    -0.086 HD
ATOM     14  H   UNL     1      -2.878  -3.946  11.648  0.00  0.00    -0.086 HD
ENDROOT
BRANCH  11  15
ATOM     15  C   UNL     1       2.316   1.307   8.775  0.00  0.00    +0.073 A 
ATOM     16  C   UNL     1       1.695   1.876   7.661  0.00  0.00    +0.054 A 
ATOM     17  C   UNL     1       2.438   2.618   6.764  0.00  0.00    +0.021 A 
ATOM     18  C   UNL     1       3.795   2.797   6.967  0.00  0.00    +0.003 A 
ATOM     19  C   UNL     1       4.417   2.236   8.068  0.00  0.00    +0.021 A 
ATOM     20  C   UNL     1       3.686   1.497   8.977  0.00  0.00    +0.054 A 
ATOM     21 CL   UNL     1       4.467   0.801  10.362  0.00  0.00    -0.083 Cl
ATOM     22 CL   UNL     1      -0.007   1.651   7.403  0.00  0.00    -0.083 Cl
ENDBRANCH  11  15
BRANCH   1  24
ATOM     23  N   UNL     1      -0.661  -3.047   6.216  0.00  0.00    -0.315 N 
ATOM     24  C   UNL     1       0.009  -2.170   6.990  0.00  0.00    +0.218 C 
ATOM     25  O   UNL     1      -0.056  -0.982   6.756  0.00  0.00    -0.275 OA
ATOM     26  H   UNL     1      -0.609  -3.997   6.404  0.00  0.00    +0.149 HD
BRANCH  23  27
ATOM     27  C   UNL     1      -1.467  -2.565   5.092  0.00  0.00    +0.106 C 
BRANCH  27  28
ATOM     28  C   UNL     1      -2.117  -3.755   4.383  0.00  0.00    +0.047 C 
BRANCH  28  29
ATOM     29  C   UNL     1      -2.959  -3.251   3.209  0.00  0.00    +0.161 C 
BRANCH  29  30
ATOM     30  O   UNL     1      -3.566  -4.363   2.546  0.00  0.00    -0.377 OA
BRANCH  30  32
ATOM     31  C   UNL     1      -3.522  -3.979   0.161  0.00  0.00    +0.037 C 
ATOM     32  C   UNL     1      -4.378  -4.000   1.428  0.00  0.00    +0.112 C 
ATOM     33  C   UNL     1      -5.506  -5.021   1.265  0.00  0.00    +0.037 C 
ENDBRANCH  30  32
ENDBRANCH  29  30
ENDBRANCH  28  29
ENDBRANCH  27  28
ENDBRANCH  23  27
ENDBRANCH   1  24
TORSDOF 7
