REMARK  Name = ZINC03187472
REMARK  6 active torsions:
REMARK  status: ('A' for Active; 'I' for Inactive)
REMARK    1  A    between atoms: C_1  and  C_2
REMARK    2  A    between atoms: C_9  and  N_14
REMARK    3  A    between atoms: C_10  and  C_11
REMARK    4  A    between atoms: C_15  and  C_17
REMARK    5  A    between atoms: C_22  and  O_23
REMARK    6  A    between atoms: O_23  and  C_24
REMARK                            x       y       z     vdW  Elec       q    Type
REMARK                         _______ _______ _______ _____ _____    ______ ____
ROOT
ATOM      1  N   UNL     1      -0.166   9.363  -0.269  0.00  0.00    -0.275 N 
ATOM      2  C   UNL     1      -0.099   8.020  -0.171  0.00  0.00    +0.252 C 
ATOM      3  O   UNL     1       0.983   7.470  -0.090  0.00  0.00    -0.270 OA
ATOM      4  H   UNL     1      -1.029   9.802  -0.333  0.00  0.00    +0.156 HD
ENDROOT
BRANCH   1  12
ATOM      5  C   UNL     1       6.618  13.253  -0.190  0.00  0.00    +0.008 C 
ATOM      6  C   UNL     1       5.155  12.887   0.066  0.00  0.00    -0.009 C 
ATOM      7  C   UNL     1       4.252  13.700  -0.866  0.00  0.00    +0.008 C 
ATOM      8  C   UNL     1       2.789  13.529  -0.453  0.00  0.00    +0.037 C 
ATOM      9  C   UNL     1       2.477  12.040  -0.358  0.00  0.00    -0.023 A 
ATOM     10  C   UNL     1       3.467  11.127  -0.255  0.00  0.00    -0.004 A 
ATOM     11  S   UNL     1       2.636   9.566  -0.176  0.00  0.00    -0.077 S 
ATOM     12  C   UNL     1       0.997  10.116  -0.278  0.00  0.00    +0.085 A 
ATOM     13  C   UNL     1       1.131  11.494  -0.376  0.00  0.00    +0.068 A 
ATOM     14  C   UNL     1       4.941  11.393  -0.216  0.00  0.00    +0.046 C 
BRANCH  13  15
ATOM     15  C   UNL     1      -0.042  12.366  -0.490  0.00  0.00    +0.244 C 
ATOM     16  O   UNL     1      -0.572  12.808   0.513  0.00  0.00    -0.270 OA
ATOM     17  N   UNL     1      -0.534  12.678  -1.706  0.00  0.00    -0.325 N 
ATOM     18  H   UNL     1      -0.112  12.326  -2.505  0.00  0.00    +0.145 HD
ATOM     19  H   UNL     1      -1.310  13.255  -1.781  0.00  0.00    +0.145 HD
ENDBRANCH  13  15
ENDBRANCH   1  12
BRANCH   2  20
ATOM     20  C   UNL     1      -1.337   7.218  -0.161  0.00  0.00    +0.079 A 
ATOM     21  C   UNL     1      -2.581   7.846  -0.253  0.00  0.00    +0.017 A 
ATOM     22  C   UNL     1      -3.734   7.091  -0.244  0.00  0.00    +0.001 A 
ATOM     23  C   UNL     1      -3.665   5.711  -0.143  0.00  0.00    +0.004 A 
ATOM     24  C   UNL     1      -2.442   5.077  -0.056  0.00  0.00    +0.047 A 
ATOM     25  C   UNL     1      -1.271   5.822  -0.059  0.00  0.00    +0.141 A 
BRANCH  25  26
ATOM     26  O   UNL     1      -0.069   5.201   0.030  0.00  0.00    -0.455 OA
BRANCH  26  27
ATOM     27  C   UNL     1      -0.052   3.842   0.044  0.00  0.00    +0.128 A 
ATOM     28  C   UNL     1       0.124   3.162   1.241  0.00  0.00    +0.046 A 
ATOM     29  C   UNL     1       0.140   1.780   1.253  0.00  0.00    +0.004 A 
ATOM     30  C   UNL     1      -0.018   1.076   0.074  0.00  0.00    +0.000 A 
ATOM     31  C   UNL     1      -0.188   1.751  -1.121  0.00  0.00    +0.004 A 
ATOM     32  C   UNL     1      -0.211   3.132  -1.137  0.00  0.00    +0.046 A 
ENDBRANCH  26  27
ENDBRANCH  25  26
ENDBRANCH   2  20
TORSDOF 5
