REMARK  Name = ZINC09488290
REMARK  5 active torsions:
REMARK  status: ('A' for Active; 'I' for Inactive)
REMARK    1  A    between atoms: C_6  and  C_7
REMARK    2  A    between atoms: C_7  and  S_8
REMARK    3  A    between atoms: S_8  and  C_9
REMARK    4  A    between atoms: C_17  and  O_30
REMARK    5  A    between atoms: C_19  and  C_21
REMARK                            x       y       z     vdW  Elec       q    Type
REMARK                         _______ _______ _______ _____ _____    ______ ____
ROOT
ATOM      1  C   UNL     1      -3.335  -1.972  -1.519  0.00  0.00    +0.194 A 
ATOM      2  N   UNL     1      -3.780  -2.245  -0.301  0.00  0.00    -0.183 NA
ATOM      3  C   UNL     1      -4.916  -2.915  -0.122  0.00  0.00    +0.280 A 
ATOM      4  O   UNL     1      -5.369  -3.188   1.126  0.00  0.00    -0.265 OA
ATOM      5  C   UNL     1      -5.628  -3.330  -1.236  0.00  0.00    +0.071 A 
ATOM      6  C   UNL     1      -5.129  -3.036  -2.506  0.00  0.00    +0.168 A 
ATOM      7  N   UNL     1      -3.989  -2.350  -2.607  0.00  0.00    -0.202 NA
ATOM      8  N   UNL     1      -5.796  -3.457  -3.617  0.00  0.00    -0.197 NA
ATOM      9  C   UNL     1      -6.707  -4.377  -3.558  0.00  0.00    +0.190 C 
ATOM     10  C   UNL     1      -7.059  -5.062  -2.265  0.00  0.00    +0.108 C 
ATOM     11  C   UNL     1      -6.926  -4.080  -1.099  0.00  0.00    +0.067 C 
ENDROOT
BRANCH  11  12
ATOM     12  C   UNL     1      -8.076  -3.106  -1.126  0.00  0.00    -0.036 A 
ATOM     13  C   UNL     1      -8.275  -2.304  -2.235  0.00  0.00    +0.008 A 
ATOM     14  C   UNL     1      -9.329  -1.410  -2.265  0.00  0.00    +0.050 A 
ATOM     15  C   UNL     1     -10.189  -1.315  -1.182  0.00  0.00    +0.166 A 
ATOM     16  C   UNL     1      -9.988  -2.123  -0.065  0.00  0.00    +0.167 A 
ATOM     17  C   UNL     1      -8.933  -3.021  -0.045  0.00  0.00    +0.053 A 
ATOM     18  O   UNL     1     -10.957  -1.844   0.855  0.00  0.00    -0.453 OA
ATOM     19  C   UNL     1     -11.507  -0.573   0.460  0.00  0.00    +0.466 C 
ATOM     20  O   UNL     1     -11.283  -0.530  -0.962  0.00  0.00    -0.453 OA
ENDBRANCH  11  12
BRANCH   9  21
ATOM     21  O   UNL     1      -7.356  -4.728  -4.684  0.00  0.00    -0.495 OA
ATOM     22  H   UNL     1      -7.072  -4.242  -5.470  0.00  0.00    +0.293 HD
ENDBRANCH   9  21
BRANCH   1  23
ATOM     23  S   UNL     1      -1.829  -1.075  -1.697  0.00  0.00    -0.081 S 
BRANCH  23  24
ATOM     24  C   UNL     1      -1.293  -0.775   0.010  0.00  0.00    +0.112 C 
BRANCH  24  30
ATOM     25  C   UNL     1      -0.017   1.378   0.010  0.00  0.00    +0.007 A 
ATOM     26  C   UNL     1       1.170   2.086   0.002  0.00  0.00    +0.038 A 
ATOM     27  C   UNL     1       2.379   1.410  -0.013  0.00  0.00    +0.123 A 
ATOM     28  C   UNL     1       2.396   0.026  -0.021  0.00  0.00    +0.038 A 
ATOM     29  C   UNL     1       1.208  -0.680  -0.013  0.00  0.00    +0.007 A 
ATOM     30  C   UNL     1       0.002  -0.004   0.002  0.00  0.00    -0.037 A 
ATOM     31  F   UNL     1       3.540   2.101  -0.021  0.00  0.00    -0.205 F 
ENDBRANCH  24  30
ENDBRANCH  23  24
ENDBRANCH   1  23
TORSDOF 5
