REMARK  Name = ZINC41076763
REMARK  7 active torsions:
REMARK  status: ('A' for Active; 'I' for Inactive)
REMARK    1  A    between atoms: C_1  and  C_2
REMARK    2  A    between atoms: C_5  and  N_9
REMARK    3  A    between atoms: C_6  and  C_8
REMARK    4  A    between atoms: C_10  and  C_32
REMARK    5  A    between atoms: C_12  and  C_15
REMARK    6  A    between atoms: C_13  and  C_14
REMARK    7  A    between atoms: C_25  and  C_27
REMARK                            x       y       z     vdW  Elec       q    Type
REMARK                         _______ _______ _______ _____ _____    ______ ____
ROOT
ATOM      1  C   UNL     1       1.647  -7.391  -0.038  0.00  0.00    +0.026 C 
ATOM      2  C   UNL     1       1.279  -8.535   0.641  0.00  0.00    +0.081 C 
ATOM      3  C   UNL     1       2.193  -9.705   0.758  0.00  0.00    +0.153 C 
ATOM      4  N   UNL     1       3.494  -9.596   0.833  0.00  0.00    -0.283 NA
ATOM      5  N   UNL     1       1.517 -10.944   0.782  0.00  0.00    -0.151 N 
ATOM      6  C   UNL     1       0.200 -10.942   1.189  0.00  0.00    +0.181 C 
ATOM      7  N   UNL     1      -0.546  -9.904   1.471  0.00  0.00    -0.152 NA
ATOM      8  C   UNL     1      -0.043  -8.662   1.298  0.00  0.00    +0.273 C 
ATOM      9  O   UNL     1      -0.660  -7.675   1.666  0.00  0.00    -0.268 OA
ATOM     10  S   UNL     1      -0.193 -12.671   1.200  0.00  0.00    -0.030 S 
ATOM     11  C   UNL     1       1.369 -13.273   0.573  0.00  0.00    +0.165 C 
ATOM     12  N   UNL     1       2.062 -12.164   0.443  0.00  0.00    -0.161 NA
ATOM     13  H   UNL     1       4.044 -10.391   0.908  0.00  0.00    +0.188 HD
ENDROOT
BRANCH   1  17
ATOM     14  N   UNL     1      -0.244  -4.384  -0.556  0.00  0.00    -0.317 N 
ATOM     15  C   UNL     1      -1.250  -5.301  -0.680  0.00  0.00    +0.022 A 
ATOM     16  C   UNL     1      -0.746  -6.535  -0.516  0.00  0.00    +0.031 A 
ATOM     17  C   UNL     1       0.694  -6.367  -0.270  0.00  0.00    -0.003 A 
ATOM     18  C   UNL     1       0.929  -5.003  -0.316  0.00  0.00    +0.028 A 
ATOM     19  C   UNL     1       2.263  -4.328  -0.127  0.00  0.00    +0.064 C 
ATOM     20  C   UNL     1      -2.696  -4.980  -0.957  0.00  0.00    +0.064 C 
BRANCH  14  25
ATOM     21  C   UNL     1      -0.911   1.234  -1.012  0.00  0.00    +0.044 C 
ATOM     22  C   UNL     1      -0.734  -0.258  -0.891  0.00  0.00    -0.050 A 
ATOM     23  C   UNL     1      -0.449  -1.013  -2.014  0.00  0.00    +0.005 A 
ATOM     24  C   UNL     1      -0.286  -2.380  -1.907  0.00  0.00    +0.026 A 
ATOM     25  C   UNL     1      -0.408  -2.997  -0.668  0.00  0.00    +0.049 A 
ATOM     26  C   UNL     1      -0.695  -2.236   0.457  0.00  0.00    -0.026 A 
ATOM     27  C   UNL     1      -0.851  -0.869   0.344  0.00  0.00    +0.008 A 
ATOM     28  C   UNL     1      -0.829  -2.902   1.803  0.00  0.00    +0.046 C 
ENDBRANCH  14  25
ENDBRANCH   1  17
BRANCH  11  29
ATOM     29  C   UNL     1       1.775 -14.656   0.277  0.00  0.00    +0.161 A 
ATOM     30  C   UNL     1       1.001 -15.767   0.430  0.00  0.00    +0.052 A 
ATOM     31  C   UNL     1       1.786 -16.865   0.031  0.00  0.00    +0.042 A 
ATOM     32  C   UNL     1       2.987 -16.379  -0.342  0.00  0.00    +0.196 A 
ATOM     33  O   UNL     1       2.975 -15.045  -0.197  0.00  0.00    -0.461 OA
ENDBRANCH  11  29
TORSDOF 3
