REMARK  Name = ZINC36265464
REMARK  3 active torsions:
REMARK  status: ('A' for Active; 'I' for Inactive)
REMARK    1  A    between atoms: C_6  and  S_7
REMARK    2  A    between atoms: S_7  and  N_10
REMARK    3  A    between atoms: N_10  and  C_11
REMARK                            x       y       z     vdW  Elec       q    Type
REMARK                         _______ _______ _______ _____ _____    ______ ____
ROOT
ATOM      1  S   UNL     1      -1.596  -0.992   0.055  0.00  0.00    +0.060 S 
ATOM      2  O   UNL     1      -1.646  -2.098   0.947  0.00  0.00    -0.153 OA
ATOM      3  O   UNL     1      -2.538   0.071   0.106  0.00  0.00    -0.153 OA
ENDROOT
BRANCH   1   9
ATOM      4  C   UNL     1       0.887  -0.775   1.174  0.00  0.00    +0.036 A 
ATOM      5  C   UNL     1       2.131  -0.203   1.321  0.00  0.00    -0.015 A 
ATOM      6  C   UNL     1       2.509   0.888   0.548  0.00  0.00    +0.039 A 
ATOM      7  C   UNL     1       1.607   1.399  -0.384  0.00  0.00    +0.045 A 
ATOM      8  C   UNL     1       0.360   0.825  -0.528  0.00  0.00    +0.069 A 
ATOM      9  C   UNL     1      -0.003  -0.263   0.247  0.00  0.00    +0.124 A 
ATOM     10 CL   UNL     1      -0.757   1.468  -1.691  0.00  0.00    -0.081 Cl
ATOM     11  N   UNL     1       3.805   1.287   0.876  0.00  0.00    -0.285 N 
ATOM     12  C   UNL     1       4.343   0.523   1.842  0.00  0.00    +0.222 C 
ATOM     13  O   UNL     1       5.450   0.641   2.321  0.00  0.00    -0.275 OA
ATOM     14  C   UNL     1       3.306  -0.514   2.220  0.00  0.00    +0.133 C 
ATOM     15  H   UNL     1       4.265   2.030   0.456  0.00  0.00    +0.155 HD
ENDBRANCH   1   9
BRANCH   1  16
ATOM     16  N   UNL     1      -1.667  -1.616  -1.477  0.00  0.00    -0.186 NA
ATOM     17  H   UNL     1      -2.296  -1.252  -2.120  0.00  0.00    +0.148 HD
BRANCH  16  18
ATOM     18  C   UNL     1      -0.781  -2.717  -1.862  0.00  0.00    +0.080 C 
ATOM     19  C   UNL     1      -0.278  -2.745  -3.307  0.00  0.00    -0.006 C 
ATOM     20  C   UNL     1      -1.336  -3.763  -2.831  0.00  0.00    -0.006 C 
ATOM     21  C   UNL     1      -0.632  -5.135  -2.902  0.00  0.00    -0.077 C 
ATOM     22  N   UNL     1       0.450  -4.950  -3.903  0.00  0.00    +0.379 N 
ATOM     23  C   UNL     1       0.996  -3.559  -3.618  0.00  0.00    -0.077 C 
ATOM     24  H   UNL     1       1.173  -5.641  -3.772  0.00  0.00    -0.086 HD
ATOM     25  H   UNL     1       0.077  -5.000  -4.839  0.00  0.00    -0.086 HD
ENDBRANCH  16  18
ENDBRANCH   1  16
TORSDOF 3
