REMARK  Name = ZINC38800478
REMARK  10 active torsions:
REMARK  status: ('A' for Active; 'I' for Inactive)
REMARK    1  A    between atoms: C_1  and  C_2
REMARK    2  A    between atoms: C_5  and  C_8
REMARK    3  A    between atoms: N_10  and  C_11
REMARK    4  A    between atoms: C_11  and  C_13
REMARK    5  A    between atoms: C_11  and  C_16
REMARK    6  A    between atoms: C_13  and  C_14
REMARK    7  A    between atoms: C_13  and  C_15
REMARK    8  A    between atoms: C_16  and  O_18
REMARK    9  A    between atoms: O_18  and  C_19
REMARK   10  A    between atoms: C_19  and  C_20
REMARK                            x       y       z     vdW  Elec       q    Type
REMARK                         _______ _______ _______ _____ _____    ______ ____
ROOT
ATOM      1  C   UNL     1       0.816  -7.337   1.820  0.00  0.00    +0.328 C 
ATOM      2  O   UNL     1       1.090  -6.431   2.572  0.00  0.00    -0.249 OA
ENDROOT
BRANCH   1   3
ATOM      3  C   UNL     1       0.307  -7.037   0.434  0.00  0.00    +0.185 C 
BRANCH   3   6
ATOM      4  C   UNL     1       0.303  -5.066  -0.998  0.00  0.00    +0.245 C 
ATOM      5  O   UNL     1       0.426  -5.800  -1.959  0.00  0.00    -0.270 OA
ATOM      6  N   UNL     1       0.234  -5.587   0.243  0.00  0.00    -0.298 N 
ATOM      7  H   UNL     1       0.136  -5.001   1.010  0.00  0.00    +0.150 HD
BRANCH   4  12
ATOM      8  C   UNL     1       0.014   0.632  -1.748  0.00  0.00    +0.044 C 
ATOM      9  C   UNL     1       0.090  -0.860  -1.552  0.00  0.00    -0.050 A 
ATOM     10  C   UNL     1       0.231  -1.693  -2.648  0.00  0.00    +0.004 A 
ATOM     11  C   UNL     1       0.301  -3.060  -2.475  0.00  0.00    +0.013 A 
ATOM     12  C   UNL     1       0.229  -3.602  -1.191  0.00  0.00    +0.037 A 
ATOM     13  C   UNL     1       0.087  -2.756  -0.089  0.00  0.00    +0.013 A 
ATOM     14  C   UNL     1       0.024  -1.391  -0.276  0.00  0.00    +0.004 A 
ENDBRANCH   4  12
ENDBRANCH   3   6
BRANCH   3  15
ATOM     15  C   UNL     1      -1.086  -7.646   0.260  0.00  0.00    +0.014 C 
ATOM     16  C   UNL     1      -1.603  -7.342  -1.148  0.00  0.00    +0.009 C 
ATOM     17  C   UNL     1      -1.009  -9.161   0.459  0.00  0.00    +0.009 C 
ENDBRANCH   3  15
ENDBRANCH   1   3
BRANCH   1  18
ATOM     18  O   UNL     1       0.966  -8.609   2.220  0.00  0.00    -0.454 OA
BRANCH  18  19
ATOM     19  C   UNL     1       1.453  -8.819   3.547  0.00  0.00    +0.328 C 
BRANCH  19  20
ATOM     20  C   UNL     1       1.555 -10.299   3.817  0.00  0.00    +0.255 C 
ATOM     21  O   UNL     1       1.241 -11.095   2.957  0.00  0.00    -0.272 OA
ATOM     22  N   UNL     1       1.994 -10.737   5.013  0.00  0.00    -0.283 N 
ATOM     23  C   UNL     1       1.251 -11.559   5.728  0.00  0.00    +0.036 C 
ATOM     24  C   UNL     1      -0.105 -11.899   5.281  0.00  0.00    +0.025 C 
ATOM     25  C   UNL     1      -0.871 -12.738   6.005  0.00  0.00    +0.032 C 
ATOM     26  C   UNL     1      -0.352 -13.319   7.248  0.00  0.00    +0.095 C 
ATOM     27  N   UNL     1      -0.841 -14.146   8.151  0.00  0.00    -0.190 NA
ATOM     28  C   UNL     1       0.078 -14.350   9.110  0.00  0.00    +0.369 C 
ATOM     29  O   UNL     1      -0.107 -15.151  10.186  0.00  0.00    -0.243 OA
ATOM     30  N   UNL     1       1.179 -13.676   8.871  0.00  0.00    -0.190 NA
ATOM     31  C   UNL     1       1.010 -12.985   7.707  0.00  0.00    +0.097 C 
ATOM     32  C   UNL     1       1.786 -12.143   6.976  0.00  0.00    +0.053 C 
ATOM     33  H   UNL     1       2.857 -10.448   5.348  0.00  0.00    +0.155 HD
ENDBRANCH  19  20
ENDBRANCH  18  19
ENDBRANCH   1  18
TORSDOF 7
