REMARK  Name = ZINC61594566
REMARK  6 active torsions:
REMARK  status: ('A' for Active; 'I' for Inactive)
REMARK    1  A    between atoms: C_5  and  C_6
REMARK    2  A    between atoms: C_6  and  C_8
REMARK    3  A    between atoms: C_6  and  S_10
REMARK    4  A    between atoms: C_8  and  N_9
REMARK    5  A    between atoms: S_10  and  C_11
REMARK    6  A    between atoms: N_17  and  C_18
REMARK                            x       y       z     vdW  Elec       q    Type
REMARK                         _______ _______ _______ _____ _____    ______ ____
ROOT
ATOM      1  C   UNL     1      -1.144  -1.048   0.022  0.00  0.00    +0.073 C 
ENDROOT
BRANCH   1   6
ATOM      2  C   UNL     1      -0.387   1.413  -0.200  0.00  0.00    +0.013 A 
ATOM      3  C   UNL     1       0.689   2.278  -0.271  0.00  0.00    +0.023 A 
ATOM      4  C   UNL     1       1.946   1.770  -0.215  0.00  0.00    +0.055 A 
ATOM      5  S   UNL     1       1.630   0.020  -0.056  0.00  0.00    -0.085 S 
ATOM      6  C   UNL     1      -0.154   0.083  -0.076  0.00  0.00    +0.002 A 
ATOM      7 BR   UNL     1       3.602   2.680  -0.286  0.00  0.00    -0.043 Br
ENDBRANCH   1   6
BRANCH   1   8
ATOM      8  C   UNL     1      -0.927  -2.018  -1.142  0.00  0.00    -0.066 C 
BRANCH   8   9
ATOM      9  N   UNL     1      -1.246  -1.343  -2.407  0.00  0.00    +0.379 N 
ATOM     10  H   UNL     1      -1.185  -2.005  -3.166  0.00  0.00    -0.090 HD
ATOM     11  H   UNL     1      -2.182  -0.969  -2.362  0.00  0.00    -0.090 HD
ATOM     12  H   UNL     1      -0.590  -0.592  -2.563  0.00  0.00    -0.090 HD
ENDBRANCH   8   9
ENDBRANCH   1   8
BRANCH   1  13
ATOM     13  S   UNL     1      -0.908  -1.926   1.592  0.00  0.00    -0.079 S 
BRANCH  13  14
ATOM     14  C   UNL     1      -2.263  -3.050   1.660  0.00  0.00    +0.193 A 
ATOM     15  N   UNL     1      -3.246  -3.107   0.808  0.00  0.00    -0.145 NA
ATOM     16  N   UNL     1      -4.114  -4.130   1.215  0.00  0.00    -0.226 N 
ATOM     17  H   UNL     1      -4.932  -4.400   0.769  0.00  0.00    +0.194 HD
ATOM     18  C   UNL     1      -3.601  -4.671   2.339  0.00  0.00    +0.345 A 
ATOM     19  O   UNL     1      -4.082  -5.588   2.981  0.00  0.00    -0.245 OA
ATOM     20  N   UNL     1      -2.457  -4.017   2.621  0.00  0.00    -0.268 N 
BRANCH  20  21
ATOM     21  C   UNL     1      -1.572  -4.286   3.757  0.00  0.00    +0.094 C 
ATOM     22  C   UNL     1      -1.858  -5.534   4.595  0.00  0.00    +0.027 C 
ATOM     23  C   UNL     1      -2.162  -4.145   5.161  0.00  0.00    +0.027 C 
ENDBRANCH  20  21
ENDBRANCH  13  14
ENDBRANCH   1  13
TORSDOF 6
