REMARK  Name = ZINC00434047
REMARK  9 active torsions:
REMARK  status: ('A' for Active; 'I' for Inactive)
REMARK    1  A    between atoms: C_1  and  C_2
REMARK    2  A    between atoms: C_2  and  C_3
REMARK    3  A    between atoms: C_3  and  C_4
REMARK    4  A    between atoms: C_3  and  C_5
REMARK    5  A    between atoms: C_3  and  C_6
REMARK    6  A    between atoms: C_13  and  N_18
REMARK    7  A    between atoms: C_14  and  C_15
REMARK    8  A    between atoms: C_19  and  O_21
REMARK    9  A    between atoms: O_21  and  C_22
REMARK                            x       y       z     vdW  Elec       q    Type
REMARK                         _______ _______ _______ _____ _____    ______ ____
ROOT
ATOM      1  C   UNL     1       0.739  -2.027  -1.265  0.00  0.00    -0.000 C 
ATOM      2  C   UNL     1       1.455  -2.524  -2.524  0.00  0.00    +0.009 C 
ATOM      3  C   UNL     1       1.699  -4.031  -2.424  0.00  0.00    +0.037 C 
ATOM      4  C   UNL     1       0.381  -4.720  -2.095  0.00  0.00    -0.023 A 
ATOM      5  C   UNL     1      -0.659  -4.026  -1.585  0.00  0.00    -0.004 A 
ATOM      6  S   UNL     1      -1.944  -5.225  -1.372  0.00  0.00    -0.077 S 
ATOM      7  C   UNL     1      -1.113  -6.631  -1.952  0.00  0.00    +0.087 A 
ATOM      8  C   UNL     1       0.138  -6.139  -2.296  0.00  0.00    +0.068 A 
ATOM      9  C   UNL     1      -0.701  -2.562  -1.272  0.00  0.00    +0.046 C 
ENDROOT
BRANCH   8  10
ATOM     10  C   UNL     1       1.176  -7.018  -2.843  0.00  0.00    +0.244 C 
ATOM     11  O   UNL     1       1.954  -7.580  -2.094  0.00  0.00    -0.270 OA
ATOM     12  N   UNL     1       1.270  -7.203  -4.174  0.00  0.00    -0.325 N 
ATOM     13  H   UNL     1       0.650  -6.755  -4.771  0.00  0.00    +0.145 HD
ATOM     14  H   UNL     1       1.957  -7.785  -4.536  0.00  0.00    +0.145 HD
ENDBRANCH   8  10
BRANCH   7  15
ATOM     15  N   UNL     1      -1.584  -7.931  -2.048  0.00  0.00    -0.245 N 
ATOM     16  C   UNL     1      -2.842  -8.223  -1.661  0.00  0.00    +0.405 C 
ATOM     17  O   UNL     1      -3.562  -7.346  -1.227  0.00  0.00    -0.226 OA
ATOM     18  H   UNL     1      -1.008  -8.631  -2.395  0.00  0.00    +0.159 HD
BRANCH  16  19
ATOM     19  O   UNL     1      -3.299  -9.486  -1.755  0.00  0.00    -0.453 OA
ATOM     20  C   UNL     1      -4.663  -9.727  -1.320  0.00  0.00    +0.282 C 
ENDBRANCH  16  19
ENDBRANCH   7  15
BRANCH   1  21
ATOM     21  C   UNL     1       0.718  -0.497  -1.257  0.00  0.00    -0.032 C 
ATOM     22  C   UNL     1      -0.022   0.009  -2.496  0.00  0.00    +0.011 C 
ATOM     23  C   UNL     1       2.154   0.032  -1.268  0.00  0.00    +0.011 C 
BRANCH  21  25
ATOM     24  C   UNL     1      -0.019   1.526   0.010  0.00  0.00    +0.004 C 
ATOM     25  C   UNL     1       0.002  -0.004   0.002  0.00  0.00    +0.003 C 
ENDBRANCH  21  25
ENDBRANCH   1  21
TORSDOF 5
