REMARK  Name = ZINC21932311
REMARK  8 active torsions:
REMARK  status: ('A' for Active; 'I' for Inactive)
REMARK    1  A    between atoms: C_1  and  C_2
REMARK    2  A    between atoms: C_7  and  N_8
REMARK    3  A    between atoms: C_9  and  C_11
REMARK    4  A    between atoms: C_11  and  C_12
REMARK    5  A    between atoms: C_12  and  C_13
REMARK    6  A    between atoms: C_12  and  C_14
REMARK    7  A    between atoms: N_15  and  C_20
REMARK    8  A    between atoms: N_18  and  C_19
REMARK                            x       y       z     vdW  Elec       q    Type
REMARK                         _______ _______ _______ _____ _____    ______ ____
ROOT
ATOM      1  C   UNL     1       3.846   5.565   0.000  0.00  0.00    +0.046 C 
ATOM      2  C   UNL     1       2.877   4.411   0.011  0.00  0.00    -0.027 A 
ATOM      3  C   UNL     1       1.518   4.653   0.035  0.00  0.00    +0.033 A 
ATOM      4  C   UNL     1       0.626   3.591   0.044  0.00  0.00    +0.070 A 
ATOM      5  C   UNL     1       1.103   2.279   0.031  0.00  0.00    +0.071 A 
ATOM      6  C   UNL     1       2.468   2.039   0.008  0.00  0.00    +0.051 A 
ATOM      7  C   UNL     1       3.355   3.106  -0.002  0.00  0.00    +0.038 A 
ATOM      8  N   UNL     1      -0.013   1.445   0.046  0.00  0.00    -0.295 N 
ATOM      9  C   UNL     1      -1.118   2.214   0.062  0.00  0.00    +0.330 A 
ATOM     10  O   UNL     1      -2.261   1.797   0.074  0.00  0.00    -0.246 OA
ATOM     11  N   UNL     1      -0.766   3.513   0.067  0.00  0.00    -0.295 N 
ATOM     12  C   UNL     1      -1.689   4.651   0.088  0.00  0.00    +0.154 C 
ATOM     13  C   UNL     1       0.012  -0.020   0.039  0.00  0.00    +0.154 C 
ENDROOT
BRANCH   7  14
ATOM     14  N   UNL     1       4.735   2.866  -0.025  0.00  0.00    -0.285 N 
ATOM     15  C   UNL     1       5.210   1.710  -0.528  0.00  0.00    +0.217 C 
ATOM     16  O   UNL     1       4.453   0.920  -1.052  0.00  0.00    -0.275 OA
ATOM     17  H   UNL     1       5.431   3.622   0.368  0.00  0.00    +0.155 HD
BRANCH  15  18
ATOM     18  C   UNL     1       6.682   1.399  -0.441  0.00  0.00    +0.099 C 
BRANCH  18  19
ATOM     19  C   UNL     1       6.954   0.036  -1.082  0.00  0.00    -0.008 C 
ATOM     20  C   UNL     1       8.461  -0.225  -1.105  0.00  0.00    +0.008 C 
ATOM     21  C   UNL     1       6.260  -1.058  -0.269  0.00  0.00    +0.008 C 
ENDBRANCH  18  19
ENDBRANCH  15  18
ENDBRANCH   7  14
TORSDOF 3
