REMARK  Name = ZINC20968556
REMARK  9 active torsions:
REMARK  status: ('A' for Active; 'I' for Inactive)
REMARK    1  A    between atoms: C_1  and  C_2
REMARK    2  A    between atoms: C_2  and  C_3
REMARK    3  A    between atoms: C_3  and  O_4
REMARK    4  A    between atoms: O_4  and  C_5
REMARK    5  A    between atoms: C_8  and  C_12
REMARK    6  A    between atoms: C_12  and  N_13
REMARK    7  A    between atoms: N_13  and  C_14
REMARK    8  A    between atoms: C_14  and  C_15
REMARK    9  A    between atoms: C_15  and  N_16
REMARK                            x       y       z     vdW  Elec       q    Type
REMARK                         _______ _______ _______ _____ _____    ______ ____
ROOT
ATOM      1  C   UNL     1      -2.513   0.977   0.020  0.00  0.00    -0.047 C 
ENDROOT
BRANCH   1   5
ATOM      2  C   UNL     1       1.156   3.170   0.008  0.00  0.00    +0.148 A 
ATOM      3  C   UNL     1       1.175   1.783   0.000  0.00  0.00    +0.061 A 
ATOM      4  C   UNL     1      -0.013   1.076   0.008  0.00  0.00    +0.020 A 
ATOM      5  C   UNL     1      -1.220   1.750   0.017  0.00  0.00    -0.062 A 
ATOM      6  C   UNL     1      -1.242   3.132   0.030  0.00  0.00    +0.020 A 
ATOM      7  C   UNL     1      -0.057   3.844   0.022  0.00  0.00    +0.061 A 
ATOM      8 BR   UNL     1      -0.089   5.735   0.033  0.00  0.00    -0.046 Br
ATOM      9 BR   UNL     1       2.826   0.860  -0.019  0.00  0.00    -0.046 Br
BRANCH   2  10
ATOM     10  O   UNL     1       2.323   3.868   0.001  0.00  0.00    -0.490 OA
BRANCH  10  11
ATOM     11  C   UNL     1       2.868   4.207  -1.276  0.00  0.00    +0.229 C 
BRANCH  11  13
ATOM     12  C   UNL     1       4.756   5.348  -2.450  0.00  0.00    +0.007 C 
ATOM     13  C   UNL     1       4.172   4.984  -1.083  0.00  0.00    +0.038 C 
ENDBRANCH  11  13
ENDBRANCH  10  11
ENDBRANCH   2  10
ENDBRANCH   1   5
BRANCH   1  14
ATOM     14  N   UNL     1      -2.926   0.719   1.405  0.00  0.00    +0.383 N 
ATOM     15  H   UNL     1      -2.148   0.133   1.917  0.00  0.00    -0.085 HD
ATOM     16  H   UNL     1      -3.070   1.675   1.930  0.00  0.00    -0.085 HD
BRANCH  14  17
ATOM     17  C   UNL     1      -4.187  -0.035   1.447  0.00  0.00    -0.067 C 
BRANCH  17  18
ATOM     18  C   UNL     1      -4.584  -0.284   2.903  0.00  0.00    +0.065 C 
BRANCH  18  19
ATOM     19  N   UNL     1      -5.844  -1.038   2.945  0.00  0.00    -0.308 NA
ATOM     20  C   UNL     1      -5.814  -2.166   2.004  0.00  0.00    +0.065 C 
ATOM     21  C   UNL     1      -7.170  -2.876   2.019  0.00  0.00    -0.067 C 
ATOM     22  N   UNL     1      -7.462  -3.339   3.383  0.00  0.00    +0.381 N 
ATOM     23  C   UNL     1      -7.492  -2.211   4.324  0.00  0.00    -0.067 C 
ATOM     24  C   UNL     1      -6.136  -1.501   4.309  0.00  0.00    +0.065 C 
ATOM     25  H   UNL     1      -8.442  -3.839   3.399  0.00  0.00    -0.086 HD
ATOM     26  H   UNL     1      -6.684  -4.048   3.704  0.00  0.00    -0.086 HD
ENDBRANCH  18  19
ENDBRANCH  17  18
ENDBRANCH  14  17
ENDBRANCH   1  14
TORSDOF 8
