REMARK  Name = ZINC05446246
REMARK  5 active torsions:
REMARK  status: ('A' for Active; 'I' for Inactive)
REMARK    1  A    between atoms: C_8  and  N_9
REMARK    2  A    between atoms: N_9  and  N_10
REMARK    3  A    between atoms: C_11  and  C_13
REMARK    4  A    between atoms: C_13  and  C_14
REMARK    5  A    between atoms: N_18  and  C_21
REMARK                            x       y       z     vdW  Elec       q    Type
REMARK                         _______ _______ _______ _____ _____    ______ ____
ROOT
ATOM      1  C   UNL     1       1.532  -0.749   0.214  0.00  0.00    +0.001 A 
ATOM      2  C   UNL     1       0.382  -0.192   0.752  0.00  0.00    +0.001 A 
ATOM      3  C   UNL     1       0.309   1.159   1.015  0.00  0.00    +0.014 A 
ATOM      4  C   UNL     1       1.406   1.976   0.737  0.00  0.00    +0.046 A 
ATOM      5  C   UNL     1       2.574   1.406   0.190  0.00  0.00    +0.000 A 
ATOM      6  C   UNL     1       2.628   0.041  -0.068  0.00  0.00    +0.009 A 
ATOM      7  C   UNL     1       3.719   2.297  -0.093  0.00  0.00    +0.060 C 
ATOM      8  C   UNL     1       4.888   1.802  -0.628  0.00  0.00    +0.101 C 
ATOM      9  C   UNL     1       3.573   3.725   0.212  0.00  0.00    +0.259 C 
ATOM     10  O   UNL     1       4.497   4.486  -0.010  0.00  0.00    -0.269 OA
ATOM     11  N   UNL     1       2.430   4.200   0.733  0.00  0.00    -0.202 N 
ATOM     12  C   UNL     1       1.371   3.420   1.002  0.00  0.00    +0.258 C 
ATOM     13  O   UNL     1       0.367   3.917   1.475  0.00  0.00    -0.269 OA
ENDROOT
BRANCH  11  14
ATOM     14  C   UNL     1       2.339   5.571   1.008  0.00  0.00    +0.046 A 
ATOM     15  C   UNL     1       1.504   6.379   0.247  0.00  0.00    +0.024 A 
ATOM     16  C   UNL     1       1.415   7.730   0.521  0.00  0.00    +0.003 A 
ATOM     17  C   UNL     1       2.157   8.279   1.551  0.00  0.00    +0.020 A 
ATOM     18  C   UNL     1       2.990   7.477   2.311  0.00  0.00    +0.043 A 
ATOM     19  C   UNL     1       3.079   6.123   2.045  0.00  0.00    +0.044 A 
ATOM     20 CL   UNL     1       3.918   8.169   3.604  0.00  0.00    -0.083 Cl
ENDBRANCH  11  14
BRANCH   8  21
ATOM     21  N   UNL     1       5.872   2.655  -1.016  0.00  0.00    -0.271 N 
ATOM     22  H   UNL     1       5.719   3.612  -0.997  0.00  0.00    +0.169 HD
BRANCH  21  23
ATOM     23  N   UNL     1       7.107   2.151  -1.444  0.00  0.00    -0.236 N 
ATOM     24  C   UNL     1       8.083   2.996  -1.829  0.00  0.00    +0.243 C 
ATOM     25  O   UNL     1       7.893   4.194  -1.805  0.00  0.00    -0.273 OA
ATOM     26  H   UNL     1       7.260   1.193  -1.464  0.00  0.00    +0.173 HD
BRANCH  24  27
ATOM     27  C   UNL     1       9.412   2.454  -2.289  0.00  0.00    +0.215 C 
BRANCH  27  28
ATOM     28  C   UNL     1      10.299   3.571  -2.652  0.00  0.00    +0.072 C 
ATOM     29  N   UNL     1      10.983   4.434  -2.932  0.00  0.00    -0.196 NA
ENDBRANCH  27  28
ENDBRANCH  24  27
ENDBRANCH  21  23
ENDBRANCH   8  21
TORSDOF 5
