REMARK  Name = ZINC35671666
REMARK  4 active torsions:
REMARK  status: ('A' for Active; 'I' for Inactive)
REMARK    1  A    between atoms: C_3  and  C_6
REMARK    2  A    between atoms: C_6  and  C_8
REMARK    3  A    between atoms: C_6  and  N_24
REMARK    4  A    between atoms: C_8  and  N_9
REMARK                            x       y       z     vdW  Elec       q    Type
REMARK                         _______ _______ _______ _____ _____    ______ ____
ROOT
ATOM      1  N   UNL     1       3.881   1.472   2.316  0.00  0.00    -0.299 N 
ATOM      2  C   UNL     1       4.791   2.483   2.354  0.00  0.00    +0.202 A 
ATOM      3  N   UNL     1       4.637   3.547   3.074  0.00  0.00    -0.235 NA
ATOM      4  C   UNL     1       3.527   3.737   3.863  0.00  0.00    +0.107 A 
ATOM      5  C   UNL     1       3.240   4.843   4.688  0.00  0.00    +0.081 A 
ATOM      6  C   UNL     1       2.058   4.805   5.391  0.00  0.00    +0.070 A 
ATOM      7  S   UNL     1       1.305   3.273   4.944  0.00  0.00    -0.073 S 
ATOM      8  C   UNL     1       2.571   2.703   3.837  0.00  0.00    +0.105 A 
ATOM      9  C   UNL     1       2.750   1.568   3.055  0.00  0.00    +0.268 A 
ATOM     10  O   UNL     1       1.913   0.681   3.037  0.00  0.00    -0.266 OA
ATOM     11  S   UNL     1       1.502   6.061   6.480  0.00  0.00    -0.107 S 
ATOM     12  C   UNL     1       3.080   6.833   6.971  0.00  0.00    +0.171 C 
ATOM     13  C   UNL     1       3.992   6.887   5.779  0.00  0.00    +0.227 C 
ATOM     14  O   UNL     1       4.705   7.864   5.682  0.00  0.00    -0.275 OA
ATOM     15  N   UNL     1       4.098   5.971   4.820  0.00  0.00    -0.282 N 
ATOM     16  H   UNL     1       4.807   6.080   4.166  0.00  0.00    +0.155 HD
ENDROOT
BRANCH   1  17
ATOM     17  C   UNL     1       4.120   0.294   1.479  0.00  0.00    +0.119 C 
BRANCH  17  18
ATOM     18  C   UNL     1       3.680   0.591   0.044  0.00  0.00    +0.019 C 
BRANCH  18  19
ATOM     19  N   UNL     1       4.037  -0.541  -0.822  0.00  0.00    +0.387 N 
ATOM     20  C   UNL     1       3.755  -0.209  -2.242  0.00  0.00    -0.078 C 
ATOM     21  C   UNL     1       4.664  -1.190  -3.023  0.00  0.00    -0.020 C 
ATOM     22  C   UNL     1       5.942  -1.244  -2.154  0.00  0.00    -0.020 C 
ATOM     23  C   UNL     1       5.492  -0.799  -0.750  0.00  0.00    -0.078 C 
ATOM     24  H   UNL     1       3.523  -1.365  -0.547  0.00  0.00    -0.081 HD
ENDBRANCH  18  19
BRANCH  18  27
ATOM     25  C   UNL     1       0.171   1.716  -0.048  0.00  0.00    +0.041 A 
ATOM     26  C   UNL     1       1.559   1.987  -0.022  0.00  0.00    +0.043 A 
ATOM     27  C   UNL     1       2.187   0.798   0.009  0.00  0.00    +0.093 A 
ATOM     28  O   UNL     1       1.259  -0.173   0.004  0.00  0.00    -0.469 OA
ATOM     29  C   UNL     1       0.035   0.378  -0.031  0.00  0.00    +0.195 A 
ENDBRANCH  18  27
ENDBRANCH  17  18
ENDBRANCH   1  17
TORSDOF 4
