REMARK  Name = ZINC12285115
REMARK  8 active torsions:
REMARK  status: ('A' for Active; 'I' for Inactive)
REMARK    1  A    between atoms: C_1  and  C_2
REMARK    2  A    between atoms: C_5  and  C_9
REMARK    3  A    between atoms: C_6  and  O_8
REMARK    4  A    between atoms: N_10  and  N_11
REMARK    5  A    between atoms: C_12  and  C_14
REMARK    6  A    between atoms: C_14  and  N_25
REMARK    7  A    between atoms: C_15  and  C_16
REMARK    8  A    between atoms: C_26  and  C_28
REMARK                            x       y       z     vdW  Elec       q    Type
REMARK                         _______ _______ _______ _____ _____    ______ ____
ROOT
ATOM      1  C   UNL     1      -1.033   2.030   0.132  0.00  0.00    +0.098 C 
ATOM      2  C   UNL     1       0.197   1.614   0.517  0.00  0.00    +0.036 C 
ENDROOT
BRANCH   2   3
ATOM      3  C   UNL     1       0.346   0.362   1.273  0.00  0.00    -0.019 A 
ATOM      4  C   UNL     1      -0.645  -0.034   2.178  0.00  0.00    +0.012 A 
ATOM      5  C   UNL     1      -0.504  -1.210   2.882  0.00  0.00    +0.050 A 
ATOM      6  C   UNL     1       0.623  -2.001   2.704  0.00  0.00    +0.166 A 
ATOM      7  C   UNL     1       1.619  -1.609   1.808  0.00  0.00    +0.167 A 
ATOM      8  C   UNL     1       1.483  -0.434   1.095  0.00  0.00    +0.057 A 
ATOM      9  O   UNL     1       2.608  -2.550   1.819  0.00  0.00    -0.453 OA
ATOM     10  C   UNL     1       2.021  -3.718   2.421  0.00  0.00    +0.466 C 
ATOM     11  O   UNL     1       0.992  -3.184   3.275  0.00  0.00    -0.453 OA
ENDBRANCH   2   3
BRANCH   1  13
ATOM     12  N   UNL     1      -2.384   0.084  -0.448  0.00  0.00    -0.202 N 
ATOM     13  C   UNL     1      -2.199   1.163   0.338  0.00  0.00    +0.277 C 
ATOM     14  O   UNL     1      -2.999   1.418   1.220  0.00  0.00    -0.267 OA
ATOM     15  H   UNL     1      -1.711  -0.160  -1.103  0.00  0.00    +0.178 HD
BRANCH  12  17
ATOM     16  C   UNL     1      -3.685  -1.776  -1.009  0.00  0.00    +0.142 C 
ATOM     17  N   UNL     1      -3.549  -0.683  -0.321  0.00  0.00    -0.187 NA
BRANCH  16  22
ATOM     18  C   UNL     1      -8.634  -4.704  -0.824  0.00  0.00    +0.044 C 
ATOM     19  C   UNL     1      -7.339  -3.935  -0.870  0.00  0.00    -0.047 A 
ATOM     20  C   UNL     1      -6.292  -4.397  -1.649  0.00  0.00    +0.004 A 
ATOM     21  C   UNL     1      -5.103  -3.701  -1.699  0.00  0.00    +0.013 A 
ATOM     22  C   UNL     1      -4.953  -2.525  -0.961  0.00  0.00    +0.036 A 
ATOM     23  C   UNL     1      -6.013  -2.065  -0.169  0.00  0.00    +0.126 A 
ATOM     24  C   UNL     1      -7.203  -2.773  -0.134  0.00  0.00    +0.049 A 
BRANCH  23  25
ATOM     25  O   UNL     1      -5.877  -0.925   0.558  0.00  0.00    -0.506 OA
ATOM     26  H   UNL     1      -6.142  -0.124   0.086  0.00  0.00    +0.292 HD
ENDBRANCH  23  25
ENDBRANCH  16  22
ENDBRANCH  12  17
ENDBRANCH   1  13
BRANCH   1  27
ATOM     27  N   UNL     1      -1.192   3.287  -0.462  0.00  0.00    -0.277 N 
ATOM     28  C   UNL     1      -2.409   3.683  -0.884  0.00  0.00    +0.248 C 
ATOM     29  O   UNL     1      -3.384   2.990  -0.666  0.00  0.00    -0.270 OA
ATOM     30  H   UNL     1      -0.426   3.873  -0.570  0.00  0.00    +0.155 HD
BRANCH  28  31
ATOM     31  C   UNL     1      -2.558   4.960  -1.614  0.00  0.00    +0.037 A 
ATOM     32  C   UNL     1      -1.441   5.760  -1.862  0.00  0.00    +0.013 A 
ATOM     33  C   UNL     1      -1.587   6.948  -2.548  0.00  0.00    +0.001 A 
ATOM     34  C   UNL     1      -2.837   7.352  -2.981  0.00  0.00    +0.000 A 
ATOM     35  C   UNL     1      -3.949   6.566  -2.733  0.00  0.00    +0.001 A 
ATOM     36  C   UNL     1      -3.817   5.373  -2.053  0.00  0.00    +0.013 A 
ENDBRANCH  28  31
ENDBRANCH   1  27
TORSDOF 7
