REMARK  Name = ZINC53483714
REMARK  7 active torsions:
REMARK  status: ('A' for Active; 'I' for Inactive)
REMARK    1  A    between atoms: C_1  and  C_2
REMARK    2  A    between atoms: C_2  and  C_3
REMARK    3  A    between atoms: N_5  and  C_6
REMARK    4  A    between atoms: C_9  and  C_12
REMARK    5  A    between atoms: C_12  and  C_14
REMARK    6  A    between atoms: C_12  and  N_15
REMARK    7  A    between atoms: C_16  and  C_18
REMARK                            x       y       z     vdW  Elec       q    Type
REMARK                         _______ _______ _______ _____ _____    ______ ____
ROOT
ATOM      1  N   UNL     1       3.185  -4.560  -6.641  0.00  0.00    -0.304 N 
ATOM      2  C   UNL     1       3.383  -4.801  -7.953  0.00  0.00    +0.261 C 
ATOM      3  O   UNL     1       4.111  -4.075  -8.600  0.00  0.00    -0.269 OA
ATOM      4  H   UNL     1       2.604  -5.140  -6.124  0.00  0.00    +0.150 HD
ENDROOT
BRANCH   2   5
ATOM      5  C   UNL     1       2.714  -5.952  -8.605  0.00  0.00    +0.106 A 
ATOM      6  C   UNL     1       1.902  -6.745  -7.861  0.00  0.00    +0.082 A 
ATOM      7  C   UNL     1       1.249  -7.854  -8.463  0.00  0.00    +0.190 A 
ATOM      8  O   UNL     1       0.514  -8.579  -7.814  0.00  0.00    -0.287 OA
ATOM      9  C   UNL     1       1.487  -8.098  -9.895  0.00  0.00    +0.045 A 
ATOM     10  C   UNL     1       0.882  -9.166 -10.560  0.00  0.00    +0.014 A 
ATOM     11  C   UNL     1       1.127  -9.361 -11.890  0.00  0.00    +0.001 A 
ATOM     12  C   UNL     1       1.972  -8.506 -12.585  0.00  0.00    +0.002 A 
ATOM     13  C   UNL     1       2.579  -7.446 -11.949  0.00  0.00    +0.026 A 
ATOM     14  C   UNL     1       2.344  -7.228 -10.594  0.00  0.00    +0.051 A 
ATOM     15  N   UNL     1       2.931  -6.174  -9.934  0.00  0.00    -0.350 N 
ATOM     16  H   UNL     1       3.517  -5.577 -10.424  0.00  0.00    +0.166 HD
ENDBRANCH   2   5
BRANCH   1  17
ATOM     17  C   UNL     1       3.847  -3.423  -5.997  0.00  0.00    +0.100 C 
ATOM     18  C   UNL     1       5.254  -3.833  -5.559  0.00  0.00    +0.033 C 
BRANCH  17  22
ATOM     19  C   UNL     1       1.587  -2.209  -2.579  0.00  0.00    +0.033 A 
ATOM     20  C   UNL     1       2.161  -1.255  -3.408  0.00  0.00    +0.023 A 
ATOM     21  C   UNL     1       2.891  -1.650  -4.511  0.00  0.00    +0.007 A 
ATOM     22  C   UNL     1       3.050  -2.995  -4.792  0.00  0.00    -0.027 A 
ATOM     23  C   UNL     1       2.478  -3.948  -3.969  0.00  0.00    +0.007 A 
ATOM     24  C   UNL     1       1.753  -3.559  -2.860  0.00  0.00    +0.023 A 
BRANCH  19  27
ATOM     25  C   UNL     1       0.888  -2.545  -0.330  0.00  0.00    +0.217 C 
ATOM     26  O   UNL     1       1.498  -3.593  -0.308  0.00  0.00    -0.275 OA
ATOM     27  N   UNL     1       0.847  -1.812  -1.460  0.00  0.00    -0.286 N 
ATOM     28  H   UNL     1       0.304  -1.009  -1.497  0.00  0.00    +0.155 HD
BRANCH  25  30
ATOM     29  C   UNL     1       0.379  -3.073   2.039  0.00  0.00    +0.013 C 
ATOM     30  C   UNL     1       0.175  -2.063   0.908  0.00  0.00    +0.093 C 
ENDBRANCH  25  30
ENDBRANCH  19  27
ENDBRANCH  17  22
ENDBRANCH   1  17
TORSDOF 5
