REMARK  Name = ZINC16790963
REMARK  9 active torsions:
REMARK  status: ('A' for Active; 'I' for Inactive)
REMARK    1  A    between atoms: C_1  and  C_2
REMARK    2  A    between atoms: C_2  and  C_4
REMARK    3  A    between atoms: C_2  and  S_20
REMARK    4  A    between atoms: N_6  and  C_7
REMARK    5  A    between atoms: C_12  and  S_13
REMARK    6  A    between atoms: S_13  and  C_14
REMARK    7  A    between atoms: S_20  and  C_21
REMARK    8  A    between atoms: C_24  and  C_27
REMARK    9  A    between atoms: N_25  and  N_26
REMARK                            x       y       z     vdW  Elec       q    Type
REMARK                         _______ _______ _______ _____ _____    ______ ____
ROOT
ATOM      1  C   UNL     1      -0.056   1.377  -0.803  0.00  0.00    +0.230 C 
ATOM      2  O   UNL     1      -0.073   0.239  -1.221  0.00  0.00    -0.274 OA
ATOM      3  N   UNL     1      -1.158   1.902  -0.232  0.00  0.00    -0.284 N 
ATOM      4  H   UNL     1      -1.123   2.785   0.169  0.00  0.00    +0.155 HD
ENDROOT
BRANCH   3   5
ATOM      5  C   UNL     1      -2.354   1.173  -0.217  0.00  0.00    +0.047 A 
ATOM      6  C   UNL     1      -2.323  -0.214  -0.229  0.00  0.00    +0.024 A 
ATOM      7  C   UNL     1      -3.504  -0.932  -0.208  0.00  0.00    +0.002 A 
ATOM      8  C   UNL     1      -4.720  -0.272  -0.186  0.00  0.00    +0.001 A 
ATOM      9  C   UNL     1      -4.761   1.109  -0.179  0.00  0.00    +0.017 A 
ATOM     10  C   UNL     1      -3.580   1.839  -0.194  0.00  0.00    +0.034 A 
BRANCH  10  11
ATOM     11  S   UNL     1      -3.628   3.600  -0.185  0.00  0.00    -0.088 S 
BRANCH  11  12
ATOM     12  C   UNL     1      -3.187   4.030   1.466  0.00  0.00    +0.013 A 
ATOM     13  C   UNL     1      -3.028   3.037   2.425  0.00  0.00    +0.015 A 
ATOM     14  C   UNL     1      -2.678   3.377   3.717  0.00  0.00    +0.001 A 
ATOM     15  C   UNL     1      -2.496   4.705   4.059  0.00  0.00    +0.000 A 
ATOM     16  C   UNL     1      -2.658   5.696   3.108  0.00  0.00    +0.001 A 
ATOM     17  C   UNL     1      -3.003   5.363   1.813  0.00  0.00    +0.015 A 
ENDBRANCH  11  12
ENDBRANCH  10  11
ENDBRANCH   3   5
BRANCH   1  19
ATOM     18  C   UNL     1       1.066   3.152  -2.123  0.00  0.00    +0.029 C 
ATOM     19  C   UNL     1       1.196   2.207  -0.927  0.00  0.00    +0.137 C 
BRANCH  19  20
ATOM     20  S   UNL     1       2.620   1.117  -1.171  0.00  0.00    -0.072 S 
BRANCH  20  21
ATOM     21  C   UNL     1       3.924   2.303  -1.132  0.00  0.00    +0.209 A 
ATOM     22  N   UNL     1       3.792   3.599  -0.964  0.00  0.00    -0.120 NA
ATOM     23  N   UNL     1       4.944   4.168  -0.987  0.00  0.00    -0.123 NA
ATOM     24  C   UNL     1       5.885   3.267  -1.171  0.00  0.00    +0.217 A 
ATOM     25  N   UNL     1       5.259   2.043  -1.263  0.00  0.00    -0.221 N 
BRANCH  24  26
ATOM     26  C   UNL     1       7.332   3.518  -1.256  0.00  0.00    +0.173 A 
ATOM     27  C   UNL     1       7.969   4.664  -0.884  0.00  0.00    +0.053 A 
ATOM     28  C   UNL     1       9.340   4.465  -1.133  0.00  0.00    +0.042 A 
ATOM     29  C   UNL     1       9.474   3.227  -1.647  0.00  0.00    +0.196 A 
ATOM     30  O   UNL     1       8.259   2.657  -1.720  0.00  0.00    -0.460 OA
ENDBRANCH  24  26
BRANCH  25  31
ATOM     31  N   UNL     1       5.849   0.826  -1.451  0.00  0.00    -0.294 N 
ATOM     32  H   UNL     1       5.935   0.613  -2.433  0.00  0.00    +0.163 HD
ATOM     33  H   UNL     1       6.747   0.785  -0.992  0.00  0.00    +0.163 HD
ENDBRANCH  25  31
ENDBRANCH  20  21
ENDBRANCH  19  20
ENDBRANCH   1  19
TORSDOF 8
