REMARK  Name = ZINC12736932
REMARK  5 active torsions:
REMARK  status: ('A' for Active; 'I' for Inactive)
REMARK    1  A    between atoms: C_4  and  N_7
REMARK    2  A    between atoms: C_8  and  C_10
REMARK    3  A    between atoms: C_10  and  N_54
REMARK    4  A    between atoms: C_13  and  N_16
REMARK    5  A    between atoms: C_17  and  C_19
REMARK                            x       y       z     vdW  Elec       q    Type
REMARK                         _______ _______ _______ _____ _____    ______ ____
ROOT
ATOM      1  C   UNL     1       7.088   1.043  -1.622  0.00  0.00    -0.076 C 
ATOM      2  C   UNL     1       8.160   2.135  -1.627  0.00  0.00    +0.003 C 
ATOM      3  C   UNL     1       9.542   1.487  -1.512  0.00  0.00    +0.070 C 
ATOM      4  C   UNL     1       9.599   0.647  -0.234  0.00  0.00    +0.003 C 
ATOM      5  C   UNL     1       8.485  -0.403  -0.269  0.00  0.00    -0.076 C 
ATOM      6  N   UNL     1       7.180   0.286  -0.355  0.00  0.00    +0.386 N 
ATOM      7  H   UNL     1       7.097   0.941   0.431  0.00  0.00    -0.081 HD
ENDROOT
BRANCH   3   8
ATOM      8  N   UNL     1      10.569   2.531  -1.458  0.00  0.00    -0.309 N 
ATOM      9  C   UNL     1      11.059   3.054  -2.599  0.00  0.00    +0.257 C 
ATOM     10  O   UNL     1      10.650   2.661  -3.671  0.00  0.00    -0.272 OA
ATOM     11  H   UNL     1      10.896   2.845  -0.601  0.00  0.00    +0.149 HD
BRANCH   9  12
ATOM     12  C   UNL     1      12.115   4.128  -2.543  0.00  0.00    +0.296 C 
ATOM     13  C   UNL     1      13.412   3.548  -1.962  0.00  0.00    +0.283 C 
ATOM     14  O   UNL     1      14.395   4.588  -1.935  0.00  0.00    -0.484 OA
ATOM     15  C   UNL     1      14.518   5.342  -3.062  0.00  0.00    +0.162 A 
ATOM     16  C   UNL     1      15.660   6.108  -3.247  0.00  0.00    +0.049 A 
ATOM     17  C   UNL     1      15.798   6.881  -4.385  0.00  0.00    +0.004 A 
ATOM     18  C   UNL     1      14.800   6.893  -5.341  0.00  0.00    +0.004 A 
ATOM     19  C   UNL     1      13.660   6.131  -5.163  0.00  0.00    +0.049 A 
ATOM     20  C   UNL     1      13.516   5.352  -4.025  0.00  0.00    +0.163 A 
ATOM     21  O   UNL     1      12.390   4.604  -3.865  0.00  0.00    -0.473 OA
ENDBRANCH   9  12
ENDBRANCH   3   8
BRANCH   6  22
ATOM     22  C   UNL     1       6.083  -0.701  -0.276  0.00  0.00    +0.019 C 
BRANCH  22  24
ATOM     23  N   UNL     1       3.622  -0.651  -0.036  0.00  0.00    -0.287 N 
ATOM     24  C   UNL     1       4.776   0.037  -0.145  0.00  0.00    +0.201 C 
ATOM     25  O   UNL     1       4.761   1.250  -0.139  0.00  0.00    -0.278 OA
ATOM     26  H   UNL     1       3.638  -1.619   0.026  0.00  0.00    +0.155 HD
BRANCH  23  30
ATOM     27  C   UNL     1      -0.015   1.381   0.033  0.00  0.00    +0.000 A 
ATOM     28  C   UNL     1       1.101   1.943   0.626  0.00  0.00    +0.002 A 
ATOM     29  C   UNL     1       2.308   1.272   0.605  0.00  0.00    +0.023 A 
ATOM     30  C   UNL     1       2.400   0.032  -0.013  0.00  0.00    +0.033 A 
ATOM     31  C   UNL     1       1.278  -0.530  -0.607  0.00  0.00    +0.023 A 
ATOM     32  C   UNL     1       0.074   0.146  -0.582  0.00  0.00    +0.002 A 
ENDBRANCH  23  30
ENDBRANCH  22  24
ENDBRANCH   6  22
TORSDOF 5
