REMARK  Name = ZINC39560663
REMARK  11 active torsions:
REMARK  status: ('A' for Active; 'I' for Inactive)
REMARK    1  A    between atoms: C_1  and  N_2
REMARK    2  A    between atoms: C_3  and  C_15
REMARK    3  A    between atoms: C_5  and  C_7
REMARK    4  A    between atoms: C_10  and  O_13
REMARK    5  A    between atoms: O_13  and  C_14
REMARK    6  A    between atoms: C_24  and  C_26
REMARK    7  A    between atoms: C_26  and  N_27
REMARK    8  A    between atoms: N_27  and  C_28
REMARK    9  A    between atoms: N_27  and  C_34
REMARK   10  A    between atoms: C_28  and  C_29
REMARK   11  A    between atoms: C_34  and  C_35
REMARK                            x       y       z     vdW  Elec       q    Type
REMARK                         _______ _______ _______ _____ _____    ______ ____
ROOT
ATOM      1  C   UNL     1       1.020   0.714  -1.890  0.00  0.00    +0.024 C 
ATOM      2  C   UNL     1       2.368   0.448  -2.565  0.00  0.00    -0.069 C 
ATOM      3  N   UNL     1       2.158  -0.085  -3.913  0.00  0.00    +0.381 N 
ATOM      4  C   UNL     1       1.435   0.881  -4.743  0.00  0.00    -0.078 C 
ATOM      5  C   UNL     1       0.056   1.162  -4.141  0.00  0.00    -0.015 C 
ATOM      6  C   UNL     1      -0.106   0.332  -2.860  0.00  0.00    -0.007 C 
ATOM      7  C   UNL     1       0.052  -1.150  -3.224  0.00  0.00    -0.013 C 
ATOM      8  C   UNL     1       1.436  -1.359  -3.856  0.00  0.00    -0.085 C 
ATOM      9  H   UNL     1       3.059  -0.247  -4.336  0.00  0.00    -0.082 HD
ENDROOT
BRANCH   1  12
ATOM     10  C   UNL     1       3.359  -0.271  -0.117  0.00  0.00    +0.172 C 
ATOM     11  N   UNL     1       1.940  -0.538   0.128  0.00  0.00    -0.271 N 
ATOM     12  C   UNL     1       0.910  -0.115  -0.637  0.00  0.00    +0.041 A 
ATOM     13  C   UNL     1      -0.235  -0.566  -0.081  0.00  0.00    +0.053 A 
ATOM     14  C   UNL     1       0.104  -1.297   1.074  0.00  0.00    +0.093 A 
ATOM     15  N   UNL     1       1.415  -1.282   1.193  0.00  0.00    -0.171 NA
BRANCH  14  16
ATOM     16  C   UNL     1      -0.848  -1.971   1.993  0.00  0.00    +0.002 A 
ATOM     17  C   UNL     1      -2.217  -1.916   1.741  0.00  0.00    +0.013 A 
ATOM     18  C   UNL     1      -3.099  -2.543   2.596  0.00  0.00    +0.046 A 
ATOM     19  C   UNL     1      -2.624  -3.228   3.706  0.00  0.00    +0.120 A 
ATOM     20  C   UNL     1      -1.260  -3.283   3.959  0.00  0.00    +0.046 A 
ATOM     21  C   UNL     1      -0.373  -2.663   3.105  0.00  0.00    +0.013 A 
BRANCH  19  22
ATOM     22  O   UNL     1      -3.496  -3.844   4.547  0.00  0.00    -0.495 OA
ATOM     23  C   UNL     1      -2.939  -4.530   5.670  0.00  0.00    +0.277 C 
ENDBRANCH  19  22
ENDBRANCH  14  16
ENDBRANCH   1  12
BRANCH   8  24
ATOM     24  C   UNL     1       2.234  -2.358  -3.017  0.00  0.00    -0.093 C 
BRANCH  24  25
ATOM     25  N   UNL     1       3.574  -2.525  -3.597  0.00  0.00    +0.388 N 
ATOM     26  H   UNL     1       3.882  -1.648  -3.989  0.00  0.00    -0.081 HD
BRANCH  25  27
ATOM     27  C   UNL     1       4.511  -2.949  -2.549  0.00  0.00    -0.003 C 
BRANCH  27  28
ATOM     28  C   UNL     1       5.907  -3.002  -3.115  0.00  0.00    +0.089 A 
ATOM     29  C   UNL     1       6.792  -1.989  -3.122  0.00  0.00    +0.042 A 
ATOM     30  C   UNL     1       7.964  -2.474  -3.746  0.00  0.00    +0.041 A 
ATOM     31  C   UNL     1       7.726  -3.754  -4.083  0.00  0.00    +0.195 A 
ATOM     32  O   UNL     1       6.480  -4.070  -3.693  0.00  0.00    -0.470 OA
ENDBRANCH  27  28
ENDBRANCH  25  27
BRANCH  25  33
ATOM     33  C   UNL     1       3.526  -3.544  -4.653  0.00  0.00    -0.003 C 
BRANCH  33  34
ATOM     34  C   UNL     1       2.725  -3.023  -5.819  0.00  0.00    +0.089 A 
ATOM     35  C   UNL     1       3.170  -2.173  -6.761  0.00  0.00    +0.042 A 
ATOM     36  C   UNL     1       2.096  -1.953  -7.655  0.00  0.00    +0.041 A 
ATOM     37  C   UNL     1       1.059  -2.682  -7.204  0.00  0.00    +0.195 A 
ATOM     38  O   UNL     1       1.448  -3.332  -6.095  0.00  0.00    -0.470 OA
ENDBRANCH  33  34
ENDBRANCH  25  33
ENDBRANCH  24  25
ENDBRANCH   8  24
TORSDOF 9
