REMARK  Name = ZINC04847558
REMARK  16 active torsions:
REMARK  status: ('A' for Active; 'I' for Inactive)
REMARK    1  A    between atoms: C_1  and  C_2
REMARK    2  A    between atoms: C_2  and  C_3
REMARK    3  A    between atoms: C_3  and  C_5
REMARK    4  A    between atoms: C_3  and  N_63
REMARK    5  A    between atoms: N_9  and  C_10
REMARK    6  A    between atoms: C_10  and  C_11
REMARK    7  A    between atoms: C_10  and  C_12
REMARK    8  A    between atoms: C_10  and  C_13
REMARK    9  A    between atoms: C_14  and  C_15
REMARK   10  A    between atoms: C_14  and  N_63
REMARK   11  A    between atoms: C_15  and  O_16
REMARK   12  A    between atoms: C_17  and  C_18
REMARK   13  A    between atoms: C_17  and  N_63
REMARK   14  A    between atoms: C_22  and  O_30
REMARK   15  A    between atoms: O_30  and  C_31
REMARK   16  A    between atoms: C_31  and  C_32
REMARK                            x       y       z     vdW  Elec       q    Type
REMARK                         _______ _______ _______ _____ _____    ______ ____
ROOT
ATOM      1  N   UNL     1       0.498  -1.237   1.139  0.00  0.00    +0.391 N 
ATOM      2  H   UNL     1      -0.016  -0.443   1.540  0.00  0.00    -0.080 HD
ENDROOT
BRANCH   1   3
ATOM      3  C   UNL     1      -0.292  -2.470   1.339  0.00  0.00    +0.003 C 
BRANCH   3   4
ATOM      4  C   UNL     1       0.041  -3.066   2.683  0.00  0.00    +0.139 A 
ATOM      5  N   UNL     1       0.072  -2.437   3.832  0.00  0.00    -0.115 NA
ATOM      6  N   UNL     1       0.396  -3.288   4.743  0.00  0.00    -0.023 NA
ATOM      7  N   UNL     1       0.572  -4.444   4.205  0.00  0.00    -0.043 NA
ATOM      8  N   UNL     1       0.357  -4.350   2.936  0.00  0.00    -0.226 N 
BRANCH   8   9
ATOM      9  C   UNL     1       0.444  -5.435   1.956  0.00  0.00    +0.059 C 
ATOM     10  C   UNL     1       1.584  -5.148   0.977  0.00  0.00    +0.036 C 
ATOM     11  C   UNL     1       0.713  -6.756   2.679  0.00  0.00    +0.036 C 
ATOM     12  C   UNL     1      -0.876  -5.534   1.187  0.00  0.00    +0.036 C 
ENDBRANCH   8   9
ENDBRANCH   3   4
BRANCH   3  14
ATOM     13  C   UNL     1      -2.140  -1.608  -0.105  0.00  0.00    +0.002 C 
ATOM     14  C   UNL     1      -1.778  -2.110   1.294  0.00  0.00    -0.011 C 
ENDBRANCH   3  14
ENDBRANCH   1   3
BRANCH   1  15
ATOM     15  C   UNL     1       1.804  -1.357   1.821  0.00  0.00    -0.049 C 
BRANCH  15  16
ATOM     16  C   UNL     1       2.493   0.009   1.811  0.00  0.00    +0.137 C 
BRANCH  16  17
ATOM     17  O   UNL     1       1.690   0.953   2.523  0.00  0.00    -0.397 OA
ATOM     18  H   UNL     1       2.067   1.842   2.557  0.00  0.00    +0.209 HD
ENDBRANCH  16  17
ENDBRANCH  15  16
ENDBRANCH   1  15
BRANCH   1  19
ATOM     19  C   UNL     1       0.703  -0.997  -0.305  0.00  0.00    -0.036 C 
BRANCH  19  20
ATOM     20  C   UNL     1       1.423  -2.160  -0.937  0.00  0.00    +0.001 A 
ATOM     21  C   UNL     1       0.716  -3.135  -1.559  0.00  0.00    +0.017 A 
ATOM     22  C   UNL     1       1.445  -4.252  -2.163  0.00  0.00    +0.002 A 
ATOM     23  C   UNL     1       0.768  -5.286  -2.819  0.00  0.00    +0.055 A 
ATOM     24  C   UNL     1       1.486  -6.323  -3.378  0.00  0.00    +0.121 A 
ATOM     25  C   UNL     1       2.877  -6.343  -3.292  0.00  0.00    +0.047 A 
ATOM     26  C   UNL     1       3.554  -5.330  -2.650  0.00  0.00    +0.030 A 
ATOM     27  C   UNL     1       2.850  -4.275  -2.079  0.00  0.00    +0.049 A 
ATOM     28  N   UNL     1       3.510  -3.251  -1.431  0.00  0.00    -0.322 N 
ATOM     29  H   UNL     1       4.508  -3.271  -1.368  0.00  0.00    +0.169 HD
ATOM     30  C   UNL     1       2.832  -2.227  -0.885  0.00  0.00    +0.251 A 
ATOM     31  O   UNL     1       3.449  -1.337  -0.325  0.00  0.00    -0.268 OA
BRANCH  24  32
ATOM     32  O   UNL     1       0.834  -7.331  -4.015  0.00  0.00    -0.492 OA
BRANCH  32  33
ATOM     33  C   UNL     1       1.637  -8.374  -4.572  0.00  0.00    +0.225 C 
ATOM     34  C   UNL     1       0.734  -9.411  -5.243  0.00  0.00    +0.048 C 
ENDBRANCH  32  33
ENDBRANCH  24  32
ENDBRANCH  19  20
ENDBRANCH   1  19
TORSDOF 11
