REMARK  Name = ZINC39689134
REMARK  8 active torsions:
REMARK  status: ('A' for Active; 'I' for Inactive)
REMARK    1  A    between atoms: C_1  and  C_2
REMARK    2  A    between atoms: C_2  and  C_3
REMARK    3  A    between atoms: C_3  and  C_5
REMARK    4  A    between atoms: C_3  and  C_6
REMARK    5  A    between atoms: C_10  and  C_19
REMARK    6  A    between atoms: N_21  and  C_22
REMARK    7  A    between atoms: C_22  and  C_23
REMARK    8  A    between atoms: N_26  and  C_29
REMARK                            x       y       z     vdW  Elec       q    Type
REMARK                         _______ _______ _______ _____ _____    ______ ____
ROOT
ATOM      1  C   UNL     1       1.109  -2.245   1.225  0.00  0.00    +0.218 C 
ATOM      2  O   UNL     1       0.817  -2.918   0.259  0.00  0.00    -0.275 OA
ATOM      3  N   UNL     1       1.563  -2.839   2.347  0.00  0.00    -0.300 N 
ATOM      4  C   UNL     1       1.864  -2.204   3.652  0.00  0.00    +0.121 C 
ATOM      5  C   UNL     1       1.361  -3.218   4.704  0.00  0.00    +0.100 C 
ATOM      6  C   UNL     1       1.372  -4.574   3.978  0.00  0.00    -0.004 C 
ATOM      7  C   UNL     1       1.867  -4.274   2.556  0.00  0.00    +0.115 C 
ATOM      8  C   UNL     1      -0.037  -5.157   3.928  0.00  0.00    -0.010 C 
ATOM      9  C   UNL     1       0.008  -6.531   3.253  0.00  0.00    -0.082 C 
ATOM     10  N   UNL     1       0.900  -7.420   4.007  0.00  0.00    +0.379 N 
ATOM     11  C   UNL     1       2.272  -6.899   3.972  0.00  0.00    -0.082 C 
ATOM     12  C   UNL     1       2.323  -5.541   4.678  0.00  0.00    -0.010 C 
ATOM     13  H   UNL     1       0.587  -7.475   4.964  0.00  0.00    -0.086 HD
ATOM     14  H   UNL     1       0.881  -8.341   3.596  0.00  0.00    -0.086 HD
ENDROOT
BRANCH   5  15
ATOM     15  C   UNL     1       2.291  -3.248   5.890  0.00  0.00    +0.218 C 
ATOM     16  O   UNL     1       3.468  -2.994   5.744  0.00  0.00    -0.275 OA
ATOM     17  N   UNL     1       1.815  -3.557   7.112  0.00  0.00    -0.315 N 
ATOM     18  H   UNL     1       0.874  -3.761   7.229  0.00  0.00    +0.149 HD
BRANCH  17  19
ATOM     19  C   UNL     1       2.719  -3.586   8.265  0.00  0.00    +0.107 C 
BRANCH  19  20
ATOM     20  C   UNL     1       1.931  -3.962   9.521  0.00  0.00    +0.003 C 
ATOM     21  C   UNL     1       1.411  -5.396   9.390  0.00  0.00    -0.014 C 
ATOM     22  C   UNL     1       0.693  -5.793  10.681  0.00  0.00    -0.078 C 
ATOM     23  N   UNL     1       1.627  -5.712  11.810  0.00  0.00    +0.382 N 
ATOM     24  C   UNL     1       2.074  -4.325  11.987  0.00  0.00    -0.078 C 
ATOM     25  C   UNL     1       2.846  -3.871  10.746  0.00  0.00    -0.014 C 
ATOM     26  H   UNL     1       2.426  -6.301  11.628  0.00  0.00    -0.081 HD
BRANCH  23  27
ATOM     27  C   UNL     1       0.955  -6.168  13.034  0.00  0.00    -0.069 C 
ATOM     28  C   UNL     1       0.597  -7.671  12.928  0.00  0.00    -0.015 C 
ATOM     29  C   UNL     1       0.492  -8.103  14.412  0.00  0.00    -0.002 C 
ATOM     30  C   UNL     1       1.622  -7.322  15.114  0.00  0.00    -0.002 C 
ATOM     31  C   UNL     1       1.917  -6.092  14.238  0.00  0.00    -0.015 C 
ENDBRANCH  23  27
ENDBRANCH  19  20
ENDBRANCH  17  19
ENDBRANCH   5  15
BRANCH   1  32
ATOM     32  C   UNL     1       0.966  -0.746   1.171  0.00  0.00    +0.072 C 
ATOM     33  C   UNL     1      -0.442  -0.352   1.621  0.00  0.00    +0.017 C 
BRANCH  32  35
ATOM     34  C   UNL     1       1.175   1.266  -0.296  0.00  0.00    +0.004 C 
ATOM     35  C   UNL     1       1.197  -0.264  -0.263  0.00  0.00    +0.009 C 
ENDBRANCH  32  35
ENDBRANCH   1  32
TORSDOF 6
