REMARK  Name = ZINC34998333
REMARK  14 active torsions:
REMARK  status: ('A' for Active; 'I' for Inactive)
REMARK    1  A    between atoms: C_1  and  C_2
REMARK    2  A    between atoms: C_2  and  N_3
REMARK    3  A    between atoms: C_11  and  C_13
REMARK    4  A    between atoms: C_14  and  C_16
REMARK    5  A    between atoms: C_16  and  C_18
REMARK    6  A    between atoms: C_16  and  N_21
REMARK    7  A    between atoms: C_18  and  C_19
REMARK    8  A    between atoms: C_18  and  C_20
REMARK    9  A    between atoms: N_21  and  S_22
REMARK   10  A    between atoms: S_22  and  C_25
REMARK   11  A    between atoms: C_28  and  C_31
REMARK   12  A    between atoms: C_31  and  C_32
REMARK   13  A    between atoms: C_31  and  C_33
REMARK   14  A    between atoms: C_31  and  C_34
REMARK                            x       y       z     vdW  Elec       q    Type
REMARK                         _______ _______ _______ _____ _____    ______ ____
ROOT
ATOM      1  C   UNL     1      -7.952  -2.842   1.055  0.00  0.00    +0.165 C 
ENDROOT
BRANCH   1  12
ATOM      2  N   UNL     1      -1.999   0.015   2.001  0.00  0.00    -0.299 N 
ATOM      3  C   UNL     1      -2.070  -1.329   2.070  0.00  0.00    +0.303 C 
ATOM      4  O   UNL     1      -1.120  -1.968   2.480  0.00  0.00    -0.253 OA
ATOM      5  N   UNL     1      -3.193  -1.965   1.683  0.00  0.00    -0.280 N 
ATOM      6  C   UNL     1      -4.320  -1.213   1.113  0.00  0.00    +0.128 C 
ATOM      7  C   UNL     1      -5.580  -1.525   1.929  0.00  0.00    +0.127 C 
ATOM      8  N   UNL     1      -5.700  -2.983   2.070  0.00  0.00    -0.297 N 
ATOM      9  C   UNL     1      -4.574  -3.735   2.640  0.00  0.00    +0.130 C 
ATOM     10  C   UNL     1      -3.311  -3.424   1.818  0.00  0.00    +0.092 C 
ATOM     11  C   UNL     1      -2.078  -3.974   2.538  0.00  0.00    +0.030 C 
ATOM     12  C   UNL     1      -6.824  -3.619   1.683  0.00  0.00    +0.235 C 
ATOM     13  O   UNL     1      -6.927  -4.817   1.840  0.00  0.00    -0.274 OA
ATOM     14  H   UNL     1      -2.726   0.520   1.603  0.00  0.00    +0.150 HD
BRANCH   2  16
ATOM     15  C   UNL     1      -0.995   2.222   2.326  0.00  0.00    +0.024 C 
ATOM     16  C   UNL     1      -0.824   0.715   2.527  0.00  0.00    +0.102 C 
ENDBRANCH   2  16
ENDBRANCH   1  12
BRANCH   1  17
ATOM     17  C   UNL     1      -7.831  -2.908  -0.469  0.00  0.00    +0.010 C 
ATOM     18  C   UNL     1      -6.490  -2.311  -0.900  0.00  0.00    +0.009 C 
ATOM     19  C   UNL     1      -7.910  -4.367  -0.924  0.00  0.00    +0.009 C 
ENDBRANCH   1  17
BRANCH   1  20
ATOM     20  N   UNL     1      -9.233  -3.420   1.469  0.00  0.00    -0.178 NA
ATOM     21  H   UNL     1      -9.375  -4.377   1.407  0.00  0.00    +0.149 HD
BRANCH  20  22
ATOM     22  S   UNL     1     -10.437  -2.439   2.043  0.00  0.00    +0.059 S 
ATOM     23  O   UNL     1     -11.573  -3.267   2.247  0.00  0.00    -0.153 OA
ATOM     24  O   UNL     1      -9.865  -1.660   3.085  0.00  0.00    -0.153 OA
BRANCH  22  25
ATOM     25  C   UNL     1     -10.857  -1.318   0.749  0.00  0.00    +0.105 A 
ATOM     26  C   UNL     1     -10.171  -0.125   0.619  0.00  0.00    +0.029 A 
ATOM     27  C   UNL     1     -10.500   0.754  -0.396  0.00  0.00    +0.006 A 
ATOM     28  C   UNL     1     -11.515   0.440  -1.280  0.00  0.00    -0.042 A 
ATOM     29  C   UNL     1     -12.200  -0.753  -1.151  0.00  0.00    +0.006 A 
ATOM     30  C   UNL     1     -11.868  -1.635  -0.138  0.00  0.00    +0.029 A 
BRANCH  28  31
ATOM     31  C   UNL     1     -11.874   1.399  -2.386  0.00  0.00    -0.013 C 
ATOM     32  C   UNL     1     -10.656   1.621  -3.285  0.00  0.00    +0.015 C 
ATOM     33  C   UNL     1     -13.020   0.815  -3.215  0.00  0.00    +0.015 C 
ATOM     34  C   UNL     1     -12.311   2.734  -1.781  0.00  0.00    +0.015 C 
ENDBRANCH  28  31
ENDBRANCH  22  25
ENDBRANCH  20  22
ENDBRANCH   1  20
TORSDOF 7
