REMARK  Name = ZINC58890681
REMARK  10 active torsions:
REMARK  status: ('A' for Active; 'I' for Inactive)
REMARK    1  A    between atoms: C_1  and  C_2
REMARK    2  A    between atoms: C_4  and  C_16
REMARK    3  A    between atoms: C_5  and  C_15
REMARK    4  A    between atoms: N_6  and  C_7
REMARK    5  A    between atoms: N_17  and  N_18
REMARK    6  A    between atoms: C_19  and  C_21
REMARK    7  A    between atoms: C_21  and  C_22
REMARK    8  A    between atoms: C_22  and  C_23
REMARK    9  A    between atoms: C_23  and  C_25
REMARK   10  A    between atoms: C_23  and  O_31
REMARK                            x       y       z     vdW  Elec       q    Type
REMARK                         _______ _______ _______ _____ _____    ______ ____
ROOT
ATOM      1  C   UNL     1      -0.183  -3.332  -1.478  0.00  0.00    +0.140 C 
ATOM      2  N   UNL     1      -0.134  -4.513  -0.941  0.00  0.00    -0.188 NA
ENDROOT
BRANCH   1   6
ATOM      3  C   UNL     1      -1.546  -0.326   2.417  0.00  0.00    +0.064 C 
ATOM      4  C   UNL     1      -1.018  -0.836   1.100  0.00  0.00    +0.022 A 
ATOM      5  C   UNL     1      -1.010  -2.123   0.706  0.00  0.00    +0.032 A 
ATOM      6  C   UNL     1      -0.409  -2.147  -0.631  0.00  0.00    +0.016 A 
ATOM      7  C   UNL     1      -0.101  -0.851  -0.935  0.00  0.00    +0.030 A 
ATOM      8  N   UNL     1      -0.476  -0.067   0.111  0.00  0.00    -0.315 N 
ATOM      9  C   UNL     1       0.540  -0.373  -2.213  0.00  0.00    +0.064 C 
BRANCH   8  10
ATOM     10  C   UNL     1      -0.325   1.327   0.166  0.00  0.00    +0.082 A 
ATOM     11  C   UNL     1       0.840   1.880   0.677  0.00  0.00    +0.030 A 
ATOM     12  C   UNL     1       0.987   3.252   0.731  0.00  0.00    +0.017 A 
ATOM     13  C   UNL     1      -0.027   4.077   0.276  0.00  0.00    +0.021 A 
ATOM     14  C   UNL     1      -1.191   3.530  -0.235  0.00  0.00    +0.055 A 
ATOM     15  C   UNL     1      -1.341   2.156  -0.296  0.00  0.00    +0.148 A 
ATOM     16  F   UNL     1      -2.474   1.621  -0.800  0.00  0.00    -0.203 F 
ATOM     17 BR   UNL     1       0.178   5.955   0.351  0.00  0.00    -0.050 Br
ENDBRANCH   8  10
ENDBRANCH   1   6
BRANCH   2  18
ATOM     18  N   UNL     1      -0.112  -4.648   0.453  0.00  0.00    -0.207 N 
ATOM     19  C   UNL     1      -0.180  -5.873   1.012  0.00  0.00    +0.232 C 
ATOM     20  O   UNL     1      -0.262  -6.857   0.308  0.00  0.00    -0.274 OA
ATOM     21  H   UNL     1      -0.046  -3.861   1.016  0.00  0.00    +0.177 HD
BRANCH  19  22
ATOM     22  C   UNL     1      -0.156  -6.019   2.512  0.00  0.00    +0.100 C 
BRANCH  22  23
ATOM     23  C   UNL     1      -0.246  -7.500   2.882  0.00  0.00    +0.045 C 
BRANCH  23  24
ATOM     24  C   UNL     1      -0.222  -7.649   4.404  0.00  0.00    +0.145 C 
BRANCH  24  25
ATOM     25  C   UNL     1      -0.434  -9.095   4.772  0.00  0.00    -0.019 A 
ATOM     26  C   UNL     1       0.641  -9.963   4.808  0.00  0.00    +0.006 A 
ATOM     27  C   UNL     1       0.446 -11.290   5.146  0.00  0.00    +0.000 A 
ATOM     28  C   UNL     1      -0.823 -11.747   5.447  0.00  0.00    +0.000 A 
ATOM     29  C   UNL     1      -1.898 -10.879   5.411  0.00  0.00    +0.000 A 
ATOM     30  C   UNL     1      -1.702  -9.551   5.078  0.00  0.00    +0.006 A 
ENDBRANCH  24  25
BRANCH  24  31
ATOM     31  O   UNL     1       1.042  -7.210   4.905  0.00  0.00    -0.387 OA
ATOM     32  H   UNL     1       1.796  -7.706   4.559  0.00  0.00    +0.210 HD
ENDBRANCH  24  31
ENDBRANCH  23  24
ENDBRANCH  22  23
ENDBRANCH  19  22
ENDBRANCH   2  18
TORSDOF 8
