REMARK  Name = ZINC20813106
REMARK  11 active torsions:
REMARK  status: ('A' for Active; 'I' for Inactive)
REMARK    1  A    between atoms: C_1  and  C_2
REMARK    2  A    between atoms: C_5  and  N_32
REMARK    3  A    between atoms: N_6  and  C_7
REMARK    4  A    between atoms: C_7  and  C_8
REMARK    5  A    between atoms: C_8  and  O_9
REMARK    6  A    between atoms: O_9  and  C_10
REMARK    7  A    between atoms: N_12  and  C_13
REMARK    8  A    between atoms: C_13  and  C_15
REMARK    9  A    between atoms: C_13  and  N_19
REMARK   10  A    between atoms: N_19  and  C_20
REMARK   11  A    between atoms: C_20  and  C_21
REMARK                            x       y       z     vdW  Elec       q    Type
REMARK                         _______ _______ _______ _____ _____    ______ ____
ROOT
ATOM      1  C   UNL     1      -3.689  -0.662  -0.365  0.00  0.00    +0.196 C 
ENDROOT
BRANCH   1   4
ATOM      2  C   UNL     1      -4.824   0.574   1.402  0.00  0.00    +0.402 C 
ATOM      3  O   UNL     1      -4.396  -0.234   2.202  0.00  0.00    -0.226 OA
ATOM      4  N   UNL     1      -4.528   0.449   0.093  0.00  0.00    -0.262 N 
ATOM      5  H   UNL     1      -4.916   1.180  -0.631  0.00  0.00    +0.154 HD
BRANCH   2   6
ATOM      6  O   UNL     1      -5.595   1.595   1.823  0.00  0.00    -0.449 OA
BRANCH   6   7
ATOM      7  C   UNL     1      -5.873   1.667   3.246  0.00  0.00    +0.255 C 
BRANCH   7   8
ATOM      8  C   UNL     1      -6.757   2.883   3.532  0.00  0.00    +0.166 C 
BRANCH   8  14
ATOM      9  C   UNL     1      -5.044   4.391   5.628  0.00  0.00    +0.086 C 
ATOM     10  C   UNL     1      -6.303   3.608   5.896  0.00  0.00    +0.108 A 
ATOM     11  N   UNL     1      -6.865   3.447   7.062  0.00  0.00    -0.239 NA
ATOM     12  C   UNL     1      -7.967   2.694   6.923  0.00  0.00    +0.164 A 
ATOM     13  C   UNL     1      -8.096   2.382   5.619  0.00  0.00    +0.216 A 
ATOM     14  N   UNL     1      -7.037   2.956   4.968  0.00  0.00    -0.306 N 
BRANCH  13  15
ATOM     15  N   UNL     1      -9.172   1.571   5.008  0.00  0.00    +0.075 N 
ATOM     16  O   UNL     1      -9.169   1.359   3.809  0.00  0.00    -0.125 OA
ATOM     17  O   UNL     1     -10.062   1.115   5.705  0.00  0.00    -0.125 OA
ENDBRANCH  13  15
ENDBRANCH   8  14
ENDBRANCH   7   8
ENDBRANCH   6   7
ENDBRANCH   2   6
ENDBRANCH   1   4
BRANCH   1  18
ATOM     18  C   UNL     1      -4.309  -1.285  -1.618  0.00  0.00    +0.222 C 
ATOM     19 CL   UNL     1      -3.276  -2.652  -2.181  0.00  0.00    -0.080 Cl
ATOM     20 CL   UNL     1      -5.959  -1.899  -1.231  0.00  0.00    -0.080 Cl
ATOM     21 CL   UNL     1      -4.419  -0.040  -2.917  0.00  0.00    -0.080 Cl
ENDBRANCH   1  18
BRANCH   1  22
ATOM     22  N   UNL     1      -2.345  -0.162  -0.680  0.00  0.00    -0.291 NA
ATOM     23  H   UNL     1      -2.010  -0.588  -1.638  0.00  0.00    +0.124 HD
BRANCH  22  24
ATOM     24  C   UNL     1      -1.384  -0.541   0.365  0.00  0.00    +0.130 C 
BRANCH  24  25
ATOM     25  C   UNL     1       0.002  -0.004   0.002  0.00  0.00    +0.225 C 
ATOM     26  C   UNL     1       1.028  -0.476   1.041  0.00  0.00    +0.275 C 
ATOM     27  O   UNL     1       2.308   0.053   0.679  0.00  0.00    -0.485 OA
ATOM     28  C   UNL     1       2.351   1.370   0.338  0.00  0.00    +0.162 A 
ATOM     29  C   UNL     1       3.570   2.031   0.328  0.00  0.00    +0.049 A 
ATOM     30  C   UNL     1       3.630   3.368  -0.019  0.00  0.00    +0.004 A 
ATOM     31  C   UNL     1       2.475   4.049  -0.357  0.00  0.00    +0.004 A 
ATOM     32  C   UNL     1       1.257   3.397  -0.347  0.00  0.00    +0.049 A 
ATOM     33  C   UNL     1       1.190   2.056   0.002  0.00  0.00    +0.163 A 
ATOM     34  O   UNL     1      -0.017   1.427   0.010  0.00  0.00    -0.481 OA
ENDBRANCH  24  25
ENDBRANCH  22  24
ENDBRANCH   1  22
TORSDOF 10
