REMARK  Name = ZINC09040256
REMARK  4 active torsions:
REMARK  status: ('A' for Active; 'I' for Inactive)
REMARK    1  A    between atoms: C_4  and  N_8
REMARK    2  A    between atoms: N_11  and  C_12
REMARK    3  A    between atoms: C_12  and  C_13
REMARK    4  A    between atoms: N_18  and  C_20
REMARK                            x       y       z     vdW  Elec       q    Type
REMARK                         _______ _______ _______ _____ _____    ______ ____
ROOT
ATOM      1  N   UNL     1      -1.190   1.860   0.032  0.00  0.00    -0.265 N 
ATOM      2  C   UNL     1      -0.058   1.343  -0.485  0.00  0.00    +0.304 C 
ATOM      3  O   UNL     1      -0.056   0.214  -0.938  0.00  0.00    -0.253 OA
ATOM      4  N   UNL     1       1.071   2.080  -0.506  0.00  0.00    -0.299 N 
ATOM      5  H   UNL     1      -1.173   2.726   0.468  0.00  0.00    +0.157 HD
ATOM      6  H   UNL     1       1.069   2.980  -0.145  0.00  0.00    +0.150 HD
ENDROOT
BRANCH   1  10
ATOM      7  C   UNL     1      -4.769  -0.267  -0.241  0.00  0.00    +0.006 A 
ATOM      8  C   UNL     1      -3.614  -0.909   0.167  0.00  0.00    +0.040 A 
ATOM      9  C   UNL     1      -2.426  -0.207   0.259  0.00  0.00    +0.147 A 
ATOM     10  C   UNL     1      -2.393   1.145  -0.060  0.00  0.00    +0.106 A 
ATOM     11  C   UNL     1      -3.556   1.788  -0.466  0.00  0.00    +0.147 A 
ATOM     12  C   UNL     1      -4.740   1.078  -0.560  0.00  0.00    +0.040 A 
ATOM     13  F   UNL     1      -3.530   3.103  -0.772  0.00  0.00    -0.203 F 
ATOM     14  F   UNL     1      -1.298  -0.836   0.659  0.00  0.00    -0.203 F 
ENDBRANCH   1  10
BRANCH   4  15
ATOM     15  C   UNL     1       2.300   1.520  -1.074  0.00  0.00    +0.111 C 
BRANCH  15  16
ATOM     16  C   UNL     1       3.424   2.554  -0.975  0.00  0.00    +0.033 C 
ATOM     17  C   UNL     1       3.799   2.823   0.501  0.00  0.00    +0.103 C 
ATOM     18  C   UNL     1       5.301   3.007   0.474  0.00  0.00    +0.220 C 
ATOM     19  O   UNL     1       5.955   3.506   1.365  0.00  0.00    -0.275 OA
ATOM     20  N   UNL     1       5.803   2.536  -0.680  0.00  0.00    -0.271 N 
ATOM     21  C   UNL     1       4.746   1.988  -1.538  0.00  0.00    +0.119 C 
BRANCH  20  22
ATOM     22  C   UNL     1       7.161   2.565  -1.020  0.00  0.00    +0.036 A 
ATOM     23  C   UNL     1       8.101   3.001  -0.095  0.00  0.00    +0.025 A 
ATOM     24  C   UNL     1       9.440   3.024  -0.432  0.00  0.00    +0.022 A 
ATOM     25  C   UNL     1       9.845   2.624  -1.693  0.00  0.00    +0.041 A 
ATOM     26  C   UNL     1       8.910   2.194  -2.619  0.00  0.00    +0.022 A 
ATOM     27  C   UNL     1       7.570   2.164  -2.285  0.00  0.00    +0.025 A 
ATOM     28 CL   UNL     1      11.528   2.660  -2.115  0.00  0.00    -0.084 Cl
ENDBRANCH  20  22
ENDBRANCH  15  16
ENDBRANCH   4  15
TORSDOF 4
