REMARK  Name = ZINC22941984
REMARK  10 active torsions:
REMARK  status: ('A' for Active; 'I' for Inactive)
REMARK    1  A    between atoms: C_1  and  C_2
REMARK    2  A    between atoms: C_2  and  N_3
REMARK    3  A    between atoms: N_6  and  C_9
REMARK    4  A    between atoms: C_9  and  C_11
REMARK    5  A    between atoms: C_9  and  C_16
REMARK    6  A    between atoms: C_16  and  C_18
REMARK    7  A    between atoms: C_16  and  N_19
REMARK    8  A    between atoms: N_21  and  C_22
REMARK    9  A    between atoms: C_26  and  C_29
REMARK   10  A    between atoms: C_27  and  C_28
REMARK                            x       y       z     vdW  Elec       q    Type
REMARK                         _______ _______ _______ _____ _____    ______ ____
ROOT
ATOM      1  C   UNL     1      -1.310  -4.289   2.530  0.00  0.00    +0.100 C 
ATOM      2  C   UNL     1      -0.064  -4.842   1.836  0.00  0.00    +0.032 C 
ENDROOT
BRANCH   1   3
ATOM      3  N   UNL     1      -1.919  -5.340   3.350  0.00  0.00    -0.363 N 
ATOM      4  C   UNL     1      -1.469  -5.562   4.621  0.00  0.00    +0.143 C 
ATOM      5  N   UNL     1      -2.037  -6.543   5.386  0.00  0.00    -0.295 N 
ATOM      6  S   UNL     1      -0.233  -4.641   5.237  0.00  0.00    -0.016 SA
ATOM      7  H   UNL     1      -3.002  -6.596   5.469  0.00  0.00    +0.154 HD
ATOM      8  H   UNL     1      -2.641  -5.878   2.990  0.00  0.00    +0.162 HD
BRANCH   5   9
ATOM      9  C   UNL     1      -1.227  -7.470   6.050  0.00  0.00    +0.036 A 
ATOM     10  C   UNL     1       0.114  -7.594   5.707  0.00  0.00    +0.023 A 
ATOM     11  C   UNL     1       0.911  -8.510   6.364  0.00  0.00    +0.002 A 
ATOM     12  C   UNL     1       0.377  -9.304   7.362  0.00  0.00    +0.004 A 
ATOM     13  C   UNL     1      -0.957  -9.184   7.706  0.00  0.00    -0.046 A 
ATOM     14  C   UNL     1      -1.759  -8.265   7.057  0.00  0.00    -0.026 A 
ATOM     15  C   UNL     1      -3.211  -8.130   7.436  0.00  0.00    +0.046 C 
ATOM     16  C   UNL     1      -1.536 -10.051   8.794  0.00  0.00    +0.044 C 
ENDBRANCH   5   9
ENDBRANCH   1   3
BRANCH   1  17
ATOM     17  C   UNL     1      -2.314  -3.818   1.476  0.00  0.00    +0.115 C 
BRANCH  17  21
ATOM     18  N   UNL     1      -1.509  -0.117  -0.401  0.00  0.00    +0.381 N 
ATOM     19  C   UNL     1      -1.948  -1.238  -1.243  0.00  0.00    -0.063 C 
ATOM     20  C   UNL     1      -2.641  -2.289  -0.373  0.00  0.00    +0.066 C 
ATOM     21  N   UNL     1      -1.704  -2.765   0.655  0.00  0.00    -0.297 NA
ATOM     22  C   UNL     1      -1.236  -1.650   1.490  0.00  0.00    +0.066 C 
ATOM     23  C   UNL     1      -0.555  -0.604   0.605  0.00  0.00    -0.063 C 
ATOM     24  H   UNL     1      -2.308   0.288   0.062  0.00  0.00    -0.082 HD
BRANCH  18  26
ATOM     25  C   UNL     1      -1.887   1.495  -2.204  0.00  0.00    -0.017 C 
ATOM     26  C   UNL     1      -0.860   0.900  -1.239  0.00  0.00    -0.082 C 
ENDBRANCH  18  26
ENDBRANCH  17  21
BRANCH  17  27
ATOM     27  C   UNL     1      -3.542  -3.274   2.160  0.00  0.00    +0.009 A 
ATOM     28  C   UNL     1      -4.847  -3.543   1.913  0.00  0.00    +0.013 A 
ATOM     29  C   UNL     1      -5.816  -2.921   2.676  0.00  0.00    +0.008 A 
ATOM     30  C   UNL     1      -5.433  -2.059   3.650  0.00  0.00    +0.045 A 
ATOM     31  S   UNL     1      -3.654  -2.113   3.512  0.00  0.00    -0.100 S 
ENDBRANCH  17  27
ENDBRANCH   1  17
TORSDOF 6
