REMARK  Name = ZINC09541629
REMARK  9 active torsions:
REMARK  status: ('A' for Active; 'I' for Inactive)
REMARK    1  A    between atoms: C_1  and  C_2
REMARK    2  A    between atoms: C_2  and  C_3
REMARK    3  A    between atoms: C_6  and  C_9
REMARK    4  A    between atoms: C_11  and  C_26
REMARK    5  A    between atoms: C_13  and  C_16
REMARK    6  A    between atoms: C_20  and  O_23
REMARK    7  A    between atoms: C_21  and  O_22
REMARK    8  A    between atoms: O_23  and  C_24
REMARK    9  A    between atoms: C_24  and  C_25
REMARK                            x       y       z     vdW  Elec       q    Type
REMARK                         _______ _______ _______ _____ _____    ______ ____
ROOT
ATOM      1  C   UNL     1      -0.740   1.584  -1.210  0.00  0.00    +0.040 C 
ATOM      2  N   UNL     1      -1.603   2.528  -1.172  0.00  0.00    -0.299 NA
ATOM      3  C   UNL     1      -1.996   3.228   0.045  0.00  0.00    +0.081 C 
ATOM      4  C   UNL     1      -0.730   1.580   1.268  0.00  0.00    -0.028 C 
ATOM      5  C   UNL     1      -0.013   1.086   0.008  0.00  0.00    +0.044 C 
ATOM      6  N   UNL     1      -1.002   3.022   1.110  0.00  0.00    +0.401 N 
ATOM      7  H   UNL     1      -1.367   3.398   1.993  0.00  0.00    -0.081 HD
ATOM      8  H   UNL     1      -0.133   3.508   0.863  0.00  0.00    -0.081 HD
ENDROOT
BRANCH   3   9
ATOM      9  C   UNL     1      -2.107   4.703  -0.245  0.00  0.00    -0.040 A 
ATOM     10  C   UNL     1      -1.857   5.625   0.754  0.00  0.00    +0.005 A 
ATOM     11  C   UNL     1      -1.954   6.977   0.487  0.00  0.00    +0.015 A 
ATOM     12  C   UNL     1      -2.312   7.409  -0.777  0.00  0.00    +0.018 A 
ATOM     13  C   UNL     1      -2.568   6.486  -1.776  0.00  0.00    +0.015 A 
ATOM     14  C   UNL     1      -2.465   5.133  -1.509  0.00  0.00    +0.005 A 
ATOM     15 BR   UNL     1      -2.452   9.259  -1.141  0.00  0.00    -0.050 Br
ENDBRANCH   3   9
BRANCH   1  19
ATOM     16  C   UNL     1       0.109  -0.230  -4.954  0.00  0.00    -0.048 A 
ATOM     17  C   UNL     1      -0.819   0.794  -4.879  0.00  0.00    +0.004 A 
ATOM     18  C   UNL     1      -1.099   1.388  -3.666  0.00  0.00    +0.010 A 
ATOM     19  C   UNL     1      -0.445   0.953  -2.512  0.00  0.00    -0.004 A 
ATOM     20  C   UNL     1       0.494  -0.077  -2.595  0.00  0.00    +0.010 A 
ATOM     21  C   UNL     1       0.761  -0.665  -3.814  0.00  0.00    +0.004 A 
BRANCH  16  23
ATOM     22  C   UNL     1       1.559  -0.125  -6.963  0.00  0.00    +0.009 C 
ATOM     23  C   UNL     1       0.410  -0.873  -6.283  0.00  0.00    +0.032 C 
ENDBRANCH  16  23
ENDBRANCH   1  19
BRANCH   4  24
ATOM     24  C   UNL     1       0.150   1.362   2.472  0.00  0.00    -0.016 A 
ATOM     25  C   UNL     1       0.883   2.414   2.992  0.00  0.00    +0.006 A 
ATOM     26  C   UNL     1       1.688   2.219   4.099  0.00  0.00    +0.004 A 
ATOM     27  C   UNL     1       1.772   0.969   4.685  0.00  0.00    +0.049 A 
ATOM     28  C   UNL     1       1.044  -0.089   4.166  0.00  0.00    +0.162 A 
ATOM     29  C   UNL     1       0.230   0.108   3.055  0.00  0.00    +0.160 A 
BRANCH  29  30
ATOM     30  O   UNL     1      -0.486  -0.928   2.541  0.00  0.00    -0.503 OA
ATOM     31  H   UNL     1      -0.017  -1.432   1.862  0.00  0.00    +0.292 HD
ENDBRANCH  29  30
BRANCH  28  32
ATOM     32  O   UNL     1       1.125  -1.319   4.742  0.00  0.00    -0.489 OA
BRANCH  32  33
ATOM     33  C   UNL     1       1.980  -1.448   5.879  0.00  0.00    +0.226 C 
ATOM     34  C   UNL     1       1.942  -2.891   6.386  0.00  0.00    +0.048 C 
ENDBRANCH  32  33
ENDBRANCH  28  32
ENDBRANCH   4  24
TORSDOF 7
