REMARK  Name = ZINC41394277
REMARK  6 active torsions:
REMARK  status: ('A' for Active; 'I' for Inactive)
REMARK    1  A    between atoms: C_1  and  C_2
REMARK    2  A    between atoms: C_2  and  C_3
REMARK    3  A    between atoms: C_2  and  N_4
REMARK    4  A    between atoms: N_14  and  C_15
REMARK    5  A    between atoms: C_15  and  C_16
REMARK    6  A    between atoms: C_16  and  C_17
REMARK                            x       y       z     vdW  Elec       q    Type
REMARK                         _______ _______ _______ _____ _____    ______ ____
ROOT
ATOM      1  N   UNL     1      -1.373  -0.509   0.011  0.00  0.00    -0.278 N 
ATOM      2  C   UNL     1      -2.155  -0.273   1.081  0.00  0.00    +0.264 A 
ATOM      3  O   UNL     1      -1.728   0.358   2.032  0.00  0.00    -0.267 OA
ATOM      4  C   UNL     1      -3.496  -0.774   1.085  0.00  0.00    +0.076 A 
ATOM      5  C   UNL     1      -4.511  -0.639   2.131  0.00  0.00    -0.023 A 
ATOM      6  C   UNL     1      -5.712  -1.205   1.895  0.00  0.00    -0.004 A 
ATOM      7  S   UNL     1      -5.566  -1.942   0.290  0.00  0.00    -0.073 S 
ATOM      8  C   UNL     1      -3.887  -1.486  -0.060  0.00  0.00    +0.117 A 
ATOM      9  N   UNL     1      -3.064  -1.684  -1.084  0.00  0.00    -0.208 NA
ATOM     10  C   UNL     1      -1.836  -1.208  -1.064  0.00  0.00    +0.200 A 
ATOM     11  N   UNL     1      -1.009  -1.423  -2.139  0.00  0.00    -0.314 N 
ATOM     12  C   UNL     1      -6.908  -1.209   2.799  0.00  0.00    +0.043 C 
ATOM     13  C   UNL     1      -6.454  -0.789   4.204  0.00  0.00    +0.005 C 
ATOM     14  C   UNL     1      -5.581   0.464   4.085  0.00  0.00    +0.005 C 
ATOM     15  C   UNL     1      -4.243   0.105   3.437  0.00  0.00    +0.037 C 
ATOM     16  H   UNL     1      -0.081  -1.144  -2.100  0.00  0.00    +0.149 HD
ENDROOT
BRANCH   1  18
ATOM     17  C   UNL     1      -0.019   1.524   0.138  0.00  0.00    +0.031 C 
ATOM     18  C   UNL     1       0.001   0.000   0.000  0.00  0.00    +0.087 C 
ATOM     19  C   UNL     1       0.780  -0.608   1.168  0.00  0.00    +0.031 C 
ENDBRANCH   1  18
BRANCH  11  20
ATOM     20  C   UNL     1      -1.529  -2.073  -3.344  0.00  0.00    +0.109 C 
BRANCH  20  21
ATOM     21  C   UNL     1      -0.411  -2.191  -4.382  0.00  0.00    +0.054 C 
BRANCH  21  22
ATOM     22  C   UNL     1      -0.945  -2.860  -5.622  0.00  0.00    -0.042 A 
ATOM     23  C   UNL     1      -0.892  -4.236  -5.740  0.00  0.00    +0.007 A 
ATOM     24  C   UNL     1      -1.381  -4.855  -6.876  0.00  0.00    +0.050 A 
ATOM     25  C   UNL     1      -1.926  -4.096  -7.899  0.00  0.00    +0.166 A 
ATOM     26  C   UNL     1      -1.980  -2.709  -7.780  0.00  0.00    +0.166 A 
ATOM     27  C   UNL     1      -1.493  -2.097  -6.637  0.00  0.00    +0.053 A 
ATOM     28  O   UNL     1      -2.554  -2.197  -8.907  0.00  0.00    -0.453 OA
ATOM     29  C   UNL     1      -2.479  -3.247  -9.889  0.00  0.00    +0.466 C 
ATOM     30  O   UNL     1      -2.467  -4.452  -9.100  0.00  0.00    -0.453 OA
ENDBRANCH  21  22
ENDBRANCH  20  21
ENDBRANCH  11  20
TORSDOF 4
