REMARK  Name = ZINC39583659
REMARK  7 active torsions:
REMARK  status: ('A' for Active; 'I' for Inactive)
REMARK    1  A    between atoms: C_1  and  C_2
REMARK    2  A    between atoms: C_2  and  N_3
REMARK    3  A    between atoms: C_4  and  C_20
REMARK    4  A    between atoms: C_8  and  S_9
REMARK    5  A    between atoms: S_9  and  C_10
REMARK    6  A    between atoms: C_10  and  C_11
REMARK    7  A    between atoms: C_24  and  C_26
REMARK                            x       y       z     vdW  Elec       q    Type
REMARK                         _______ _______ _______ _____ _____    ______ ____
ROOT
ATOM      1  N   UNL     1      -1.310  -0.427   0.089  0.00  0.00    -0.285 N 
ATOM      2  C   UNL     1      -2.154  -0.913   1.194  0.00  0.00    +0.208 C 
ATOM      3  N   UNL     1      -3.385  -1.367   0.526  0.00  0.00    -0.242 N 
ATOM      4  N   UNL     1      -3.196  -1.132  -0.841  0.00  0.00    -0.162 NA
ATOM      5  C   UNL     1      -2.043  -0.604  -1.075  0.00  0.00    +0.176 C 
ATOM      6  H   UNL     1      -4.170  -1.751   0.948  0.00  0.00    +0.170 HD
ENDROOT
BRANCH   2   7
ATOM      7  C   UNL     1      -1.482  -2.059   1.907  0.00  0.00    -0.008 A 
ATOM      8  C   UNL     1      -1.179  -1.954   3.252  0.00  0.00    +0.007 A 
ATOM      9  C   UNL     1      -0.564  -3.005   3.905  0.00  0.00    +0.001 A 
ATOM     10  C   UNL     1      -0.252  -4.161   3.215  0.00  0.00    +0.003 A 
ATOM     11  C   UNL     1      -0.555  -4.266   1.870  0.00  0.00    -0.050 A 
ATOM     12  C   UNL     1      -1.175  -3.217   1.218  0.00  0.00    +0.010 A 
ATOM     13  C   UNL     1      -0.214  -5.526   1.117  0.00  0.00    +0.044 C 
ENDBRANCH   2   7
BRANCH   1  15
ATOM     14  C   UNL     1      -0.061   1.647   0.436  0.00  0.00    +0.024 C 
ATOM     15  C   UNL     1       0.037   0.139   0.199  0.00  0.00    +0.106 C 
ENDBRANCH   1  15
BRANCH   5  16
ATOM     16  S   UNL     1      -1.465  -0.164  -2.680  0.00  0.00    -0.081 S 
BRANCH  16  17
ATOM     17  C   UNL     1      -2.834  -0.622  -3.780  0.00  0.00    +0.151 C 
BRANCH  17  18
ATOM     18  C   UNL     1      -2.466  -0.294  -5.204  0.00  0.00    +0.118 A 
ATOM     19  N   UNL     1      -1.865  -1.106  -6.024  0.00  0.00    -0.232 NA
ATOM     20  C   UNL     1      -1.685  -0.494  -7.223  0.00  0.00    +0.089 A 
ATOM     21  C   UNL     1      -1.110  -0.892  -8.432  0.00  0.00    +0.030 A 
ATOM     22  C   UNL     1      -1.079  -0.027  -9.489  0.00  0.00    +0.002 A 
ATOM     23  C   UNL     1      -1.614   1.248  -9.376  0.00  0.00    +0.002 A 
ATOM     24  C   UNL     1      -2.186   1.663  -8.192  0.00  0.00    +0.028 A 
ATOM     25  C   UNL     1      -2.227   0.798  -7.108  0.00  0.00    +0.066 A 
ATOM     26  N   UNL     1      -2.718   0.892  -5.821  0.00  0.00    -0.341 N 
ATOM     27  H   UNL     1      -3.159   1.661  -5.428  0.00  0.00    +0.167 HD
ENDBRANCH  17  18
ENDBRANCH  16  17
ENDBRANCH   5  16
TORSDOF 5
