REMARK  Name = ZINC61591809
REMARK  4 active torsions:
REMARK  status: ('A' for Active; 'I' for Inactive)
REMARK    1  A    between atoms: C_5  and  N_8
REMARK    2  A    between atoms: C_14  and  S_15
REMARK    3  A    between atoms: S_15  and  C_16
REMARK    4  A    between atoms: C_16  and  C_17
REMARK                            x       y       z     vdW  Elec       q    Type
REMARK                         _______ _______ _______ _____ _____    ______ ____
ROOT
ATOM      1  N   UNL     1       1.237  -2.084  -0.022  0.00  0.00    -0.236 N 
ATOM      2  C   UNL     1       1.244  -2.866  -1.120  0.00  0.00    +0.349 A 
ATOM      3  O   UNL     1       1.234  -2.484  -2.276  0.00  0.00    -0.245 OA
ATOM      4  N   UNL     1       1.267  -4.150  -0.705  0.00  0.00    -0.225 N 
ATOM      5  H   UNL     1       1.277  -4.936  -1.272  0.00  0.00    +0.194 HD
ATOM      6  N   UNL     1       1.273  -4.138   0.697  0.00  0.00    -0.144 NA
ATOM      7  C   UNL     1       1.261  -2.897   1.090  0.00  0.00    +0.197 A 
ENDROOT
BRANCH   1  12
ATOM      8  C   UNL     1      -0.017   1.378   0.010  0.00  0.00    +0.042 A 
ATOM      9  C   UNL     1       1.171   2.087   0.002  0.00  0.00    +0.044 A 
ATOM     10  C   UNL     1       2.381   1.416  -0.013  0.00  0.00    +0.042 A 
ATOM     11  C   UNL     1       2.406   0.034  -0.021  0.00  0.00    +0.068 A 
ATOM     12  C   UNL     1       1.215  -0.681  -0.014  0.00  0.00    +0.090 A 
ATOM     13  C   UNL     1       0.002  -0.004   0.002  0.00  0.00    +0.068 A 
ATOM     14 CL   UNL     1      -1.489  -0.893   0.011  0.00  0.00    -0.081 Cl
ATOM     15 CL   UNL     1       3.924  -0.808  -0.041  0.00  0.00    -0.081 Cl
ATOM     16 CL   UNL     1       1.144   3.823   0.011  0.00  0.00    -0.083 Cl
ENDBRANCH   1  12
BRANCH   7  17
ATOM     17  S   UNL     1       1.268  -2.350   2.765  0.00  0.00    -0.074 S 
BRANCH  17  18
ATOM     18  C   UNL     1       1.302  -3.886   3.729  0.00  0.00    +0.202 C 
BRANCH  18  19
ATOM     19  C   UNL     1       1.311  -3.556   5.199  0.00  0.00    +0.366 C 
ATOM     20  O   UNL     1       1.296  -2.392   5.563  0.00  0.00    -0.245 OA
ATOM     21  O   UNL     1       1.333  -4.452   6.025  0.00  0.00    -0.245 OA
ENDBRANCH  18  19
ENDBRANCH  17  18
ENDBRANCH   7  17
TORSDOF 4
