REMARK  Name = ZINC63514817
REMARK  10 active torsions:
REMARK  status: ('A' for Active; 'I' for Inactive)
REMARK    1  A    between atoms: C_1  and  C_2
REMARK    2  A    between atoms: C_5  and  C_8
REMARK    3  A    between atoms: N_10  and  C_11
REMARK    4  A    between atoms: C_11  and  C_22
REMARK    5  A    between atoms: C_12  and  C_13
REMARK    6  A    between atoms: C_17  and  N_19
REMARK    7  A    between atoms: N_24  and  C_25
REMARK    8  A    between atoms: C_25  and  C_26
REMARK    9  A    between atoms: C_26  and  C_27
REMARK   10  A    between atoms: C_35  and  C_37
REMARK                            x       y       z     vdW  Elec       q    Type
REMARK                         _______ _______ _______ _____ _____    ______ ____
ROOT
ATOM      1  C   UNL     1       0.170  -6.331   1.303  0.00  0.00    +0.097 C 
ATOM      2  C   UNL     1       0.009  -7.073   0.183  0.00  0.00    +0.036 C 
ENDROOT
BRANCH   2   3
ATOM      3  C   UNL     1      -0.034  -6.417  -1.134  0.00  0.00    -0.021 A 
ATOM      4  C   UNL     1       0.603  -5.187  -1.327  0.00  0.00    +0.008 A 
ATOM      5  C   UNL     1       0.557  -4.578  -2.564  0.00  0.00    +0.003 A 
ATOM      6  C   UNL     1      -0.117  -5.181  -3.612  0.00  0.00    +0.033 A 
ATOM      7  C   UNL     1      -0.750  -6.398  -3.428  0.00  0.00    +0.127 A 
ATOM      8  C   UNL     1      -0.708  -7.023  -2.199  0.00  0.00    +0.040 A 
BRANCH   7   9
ATOM      9  N   UNL     1      -1.469  -7.034  -4.555  0.00  0.00    +0.056 N 
ATOM     10  O   UNL     1      -1.502  -6.490  -5.634  0.00  0.00    -0.126 OA
ATOM     11  O   UNL     1      -2.022  -8.097  -4.396  0.00  0.00    -0.126 OA
ENDBRANCH   7   9
ENDBRANCH   2   3
BRANCH   1  14
ATOM     12  C   UNL     1       1.410  -4.354   1.756  0.00  0.00    +0.248 C 
ATOM     13  O   UNL     1       2.284  -5.031   2.262  0.00  0.00    -0.270 OA
ATOM     14  N   UNL     1       0.331  -4.946   1.207  0.00  0.00    -0.277 N 
ATOM     15  H   UNL     1      -0.334  -4.411   0.746  0.00  0.00    +0.155 HD
BRANCH  12  20
ATOM     16  C   UNL     1       1.884   1.381   1.700  0.00  0.00    +0.044 C 
ATOM     17  C   UNL     1       1.760  -0.121   1.715  0.00  0.00    -0.050 A 
ATOM     18  C   UNL     1       2.699  -0.883   2.388  0.00  0.00    +0.004 A 
ATOM     19  C   UNL     1       2.591  -2.259   2.405  0.00  0.00    +0.013 A 
ATOM     20  C   UNL     1       1.532  -2.881   1.742  0.00  0.00    +0.037 A 
ATOM     21  C   UNL     1       0.588  -2.106   1.065  0.00  0.00    +0.013 A 
ATOM     22  C   UNL     1       0.705  -0.731   1.061  0.00  0.00    +0.004 A 
ENDBRANCH  12  20
ENDBRANCH   1  14
BRANCH   1  23
ATOM     23  C   UNL     1       0.175  -6.983   2.621  0.00  0.00    +0.258 C 
ATOM     24  O   UNL     1       0.319  -6.316   3.628  0.00  0.00    -0.269 OA
ATOM     25  N   UNL     1       0.019  -8.318   2.713  0.00  0.00    -0.310 N 
ATOM     26  H   UNL     1      -0.096  -8.850   1.910  0.00  0.00    +0.149 HD
BRANCH  25  27
ATOM     27  C   UNL     1       0.024  -8.967   4.027  0.00  0.00    +0.109 C 
BRANCH  27  28
ATOM     28  C   UNL     1      -0.169 -10.475   3.851  0.00  0.00    +0.052 C 
BRANCH  28  29
ATOM     29  C   UNL     1      -0.164 -11.143   5.202  0.00  0.00    -0.037 C 
ATOM     30  C   UNL     1      -0.021 -10.542   6.406  0.00  0.00    -0.001 A 
ATOM     31  C   UNL     1       0.167  -9.141   6.802  0.00  0.00    +0.010 A 
ATOM     32  C   UNL     1       0.282  -8.840   8.115  0.00  0.00    +0.001 A 
ATOM     33  C   UNL     1       0.228  -9.831   9.106  0.00  0.00    +0.002 A 
ATOM     34  C   UNL     1       0.058 -11.139   8.820  0.00  0.00    +0.026 A 
ATOM     35  C   UNL     1      -0.075 -11.569   7.471  0.00  0.00    +0.043 A 
ATOM     36  N   UNL     1      -0.245 -12.758   6.946  0.00  0.00    -0.378 N 
ATOM     37  C   UNL     1      -0.324 -12.619   5.488  0.00  0.00    +0.103 C 
ATOM     38  C   UNL     1      -1.681 -13.110   4.981  0.00  0.00    +0.035 C 
ATOM     39  H   UNL     1      -0.312 -13.590   7.440  0.00  0.00    +0.160 HD
ENDBRANCH  28  29
ENDBRANCH  27  28
ENDBRANCH  25  27
ENDBRANCH   1  23
TORSDOF 8
