REMARK  Name = ZINC12640224
REMARK  12 active torsions:
REMARK  status: ('A' for Active; 'I' for Inactive)
REMARK    1  A    between atoms: C_1  and  C_2
REMARK    2  A    between atoms: C_7  and  C_39
REMARK    3  A    between atoms: C_10  and  C_12
REMARK    4  A    between atoms: C_12  and  O_13
REMARK    5  A    between atoms: O_13  and  C_14
REMARK    6  A    between atoms: C_17  and  C_20
REMARK    7  A    between atoms: N_22  and  N_23
REMARK    8  A    between atoms: C_24  and  C_25
REMARK    9  A    between atoms: C_28  and  O_35
REMARK   10  A    between atoms: C_30  and  O_31
REMARK   11  A    between atoms: O_31  and  C_32
REMARK   12  A    between atoms: O_35  and  C_36
REMARK                            x       y       z     vdW  Elec       q    Type
REMARK                         _______ _______ _______ _____ _____    ______ ____
ROOT
ATOM      1  C   UNL     1       6.156  -0.235   8.238  0.00  0.00    +0.263 C 
ATOM      2  O   UNL     1       6.536  -1.381   8.383  0.00  0.00    -0.268 OA
ATOM      3  N   UNL     1       6.633   0.739   9.037  0.00  0.00    -0.203 N 
ATOM      4  H   UNL     1       6.330   1.654   8.922  0.00  0.00    +0.178 HD
ENDROOT
BRANCH   1   8
ATOM      5  C   UNL     1       3.325   0.697   5.213  0.00  0.00    +0.121 A 
ATOM      6  C   UNL     1       3.758  -0.614   5.377  0.00  0.00    +0.046 A 
ATOM      7  C   UNL     1       4.676  -0.920   6.357  0.00  0.00    +0.016 A 
ATOM      8  C   UNL     1       5.172   0.089   7.187  0.00  0.00    +0.039 A 
ATOM      9  C   UNL     1       4.734   1.405   7.019  0.00  0.00    +0.016 A 
ATOM     10  C   UNL     1       3.820   1.704   6.033  0.00  0.00    +0.046 A 
BRANCH   5  11
ATOM     11  O   UNL     1       2.420   0.995   4.247  0.00  0.00    -0.483 OA
BRANCH  11  12
ATOM     12  C   UNL     1       1.952  -0.088   3.440  0.00  0.00    +0.324 C 
BRANCH  12  20
ATOM     13  C   UNL     1      -0.299   1.737   0.448  0.00  0.00    +0.028 C 
ATOM     14  C   UNL     1      -0.024   0.254   0.195  0.00  0.00    +0.073 C 
ATOM     15  C   UNL     1      -1.342  -0.472  -0.092  0.00  0.00    +0.022 C 
ATOM     16  C   UNL     1      -1.078  -1.975  -0.206  0.00  0.00    +0.004 C 
ATOM     17  C   UNL     1      -0.518  -2.498   1.118  0.00  0.00    +0.022 C 
ATOM     18  C   UNL     1       0.810  -1.796   1.420  0.00  0.00    +0.073 C 
ATOM     19  N   UNL     1       0.597  -0.342   1.386  0.00  0.00    -0.293 N 
ATOM     20  C   UNL     1       0.961   0.429   2.430  0.00  0.00    +0.254 C 
ATOM     21  O   UNL     1       0.492   1.541   2.555  0.00  0.00    -0.272 OA
ATOM     22  C   UNL     1       1.308  -2.213   2.805  0.00  0.00    +0.028 C 
ENDBRANCH  12  20
ENDBRANCH  11  12
ENDBRANCH   5  11
ENDBRANCH   1   8
BRANCH   3  23
ATOM     23  N   UNL     1       7.567   0.432  10.036  0.00  0.00    -0.187 NA
ATOM     24  C   UNL     1       8.027   1.371  10.806  0.00  0.00    +0.142 C 
BRANCH  24  25
ATOM     25  C   UNL     1       9.009   1.047  11.855  0.00  0.00    +0.037 A 
ATOM     26  C   UNL     1       9.501   2.055  12.689  0.00  0.00    +0.016 A 
ATOM     27  C   UNL     1      10.419   1.748  13.670  0.00  0.00    +0.047 A 
ATOM     28  C   UNL     1      10.858   0.439  13.833  0.00  0.00    +0.130 A 
ATOM     29  C   UNL     1      10.375  -0.568  13.010  0.00  0.00    +0.092 A 
ATOM     30  C   UNL     1       9.449  -0.273  12.025  0.00  0.00    +0.139 A 
BRANCH  30  31
ATOM     31  O   UNL     1       8.971  -1.259  11.222  0.00  0.00    -0.433 OA
BRANCH  31  32
ATOM     32  C   UNL     1       9.465  -2.580  11.453  0.00  0.00    +0.541 C 
ATOM     33  F   UNL     1      10.853  -2.596  11.283  0.00  0.00    -0.166 F 
ATOM     34  F   UNL     1       9.150  -2.973  12.758  0.00  0.00    -0.166 F 
ENDBRANCH  31  32
ENDBRANCH  30  31
BRANCH  28  35
ATOM     35  O   UNL     1      11.764   0.145  14.801  0.00  0.00    -0.434 OA
BRANCH  35  36
ATOM     36  C   UNL     1      12.220   1.229  15.613  0.00  0.00    +0.541 C 
ATOM     37  F   UNL     1      12.834   2.191  14.805  0.00  0.00    -0.166 F 
ATOM     38  F   UNL     1      11.132   1.804  16.278  0.00  0.00    -0.166 F 
ENDBRANCH  35  36
ENDBRANCH  28  35
ENDBRANCH  24  25
ENDBRANCH   3  23
TORSDOF 10
