REMARK  Name = ZINC63375790
REMARK  7 active torsions:
REMARK  status: ('A' for Active; 'I' for Inactive)
REMARK    1  A    between atoms: C_1  and  C_2
REMARK    2  A    between atoms: C_2  and  C_3
REMARK    3  A    between atoms: C_3  and  C_5
REMARK    4  A    between atoms: C_3  and  N_6
REMARK    5  A    between atoms: C_7  and  C_9
REMARK    6  A    between atoms: C_14  and  N_15
REMARK    7  A    between atoms: C_31  and  C_36
REMARK                            x       y       z     vdW  Elec       q    Type
REMARK                         _______ _______ _______ _____ _____    ______ ____
ROOT
ATOM      1  N   UNL     1      -6.252   0.194   1.538  0.00  0.00    -0.192 N 
ATOM      2  C   UNL     1      -6.754  -1.014   1.207  0.00  0.00    +0.248 C 
ATOM      3  O   UNL     1      -6.591  -2.061   1.795  0.00  0.00    -0.273 OA
ATOM      4  C   UNL     1      -7.562  -0.788  -0.052  0.00  0.00    +0.169 C 
ATOM      5  C   UNL     1      -7.016  -1.667  -1.192  0.00  0.00    +0.065 C 
ATOM      6  C   UNL     1      -7.425  -0.995  -2.481  0.00  0.00    -0.035 C 
ATOM      7  C   UNL     1      -8.091  -1.468  -3.530  0.00  0.00    -0.001 A 
ATOM      8  C   UNL     1      -8.575  -2.819  -3.853  0.00  0.00    +0.010 A 
ATOM      9  C   UNL     1      -9.250  -2.949  -5.027  0.00  0.00    +0.001 A 
ATOM     10  C   UNL     1      -9.487  -1.883  -5.900  0.00  0.00    +0.002 A 
ATOM     11  C   UNL     1      -9.071  -0.609  -5.686  0.00  0.00    +0.026 A 
ATOM     12  C   UNL     1      -8.344  -0.349  -4.488  0.00  0.00    +0.043 A 
ATOM     13  N   UNL     1      -7.819   0.755  -4.046  0.00  0.00    -0.376 N 
ATOM     14  C   UNL     1      -7.124   0.466  -2.790  0.00  0.00    +0.126 C 
ATOM     15  C   UNL     1      -7.691   1.294  -1.628  0.00  0.00    +0.102 C 
ATOM     16  N   UNL     1      -7.300   0.629  -0.374  0.00  0.00    -0.268 N 
ATOM     17  C   UNL     1      -6.599   1.135   0.649  0.00  0.00    +0.317 C 
ATOM     18  O   UNL     1      -6.308   2.310   0.757  0.00  0.00    -0.252 OA
ATOM     19  C   UNL     1      -7.120   2.713  -1.670  0.00  0.00    +0.030 C 
ATOM     20  H   UNL     1      -7.877   1.623  -4.475  0.00  0.00    +0.160 HD
ENDROOT
BRANCH   1  26
ATOM     21  C   UNL     1      -4.076   0.321   2.603  0.00  0.00    +0.059 A 
ATOM     22  C   UNL     1      -3.307   0.570   3.742  0.00  0.00    +0.015 A 
ATOM     23  C   UNL     1      -3.923   0.920   4.925  0.00  0.00    +0.001 A 
ATOM     24  C   UNL     1      -5.303   1.026   4.990  0.00  0.00    +0.002 A 
ATOM     25  C   UNL     1      -6.075   0.783   3.872  0.00  0.00    +0.025 A 
ATOM     26  C   UNL     1      -5.472   0.435   2.672  0.00  0.00    +0.058 A 
BRANCH  21  28
ATOM     27  N   UNL     1      -2.082  -0.162   1.273  0.00  0.00    -0.309 N 
ATOM     28  C   UNL     1      -3.424  -0.053   1.334  0.00  0.00    +0.246 C 
ATOM     29  O   UNL     1      -4.096  -0.264   0.344  0.00  0.00    -0.270 OA
ATOM     30  H   UNL     1      -1.545   0.006   2.063  0.00  0.00    +0.149 HD
BRANCH  27  31
ATOM     31  C   UNL     1      -1.433  -0.534   0.013  0.00  0.00    +0.070 C 
ATOM     32  C   UNL     1      -1.416  -2.058  -0.121  0.00  0.00    +0.028 C 
BRANCH  31  34
ATOM     33  C   UNL     1      -0.019   1.526   0.010  0.00  0.00    +0.005 C 
ATOM     34  C   UNL     1       0.002  -0.004   0.002  0.00  0.00    +0.018 C 
ENDBRANCH  31  34
ENDBRANCH  27  31
ENDBRANCH  21  28
ENDBRANCH   1  26
TORSDOF 4
