REMARK  Name = ZINC01243475
REMARK  8 active torsions:
REMARK  status: ('A' for Active; 'I' for Inactive)
REMARK    1  A    between atoms: C_1  and  O_2
REMARK    2  A    between atoms: O_2  and  C_3
REMARK    3  A    between atoms: C_5  and  C_11
REMARK    4  A    between atoms: C_8  and  O_9
REMARK    5  A    between atoms: N_12  and  N_13
REMARK    6  A    between atoms: C_14  and  C_19
REMARK    7  A    between atoms: C_19  and  O_20
REMARK    8  A    between atoms: O_20  and  C_21
REMARK                            x       y       z     vdW  Elec       q    Type
REMARK                         _______ _______ _______ _____ _____    ______ ____
ROOT
ATOM      1  N   UNL     1       3.105  -1.626  -5.248  0.00  0.00    -0.187 N 
ATOM      2  C   UNL     1       3.973  -2.458  -4.592  0.00  0.00    +0.193 A 
ATOM      3  N   UNL     1       3.677  -3.679  -4.940  0.00  0.00    -0.128 NA
ATOM      4  N   UNL     1       2.691  -3.678  -5.764  0.00  0.00    -0.120 NA
ATOM      5  C   UNL     1       2.294  -2.446  -5.985  0.00  0.00    +0.223 A 
ATOM      6  S   UNL     1       0.971  -1.942  -7.035  0.00  0.00    -0.007 SA
ENDROOT
BRANCH   1   8
ATOM      7  C   UNL     1       2.740   0.352  -4.057  0.00  0.00    +0.141 C 
ATOM      8  N   UNL     1       3.055  -0.228  -5.174  0.00  0.00    -0.171 NA
BRANCH   7  11
ATOM      9  C   UNL     1       1.711  -0.643  -0.586  0.00  0.00    +0.163 A 
ATOM     10  C   UNL     1       2.173   0.113  -1.646  0.00  0.00    +0.059 A 
ATOM     11  C   UNL     1       2.249  -0.450  -2.922  0.00  0.00    -0.001 A 
ATOM     12  C   UNL     1       1.857  -1.777  -3.121  0.00  0.00    +0.028 A 
ATOM     13  C   UNL     1       1.396  -2.526  -2.058  0.00  0.00    +0.063 A 
ATOM     14  C   UNL     1       1.327  -1.967  -0.789  0.00  0.00    +0.173 A 
ATOM     15 BR   UNL     1       0.866  -4.321  -2.328  0.00  0.00    -0.046 Br
BRANCH   9  17
ATOM     16  C   UNL     1       2.047   1.264   0.794  0.00  0.00    +0.277 C 
ATOM     17  O   UNL     1       1.637  -0.098   0.658  0.00  0.00    -0.491 OA
ENDBRANCH   9  17
BRANCH  14  18
ATOM     18  O   UNL     1       0.878  -2.711   0.256  0.00  0.00    -0.503 OA
ATOM     19  H   UNL     1      -0.078  -2.661   0.393  0.00  0.00    +0.292 HD
ENDBRANCH  14  18
ENDBRANCH   7  11
ENDBRANCH   1   8
BRANCH   2  20
ATOM     20  C   UNL     1       5.067  -2.041  -3.644  0.00  0.00    +0.307 C 
BRANCH  20  21
ATOM     21  O   UNL     1       4.552  -1.993  -2.312  0.00  0.00    -0.484 OA
BRANCH  21  22
ATOM     22  C   UNL     1       5.416  -1.631  -1.328  0.00  0.00    +0.121 A 
ATOM     23  C   UNL     1       6.732  -1.321  -1.639  0.00  0.00    +0.045 A 
ATOM     24  C   UNL     1       7.609  -0.953  -0.637  0.00  0.00    +0.004 A 
ATOM     25  C   UNL     1       7.176  -0.893   0.675  0.00  0.00    +0.000 A 
ATOM     26  C   UNL     1       5.865  -1.201   0.987  0.00  0.00    +0.004 A 
ATOM     27  C   UNL     1       4.982  -1.564  -0.012  0.00  0.00    +0.045 A 
ENDBRANCH  21  22
ENDBRANCH  20  21
ENDBRANCH   2  20
TORSDOF 7
