REMARK  Name = ZINC20604087
REMARK  3 active torsions:
REMARK  status: ('A' for Active; 'I' for Inactive)
REMARK    1  A    between atoms: C_3  and  C_6
REMARK    2  A    between atoms: C_8  and  C_23
REMARK    3  A    between atoms: N_12  and  C_18
REMARK                            x       y       z     vdW  Elec       q    Type
REMARK                         _______ _______ _______ _____ _____    ______ ____
ROOT
ATOM      1  C   UNL     1      -1.840  -1.468   2.531  0.00  0.00    +0.081 A 
ATOM      2  C   UNL     1      -2.396  -1.160   3.780  0.00  0.00    +0.045 A 
ATOM      3  C   UNL     1      -2.493   0.172   4.169  0.00  0.00    +0.081 A 
ATOM      4  C   UNL     1      -2.021   1.153   3.276  0.00  0.00    +0.096 A 
ATOM      5  C   UNL     1      -1.476   0.764   2.040  0.00  0.00    +0.149 A 
ATOM      6  N   UNL     1      -1.405  -0.515   1.714  0.00  0.00    -0.228 NA
ATOM      7  N   UNL     1      -1.022   1.751   1.187  0.00  0.00    -0.302 N 
ATOM      8  C   UNL     1      -1.100   3.061   1.546  0.00  0.00    +0.162 A 
ATOM      9  N   UNL     1      -1.608   3.462   2.693  0.00  0.00    -0.302 N 
ATOM     10  C   UNL     1      -2.078   2.588   3.596  0.00  0.00    +0.262 A 
ATOM     11  O   UNL     1      -2.542   2.974   4.656  0.00  0.00    -0.267 OA
ATOM     12  S   UNL     1      -0.499   4.277   0.422  0.00  0.00    -0.013 S 
ATOM     13  H   UNL     1      -1.655   4.535   2.929  0.00  0.00    +0.171 HD
ENDROOT
BRANCH   1  16
ATOM     14  C   UNL     1      -1.071  -4.784   0.885  0.00  0.00    +0.008 A 
ATOM     15  C   UNL     1      -1.013  -3.425   1.085  0.00  0.00    +0.017 A 
ATOM     16  C   UNL     1      -1.736  -2.878   2.115  0.00  0.00    +0.038 A 
ATOM     17  S   UNL     1      -2.513  -4.321   2.825  0.00  0.00    -0.095 S 
ATOM     18  C   UNL     1      -1.841  -5.543   1.711  0.00  0.00    +0.046 A 
ENDBRANCH   1  16
BRANCH   7  19
ATOM     19  C   UNL     1      -0.447   1.385  -0.110  0.00  0.00    +0.091 C 
ATOM     20  C   UNL     1       0.911   0.682   0.092  0.00  0.00    +0.025 C 
ATOM     21  C   UNL     1       0.565  -0.828   0.060  0.00  0.00    +0.002 C 
ATOM     22  C   UNL     1      -0.529  -0.905  -1.034  0.00  0.00    +0.002 C 
ATOM     23  C   UNL     1      -1.363   0.376  -0.826  0.00  0.00    +0.025 C 
ENDBRANCH   7  19
BRANCH   3  24
ATOM     24  C   UNL     1      -3.073   0.546   5.479  0.00  0.00    +0.387 C 
ATOM     25  O   UNL     1      -2.455   1.271   6.232  0.00  0.00    -0.241 OA
ATOM     26  O   UNL     1      -4.287   0.082   5.835  0.00  0.00    -0.241 OA
ENDBRANCH   3  24
TORSDOF 3
