REMARK  Name = ZINC48533030
REMARK  11 active torsions:
REMARK  status: ('A' for Active; 'I' for Inactive)
REMARK    1  A    between atoms: C_1  and  C_2
REMARK    2  A    between atoms: C_2  and  O_4
REMARK    3  A    between atoms: O_4  and  C_5
REMARK    4  A    between atoms: C_9  and  C_33
REMARK    5  A    between atoms: C_14  and  C_32
REMARK    6  A    between atoms: C_25  and  C_26
REMARK    7  A    between atoms: C_25  and  O_31
REMARK    8  A    between atoms: C_26  and  C_27
REMARK    9  A    between atoms: C_27  and  C_28
REMARK   10  A    between atoms: C_27  and  C_29
REMARK   11  A    between atoms: C_27  and  O_30
REMARK                            x       y       z     vdW  Elec       q    Type
REMARK                         _______ _______ _______ _____ _____    ______ ____
ROOT
ATOM      1  C   UNL     1      -2.531  -6.622  -3.206  0.00  0.00    +0.180 C 
ATOM      2  C   UNL     1      -4.054  -6.538  -3.155  0.00  0.00    +0.046 C 
ATOM      3  C   UNL     1      -4.539  -5.436  -2.219  0.00  0.00    +0.015 C 
ATOM      4  C   UNL     1      -3.907  -5.599  -0.829  0.00  0.00    -0.008 C 
ATOM      5  C   UNL     1      -4.960  -5.536   0.251  0.00  0.00    +0.003 C 
ATOM      6  C   UNL     1      -4.478  -5.084   1.617  0.00  0.00    +0.005 C 
ATOM      7  C   UNL     1      -5.686  -4.860   2.557  0.00  0.00    +0.010 C 
ATOM      8  C   UNL     1      -6.445  -6.149   2.705  0.00  0.00    -0.000 C 
ATOM      9  C   UNL     1      -6.809  -6.731   1.328  0.00  0.00    +0.001 C 
ATOM     10  C   UNL     1      -5.653  -6.915   0.393  0.00  0.00    +0.000 C 
ATOM     11  C   UNL     1      -4.619  -7.940   0.837  0.00  0.00    +0.031 C 
ATOM     12  C   UNL     1      -3.461  -7.932  -0.127  0.00  0.00    -0.027 C 
ATOM     13  C   UNL     1      -3.154  -6.906  -0.851  0.00  0.00    -0.064 C 
ATOM     14  C   UNL     1      -1.990  -7.006  -1.822  0.00  0.00    +0.075 C 
ATOM     15  C   UNL     1      -7.654  -7.949   1.718  0.00  0.00    +0.007 C 
ATOM     16  C   UNL     1      -8.526  -7.388   2.879  0.00  0.00    +0.036 C 
ATOM     17  C   UNL     1      -7.838  -6.083   3.361  0.00  0.00    +0.074 C 
ATOM     18  C   UNL     1      -5.646  -7.120   3.585  0.00  0.00    +0.014 C 
ATOM     19  C   UNL     1      -2.906  -4.459  -0.650  0.00  0.00    +0.016 C 
ENDROOT
BRANCH  17  20
ATOM     20  O   UNL     1      -7.693  -6.103   4.782  0.00  0.00    -0.388 OA
ATOM     21  H   UNL     1      -8.531  -6.141   5.262  0.00  0.00    +0.210 HD
ENDBRANCH  17  20
BRANCH   1  22
ATOM     22  O   UNL     1      -1.986  -5.365  -3.610  0.00  0.00    -0.461 OA
BRANCH  22  24
ATOM     23  C   UNL     1      -0.194  -4.106  -4.749  0.00  0.00    +0.136 C 
ATOM     24  C   UNL     1      -0.829  -5.393  -4.289  0.00  0.00    +0.304 C 
ATOM     25  O   UNL     1      -0.296  -6.450  -4.532  0.00  0.00    -0.251 OA
ENDBRANCH  22  24
ENDBRANCH   1  22
BRANCH  17  26
ATOM     26  C   UNL     1      -8.623  -4.859   2.916  0.00  0.00    +0.069 C 
BRANCH  26  27
ATOM     27  C   UNL     1      -8.602  -4.767   1.389  0.00  0.00    +0.063 C 
ATOM     28  C   UNL     1      -9.220  -6.033   0.792  0.00  0.00    +0.041 C 
ATOM     29  C   UNL     1      -9.407  -3.546   0.940  0.00  0.00    +0.041 C 
BRANCH  27  30
ATOM     30  O   UNL     1      -7.252  -4.639   0.938  0.00  0.00    -0.389 OA
ATOM     31  H   UNL     1      -6.936  -3.725   0.896  0.00  0.00    +0.210 HD
ENDBRANCH  27  30
ENDBRANCH  26  27
ENDBRANCH  17  26
TORSDOF 6
