REMARK  Name = ZINC05740219
REMARK  5 active torsions:
REMARK  status: ('A' for Active; 'I' for Inactive)
REMARK    1  A    between atoms: C_1  and  C_2
REMARK    2  A    between atoms: C_5  and  C_24
REMARK    3  A    between atoms: N_6  and  C_7
REMARK    4  A    between atoms: C_11  and  C_12
REMARK    5  A    between atoms: C_16  and  C_23
REMARK                            x       y       z     vdW  Elec       q    Type
REMARK                         _______ _______ _______ _____ _____    ______ ____
ROOT
ATOM      1  C   UNL     1       1.359  -0.270  -0.012  0.00  0.00    +0.063 A 
ATOM      2  C   UNL     1       2.236   0.799  -0.015  0.00  0.00    +0.034 A 
ATOM      3  C   UNL     1       1.740   2.062  -0.004  0.00  0.00    +0.048 A 
ATOM      4  S   UNL     1      -0.022   1.781   0.012  0.00  0.00    -0.093 S 
ATOM      5  C   UNL     1       0.002  -0.004   0.002  0.00  0.00    +0.063 A 
ENDROOT
BRANCH   5   6
ATOM      6  C   UNL     1      -1.132  -0.951   0.008  0.00  0.00    +0.104 A 
ATOM      7  C   UNL     1      -2.488  -0.602   0.023  0.00  0.00    +0.079 A 
ATOM      8  C   UNL     1      -3.223  -1.777   0.024  0.00  0.00    +0.160 A 
ATOM      9  N   UNL     1      -4.543  -2.016   0.036  0.00  0.00    -0.231 NA
ATOM     10  C   UNL     1      -5.008  -3.246   0.034  0.00  0.00    +0.064 A 
ATOM     11  C   UNL     1      -4.129  -4.332   0.021  0.00  0.00    +0.128 A 
ATOM     12  C   UNL     1      -2.782  -4.104   0.009  0.00  0.00    +0.293 A 
ATOM     13  N   UNL     1      -2.326  -2.815   0.010  0.00  0.00    -0.177 N 
ATOM     14  N   UNL     1      -1.037  -2.271  -0.005  0.00  0.00    -0.161 NA
ATOM     15  O   UNL     1      -1.911  -5.140  -0.005  0.00  0.00    -0.264 OA
ATOM     16 CL   UNL     1      -4.743  -5.956   0.018  0.00  0.00    -0.076 Cl
ATOM     17  C   UNL     1      -6.495  -3.485   0.047  0.00  0.00    +0.067 C 
ENDBRANCH   5   6
BRANCH   1  23
ATOM     18  C   UNL     1       1.906  -1.882  -2.565  0.00  0.00    +0.064 C 
ATOM     19  C   UNL     1       2.088  -2.336  -1.140  0.00  0.00    +0.021 A 
ATOM     20  C   UNL     1       2.533  -3.548  -0.747  0.00  0.00    +0.023 A 
ATOM     21  C   UNL     1       2.547  -3.556   0.662  0.00  0.00    +0.023 A 
ATOM     22  C   UNL     1       2.115  -2.347   1.078  0.00  0.00    +0.021 A 
ATOM     23  N   UNL     1       1.835  -1.592  -0.025  0.00  0.00    -0.317 N 
ATOM     24  C   UNL     1       1.967  -1.907   2.511  0.00  0.00    +0.064 C 
ENDBRANCH   1  23
TORSDOF 2
