REMARK  Name = ZINC66436655
REMARK  5 active torsions:
REMARK  status: ('A' for Active; 'I' for Inactive)
REMARK    1  A    between atoms: C_1  and  O_2
REMARK    2  A    between atoms: O_2  and  C_3
REMARK    3  A    between atoms: C_9  and  C_13
REMARK    4  A    between atoms: N_16  and  C_19
REMARK    5  A    between atoms: C_19  and  C_20
REMARK                            x       y       z     vdW  Elec       q    Type
REMARK                         _______ _______ _______ _____ _____    ______ ____
ROOT
ATOM      1  C   UNL     1       1.077  -5.218  -1.836  0.00  0.00    +0.018 C 
ATOM      2  C   UNL     1       2.309  -6.053  -1.476  0.00  0.00    -0.011 C 
ATOM      3  C   UNL     1       1.861  -7.334  -0.768  0.00  0.00    -0.078 C 
ATOM      4  N   UNL     1       0.986  -8.108  -1.655  0.00  0.00    +0.382 N 
ATOM      5  C   UNL     1      -0.231  -7.341  -1.947  0.00  0.00    -0.078 C 
ATOM      6  C   UNL     1       0.136  -6.061  -2.701  0.00  0.00    -0.011 C 
ATOM      7  H   UNL     1       1.472  -8.306  -2.517  0.00  0.00    -0.081 HD
ENDROOT
BRANCH   1  14
ATOM      8  C   UNL     1       0.606  -0.608  -1.056  0.00  0.00    +0.121 A 
ATOM      9  C   UNL     1       1.174   0.167  -2.065  0.00  0.00    +0.047 A 
ATOM     10  C   UNL     1       1.790  -0.428  -3.143  0.00  0.00    +0.030 A 
ATOM     11  C   UNL     1       1.849  -1.814  -3.232  0.00  0.00    +0.047 A 
ATOM     12  C   UNL     1       1.276  -2.599  -2.216  0.00  0.00    +0.007 A 
ATOM     13  C   UNL     1       0.659  -1.985  -1.124  0.00  0.00    +0.056 A 
ATOM     14  C   UNL     1       1.504  -3.994  -2.603  0.00  0.00    -0.019 A 
ATOM     15  C   UNL     1       2.167  -3.974  -3.770  0.00  0.00    +0.087 A 
ATOM     16  N   UNL     1       2.383  -2.681  -4.163  0.00  0.00    -0.360 N 
ATOM     17  H   UNL     1       2.841  -2.414  -4.975  0.00  0.00    +0.165 HD
BRANCH   8  19
ATOM     18  C   UNL     1      -0.017   1.425   0.010  0.00  0.00    +0.277 C 
ATOM     19  O   UNL     1       0.002  -0.004   0.002  0.00  0.00    -0.495 OA
ENDBRANCH   8  19
ENDBRANCH   1  14
BRANCH   4  20
ATOM     20  C   UNL     1       0.622  -9.372  -1.001  0.00  0.00    -0.039 C 
BRANCH  20  21
ATOM     21  C   UNL     1      -0.175 -10.221  -1.957  0.00  0.00    -0.019 A 
ATOM     22  C   UNL     1      -1.552 -10.263  -1.860  0.00  0.00    +0.043 A 
ATOM     23  C   UNL     1      -2.285 -11.044  -2.738  0.00  0.00    +0.124 A 
ATOM     24  C   UNL     1      -1.637 -11.784  -3.713  0.00  0.00    +0.047 A 
ATOM     25  C   UNL     1      -0.259 -11.744  -3.812  0.00  0.00    +0.023 A 
ATOM     26  C   UNL     1       0.475 -10.957  -2.939  0.00  0.00    +0.130 A 
ATOM     27  O   UNL     1       1.830 -10.897  -3.035  0.00  0.00    -0.466 OA
ATOM     28  C   UNL     1       2.470 -11.923  -3.800  0.00  0.00    +0.394 C 
ATOM     29  O   UNL     1       1.773 -12.068  -5.043  0.00  0.00    -0.339 OA
ATOM     30  C   UNL     1       0.435 -12.557  -4.875  0.00  0.00    +0.202 C 
ATOM     31  F   UNL     1      -3.632 -11.085  -2.643  0.00  0.00    -0.205 F 
ENDBRANCH  20  21
ENDBRANCH   4  20
TORSDOF 4
