REMARK  Name = ZINC09610541
REMARK  6 active torsions:
REMARK  status: ('A' for Active; 'I' for Inactive)
REMARK    1  A    between atoms: C_4  and  C_7
REMARK    2  A    between atoms: C_7  and  C_9
REMARK    3  A    between atoms: C_7  and  N_19
REMARK    4  A    between atoms: N_11  and  C_12
REMARK    5  A    between atoms: N_19  and  S_20
REMARK    6  A    between atoms: S_20  and  C_23
REMARK                            x       y       z     vdW  Elec       q    Type
REMARK                         _______ _______ _______ _____ _____    ______ ____
ROOT
ATOM      1  C   UNL     1      -1.122  -0.227   2.452  0.00  0.00    +0.192 C 
ENDROOT
BRANCH   1   5
ATOM      2  C   UNL     1      -0.413   3.371   4.643  0.00  0.00    +0.000 A 
ATOM      3  C   UNL     1      -1.672   3.107   4.137  0.00  0.00    +0.000 A 
ATOM      4  C   UNL     1      -1.901   1.942   3.428  0.00  0.00    +0.006 A 
ATOM      5  C   UNL     1      -0.872   1.043   3.225  0.00  0.00    -0.020 A 
ATOM      6  C   UNL     1       0.386   1.305   3.735  0.00  0.00    +0.006 A 
ATOM      7  C   UNL     1       0.617   2.471   4.440  0.00  0.00    +0.000 A 
ENDBRANCH   1   5
BRANCH   1   8
ATOM      8  C   UNL     1      -1.308  -1.372   3.414  0.00  0.00    +0.236 C 
ATOM      9  O   UNL     1      -0.558  -2.324   3.376  0.00  0.00    -0.274 OA
ATOM     10  N   UNL     1      -2.309  -1.338   4.316  0.00  0.00    -0.311 N 
ATOM     11  H   UNL     1      -2.909  -0.576   4.347  0.00  0.00    +0.149 HD
BRANCH  10  12
ATOM     12  C   UNL     1      -2.490  -2.451   5.251  0.00  0.00    +0.073 C 
ATOM     13  C   UNL     1      -3.303  -3.561   4.554  0.00  0.00    +0.022 C 
ATOM     14  C   UNL     1      -3.058  -4.858   5.278  0.00  0.00    +0.002 C 
ATOM     15  C   UNL     1      -4.128  -5.144   6.349  0.00  0.00    +0.000 C 
ATOM     16  C   UNL     1      -4.513  -3.892   7.160  0.00  0.00    +0.000 C 
ATOM     17  C   UNL     1      -3.318  -3.052   7.523  0.00  0.00    +0.002 C 
ATOM     18  C   UNL     1      -3.146  -1.956   6.452  0.00  0.00    +0.022 C 
ENDBRANCH  10  12
ENDBRANCH   1   8
BRANCH   1  19
ATOM     19  N   UNL     1       0.024  -0.502   1.581  0.00  0.00    -0.174 NA
ATOM     20  H   UNL     1       0.795  -0.976   1.930  0.00  0.00    +0.149 HD
BRANCH  19  21
ATOM     21  S   UNL     1       0.002  -0.004   0.002  0.00  0.00    +0.059 S 
ATOM     22  O   UNL     1      -1.243  -0.424  -0.539  0.00  0.00    -0.153 OA
ATOM     23  O   UNL     1       1.248  -0.390  -0.563  0.00  0.00    -0.153 OA
BRANCH  21  24
ATOM     24  C   UNL     1      -0.022   1.758   0.012  0.00  0.00    +0.106 A 
ATOM     25  C   UNL     1      -1.230   2.431   0.021  0.00  0.00    +0.030 A 
ATOM     26  C   UNL     1      -1.252   3.812   0.032  0.00  0.00    +0.025 A 
ATOM     27  C   UNL     1      -0.060   4.524   0.025  0.00  0.00    +0.037 A 
ATOM     28  C   UNL     1       1.151   3.845   0.011  0.00  0.00    -0.024 A 
ATOM     29  C   UNL     1       1.167   2.464   0.004  0.00  0.00    +0.034 A 
ATOM     30  C   UNL     1       2.444   4.617   0.004  0.00  0.00    +0.046 C 
ATOM     31  C   UNL     1       2.263   5.910  -0.792  0.00  0.00    +0.101 C 
ATOM     32  C   UNL     1       1.013   6.618  -0.341  0.00  0.00    +0.218 C 
ATOM     33  O   UNL     1       0.988   7.831  -0.315  0.00  0.00    -0.275 OA
ATOM     34  N   UNL     1      -0.076   5.922   0.032  0.00  0.00    -0.285 N 
ATOM     35  H   UNL     1      -0.877   6.393   0.309  0.00  0.00    +0.155 HD
ENDBRANCH  21  24
ENDBRANCH  19  21
ENDBRANCH   1  19
TORSDOF 6
