REMARK  Name = ZINC05621249
REMARK  8 active torsions:
REMARK  status: ('A' for Active; 'I' for Inactive)
REMARK    1  A    between atoms: C_1  and  C_2
REMARK    2  A    between atoms: C_2  and  C_8
REMARK    3  A    between atoms: N_3  and  N_4
REMARK    4  A    between atoms: N_4  and  C_5
REMARK    5  A    between atoms: C_5  and  N_7
REMARK    6  A    between atoms: C_13  and  C_32
REMARK    7  A    between atoms: C_24  and  C_31
REMARK    8  A    between atoms: C_27  and  O_30
REMARK                            x       y       z     vdW  Elec       q    Type
REMARK                         _______ _______ _______ _____ _____    ______ ____
ROOT
ATOM      1  C   UNL     1       4.461   1.756  -0.094  0.00  0.00    -0.023 C 
ATOM      2  C   UNL     1       5.745   1.394  -0.009  0.00  0.00    -0.021 C 
ATOM      3  C   UNL     1       6.632   2.621   0.070  0.00  0.00    +0.032 C 
ATOM      4  C   UNL     1       5.665   3.736   0.584  0.00  0.00    +0.006 C 
ATOM      5  C   UNL     1       4.362   3.257  -0.084  0.00  0.00    -0.002 C 
ATOM      6  C   UNL     1       3.113   3.795   0.556  0.00  0.00    +0.012 C 
ATOM      7  C   UNL     1       3.091   3.745   2.070  0.00  0.00    +0.005 C 
ATOM      8  C   UNL     1       4.376   4.227   2.722  0.00  0.00    -0.001 C 
ATOM      9  C   UNL     1       5.591   3.576   2.098  0.00  0.00    -0.003 C 
ATOM     10  C   UNL     1       6.889   4.039   2.752  0.00  0.00    +0.004 C 
ATOM     11  C   UNL     1       6.960   5.567   2.786  0.00  0.00    +0.004 C 
ATOM     12  C   UNL     1       5.768   6.099   3.575  0.00  0.00    -0.002 C 
ATOM     13  C   UNL     1       4.460   5.739   2.862  0.00  0.00    -0.026 C 
ATOM     14  C   UNL     1       3.297   6.224   3.741  0.00  0.00    +0.010 C 
ATOM     15  C   UNL     1       3.388   7.728   3.980  0.00  0.00    +0.032 C 
ATOM     16  C   UNL     1       4.717   8.094   4.639  0.00  0.00    +0.115 C 
ATOM     17  C   UNL     1       5.882   7.606   3.775  0.00  0.00    +0.035 C 
ATOM     18  C   UNL     1       4.385   6.447   1.514  0.00  0.00    +0.012 C 
ATOM     19  C   UNL     1       4.381   3.736  -1.544  0.00  0.00    +0.016 C 
ENDROOT
BRANCH   1  21
ATOM     20  C   UNL     1       3.598  -0.669  -0.203  0.00  0.00    +0.067 C 
ATOM     21  C   UNL     1       3.339   0.816  -0.193  0.00  0.00    +0.060 C 
ATOM     22  N   UNL     1       2.121   1.263  -0.272  0.00  0.00    -0.186 NA
BRANCH  22  23
ATOM     23  N   UNL     1       1.049   0.366  -0.366  0.00  0.00    -0.218 N 
ATOM     24  H   UNL     1       1.216  -0.590  -0.373  0.00  0.00    +0.176 HD
BRANCH  23  25
ATOM     25  C   UNL     1      -0.213   0.830  -0.454  0.00  0.00    +0.147 C 
ATOM     26  S   UNL     1      -1.522  -0.266  -0.576  0.00  0.00    -0.017 S 
BRANCH  25  27
ATOM     27  N   UNL     1      -0.444   2.158  -0.445  0.00  0.00    -0.339 N 
ATOM     28  H   UNL     1       0.297   2.779  -0.376  0.00  0.00    +0.144 HD
ATOM     29  H   UNL     1      -1.353   2.492  -0.508  0.00  0.00    +0.144 HD
ENDBRANCH  25  27
ENDBRANCH  23  25
ENDBRANCH  22  23
ENDBRANCH   1  21
BRANCH  16  30
ATOM     30  O   UNL     1       4.801   9.514   4.786  0.00  0.00    -0.392 OA
ATOM     31  H   UNL     1       4.098   9.895   5.331  0.00  0.00    +0.210 HD
ENDBRANCH  16  30
TORSDOF 5
