REMARK  Name = ZINC39637662
REMARK  8 active torsions:
REMARK  status: ('A' for Active; 'I' for Inactive)
REMARK    1  A    between atoms: C_1  and  C_2
REMARK    2  A    between atoms: C_2  and  C_4
REMARK    3  A    between atoms: C_2  and  O_29
REMARK    4  A    between atoms: C_8  and  C_17
REMARK    5  A    between atoms: N_19  and  C_20
REMARK    6  A    between atoms: C_20  and  C_21
REMARK    7  A    between atoms: C_21  and  C_22
REMARK    8  A    between atoms: O_29  and  C_30
REMARK                            x       y       z     vdW  Elec       q    Type
REMARK                         _______ _______ _______ _____ _____    ______ ____
ROOT
ATOM      1  C   UNL     1       0.740  -0.383   1.130  0.00  0.00    +0.256 C 
ATOM      2  O   UNL     1       1.862  -0.797   0.928  0.00  0.00    -0.272 OA
ATOM      3  N   UNL     1       0.346  -0.089   2.385  0.00  0.00    -0.297 N 
ATOM      4  C   UNL     1      -0.974   0.418   2.827  0.00  0.00    +0.121 C 
ATOM      5  C   UNL     1      -1.254  -0.326   4.152  0.00  0.00    +0.100 C 
ATOM      6  C   UNL     1       0.135  -0.727   4.678  0.00  0.00    -0.004 C 
ATOM      7  C   UNL     1       1.134  -0.205   3.635  0.00  0.00    +0.115 C 
ATOM      8  C   UNL     1       0.241  -2.245   4.788  0.00  0.00    -0.010 C 
ATOM      9  C   UNL     1       1.609  -2.615   5.367  0.00  0.00    -0.082 C 
ATOM     10  N   UNL     1       1.768  -1.997   6.688  0.00  0.00    +0.379 N 
ATOM     11  C   UNL     1       1.758  -0.534   6.561  0.00  0.00    -0.082 C 
ATOM     12  C   UNL     1       0.396  -0.075   6.033  0.00  0.00    -0.010 C 
ATOM     13  H   UNL     1       1.009  -2.286   7.287  0.00  0.00    -0.086 HD
ATOM     14  H   UNL     1       2.644  -2.292   7.093  0.00  0.00    -0.086 HD
ENDROOT
BRANCH   5  15
ATOM     15  C   UNL     1      -1.944   0.588   5.131  0.00  0.00    +0.218 C 
ATOM     16  O   UNL     1      -1.727   1.780   5.105  0.00  0.00    -0.275 OA
ATOM     17  N   UNL     1      -2.804   0.079   6.036  0.00  0.00    -0.315 N 
ATOM     18  H   UNL     1      -2.978  -0.875   6.057  0.00  0.00    +0.149 HD
BRANCH  17  19
ATOM     19  C   UNL     1      -3.476   0.968   6.988  0.00  0.00    +0.109 C 
BRANCH  19  20
ATOM     20  C   UNL     1      -4.391   0.144   7.897  0.00  0.00    +0.054 C 
BRANCH  20  21
ATOM     21  C   UNL     1      -5.081   1.058   8.876  0.00  0.00    -0.043 A 
ATOM     22  C   UNL     1      -4.494   1.334  10.097  0.00  0.00    +0.004 A 
ATOM     23  C   UNL     1      -5.126   2.172  10.996  0.00  0.00    +0.003 A 
ATOM     24  C   UNL     1      -6.347   2.735  10.675  0.00  0.00    +0.038 A 
ATOM     25  C   UNL     1      -6.937   2.459   9.453  0.00  0.00    +0.124 A 
ATOM     26  C   UNL     1      -6.299   1.624   8.551  0.00  0.00    +0.042 A 
ATOM     27  F   UNL     1      -8.130   3.008   9.139  0.00  0.00    -0.205 F 
ENDBRANCH  20  21
ENDBRANCH  19  20
ENDBRANCH  17  19
ENDBRANCH   5  15
BRANCH   1  29
ATOM     28  C   UNL     1      -0.539   1.290  -0.180  0.00  0.00    +0.062 C 
ATOM     29  C   UNL     1      -0.213  -0.197  -0.022  0.00  0.00    +0.256 C 
BRANCH  29  30
ATOM     30  O   UNL     1       0.391  -0.682  -1.223  0.00  0.00    -0.480 OA
BRANCH  30  31
ATOM     31  C   UNL     1      -0.446  -1.080  -2.217  0.00  0.00    +0.122 A 
ATOM     32  C   UNL     1       0.067  -1.667  -3.364  0.00  0.00    +0.045 A 
ATOM     33  C   UNL     1      -0.786  -2.072  -4.373  0.00  0.00    +0.004 A 
ATOM     34  C   UNL     1      -2.150  -1.891  -4.240  0.00  0.00    +0.000 A 
ATOM     35  C   UNL     1      -2.664  -1.306  -3.098  0.00  0.00    +0.004 A 
ATOM     36  C   UNL     1      -1.816  -0.906  -2.084  0.00  0.00    +0.045 A 
ENDBRANCH  30  31
ENDBRANCH  29  30
ENDBRANCH   1  29
TORSDOF 7
