REMARK  Name = ZINC13425171
REMARK  9 active torsions:
REMARK  status: ('A' for Active; 'I' for Inactive)
REMARK    1  A    between atoms: C_1  and  C_2
REMARK    2  A    between atoms: C_3  and  C_27
REMARK    3  A    between atoms: C_4  and  C_26
REMARK    4  A    between atoms: C_18  and  C_25
REMARK    5  A    between atoms: C_21  and  O_24
REMARK    6  A    between atoms: C_27  and  C_33
REMARK    7  A    between atoms: N_28  and  N_29
REMARK    8  A    between atoms: N_29  and  C_30
REMARK    9  A    between atoms: C_30  and  N_32
REMARK                            x       y       z     vdW  Elec       q    Type
REMARK                         _______ _______ _______ _____ _____    ______ ____
ROOT
ATOM      1  C   UNL     1      -5.255   1.699  -2.295  0.00  0.00    +0.039 C 
ATOM      2  C   UNL     1      -4.096   1.630  -1.335  0.00  0.00    -0.067 C 
ATOM      3  C   UNL     1      -4.199   1.634   0.008  0.00  0.00    -0.020 C 
ATOM      4  C   UNL     1      -2.826   1.584   0.589  0.00  0.00    -0.002 C 
ATOM      5  C   UNL     1      -2.615   0.832   1.882  0.00  0.00    +0.012 C 
ATOM      6  C   UNL     1      -1.113   1.026   2.234  0.00  0.00    +0.005 C 
ATOM      7  C   UNL     1      -0.207   0.510   1.122  0.00  0.00    -0.001 C 
ATOM      8  C   UNL     1      -0.547   1.167  -0.226  0.00  0.00    -0.003 C 
ATOM      9  C   UNL     1      -2.003   0.857  -0.514  0.00  0.00    +0.007 C 
ATOM     10  C   UNL     1      -2.616   1.525  -1.752  0.00  0.00    +0.035 C 
ATOM     11  C   UNL     1       0.349   0.572  -1.313  0.00  0.00    +0.004 C 
ATOM     12  C   UNL     1       1.816   0.842  -0.970  0.00  0.00    +0.004 C 
ATOM     13  C   UNL     1       2.154   0.199   0.376  0.00  0.00    -0.002 C 
ATOM     14  C   UNL     1       1.256   0.793   1.464  0.00  0.00    -0.026 C 
ATOM     15  C   UNL     1       1.597   0.151   2.811  0.00  0.00    +0.010 C 
ATOM     16  C   UNL     1       1.359  -1.358   2.728  0.00  0.00    +0.032 C 
ATOM     17  C   UNL     1       2.252  -1.956   1.638  0.00  0.00    +0.115 C 
ATOM     18  C   UNL     1       1.917  -1.311   0.292  0.00  0.00    +0.035 C 
ATOM     19  C   UNL     1       1.479   2.305   1.548  0.00  0.00    +0.012 C 
ATOM     20  C   UNL     1      -2.297   3.011   0.747  0.00  0.00    +0.016 C 
ENDROOT
BRANCH   3  21
ATOM     21  C   UNL     1      -5.452   1.680   0.770  0.00  0.00    +0.060 C 
ATOM     22  N   UNL     1      -6.010   0.577   1.171  0.00  0.00    -0.186 NA
ATOM     23  C   UNL     1      -6.091   3.007   1.090  0.00  0.00    +0.067 C 
BRANCH  22  24
ATOM     24  N   UNL     1      -5.478  -0.659   0.780  0.00  0.00    -0.218 N 
ATOM     25  H   UNL     1      -4.668  -0.692   0.248  0.00  0.00    +0.176 HD
BRANCH  24  26
ATOM     26  C   UNL     1      -6.092  -1.802   1.145  0.00  0.00    +0.147 C 
ATOM     27  S   UNL     1      -5.442  -3.312   0.668  0.00  0.00    -0.017 S 
BRANCH  26  28
ATOM     28  N   UNL     1      -7.217  -1.756   1.886  0.00  0.00    -0.339 N 
ATOM     29  H   UNL     1      -7.585  -0.900   2.156  0.00  0.00    +0.144 HD
ATOM     30  H   UNL     1      -7.659  -2.579   2.148  0.00  0.00    +0.144 HD
ENDBRANCH  26  28
ENDBRANCH  24  26
ENDBRANCH  22  24
ENDBRANCH   3  21
BRANCH  17  31
ATOM     31  O   UNL     1       3.623  -1.709   1.957  0.00  0.00    -0.392 OA
ATOM     32  H   UNL     1       3.906  -2.090   2.799  0.00  0.00    +0.210 HD
ENDBRANCH  17  31
TORSDOF 5
