REMARK  Name = ZINC09741338
REMARK  4 active torsions:
REMARK  status: ('A' for Active; 'I' for Inactive)
REMARK    1  A    between atoms: N_14  and  C_18
REMARK    2  A    between atoms: C_18  and  C_19
REMARK    3  A    between atoms: N_21  and  C_22
REMARK    4  A    between atoms: C_22  and  C_23
REMARK                            x       y       z     vdW  Elec       q    Type
REMARK                         _______ _______ _______ _____ _____    ______ ____
ROOT
ATOM      1  C   UNL     1      -0.077   2.904  10.362  0.00  0.00    +0.000 A 
ATOM      2  C   UNL     1      -0.617   1.702   9.945  0.00  0.00    +0.000 A 
ATOM      3  C   UNL     1      -0.206   1.141   8.754  0.00  0.00    +0.006 A 
ATOM      4  C   UNL     1       0.751   1.777   7.967  0.00  0.00    -0.012 A 
ATOM      5  C   UNL     1       1.282   2.963   8.382  0.00  0.00    -0.042 A 
ATOM      6  C   UNL     1       0.871   3.534   9.582  0.00  0.00    +0.004 A 
ATOM      7  C   UNL     1       2.326   3.721   7.588  0.00  0.00    +0.035 C 
ATOM      8  C   UNL     1       3.607   2.891   7.527  0.00  0.00    +0.005 C 
ATOM      9  C   UNL     1       3.535   1.861   6.417  0.00  0.00    +0.003 C 
ATOM     10  C   UNL     1       2.614   0.695   6.707  0.00  0.00    +0.040 C 
ATOM     11  C   UNL     1       1.143   1.093   6.678  0.00  0.00    +0.138 C 
ATOM     12  C   UNL     1       0.783   1.907   5.470  0.00  0.00    +0.251 C 
ATOM     13  O   UNL     1       1.260   2.950   5.075  0.00  0.00    -0.272 OA
ATOM     14  N   UNL     1      -0.219   1.233   4.857  0.00  0.00    -0.215 N 
ATOM     15  C   UNL     1      -0.467   0.068   5.463  0.00  0.00    +0.310 C 
ATOM     16  O   UNL     1      -1.313  -0.723   5.090  0.00  0.00    -0.252 OA
ATOM     17  N   UNL     1       0.326  -0.130   6.531  0.00  0.00    -0.281 N 
ATOM     18  H   UNL     1       0.368  -0.914   7.098  0.00  0.00    +0.152 HD
ENDROOT
BRANCH  14  19
ATOM     19  C   UNL     1      -0.927   1.718   3.671  0.00  0.00    +0.213 C 
BRANCH  19  20
ATOM     20  C   UNL     1      -0.222   1.232   2.431  0.00  0.00    +0.231 C 
ATOM     21  O   UNL     1       0.774   0.548   2.529  0.00  0.00    -0.274 OA
ATOM     22  N   UNL     1      -0.698   1.558   1.213  0.00  0.00    -0.312 N 
ATOM     23  H   UNL     1      -1.495   2.106   1.135  0.00  0.00    +0.149 HD
BRANCH  22  24
ATOM     24  C   UNL     1      -0.013   1.086   0.008  0.00  0.00    +0.135 C 
BRANCH  24  25
ATOM     25  C   UNL     1      -0.753   1.593  -1.232  0.00  0.00    +0.135 C 
ATOM     26  C   UNL     1      -0.105   1.006  -2.504  0.00  0.00    +0.035 C 
ATOM     27  C   UNL     1      -0.159   2.208  -3.486  0.00  0.00    +0.031 C 
ATOM     28  C   UNL     1       0.049   3.394  -2.510  0.00  0.00    +0.160 C 
ATOM     29  O   UNL     1      -0.648   3.019  -1.311  0.00  0.00    -0.375 OA
ENDBRANCH  24  25
ENDBRANCH  22  24
ENDBRANCH  19  20
ENDBRANCH  14  19
TORSDOF 4
