REMARK  Name = ZINC24875495
REMARK  6 active torsions:
REMARK  status: ('A' for Active; 'I' for Inactive)
REMARK    1  A    between atoms: C_4  and  N_7
REMARK    2  A    between atoms: C_8  and  C_28
REMARK    3  A    between atoms: C_11  and  S_12
REMARK    4  A    between atoms: S_12  and  C_13
REMARK    5  A    between atoms: C_13  and  C_14
REMARK    6  A    between atoms: C_28  and  N_29
REMARK                            x       y       z     vdW  Elec       q    Type
REMARK                         _______ _______ _______ _____ _____    ______ ____
ROOT
ATOM      1  N   UNL     1      -0.446   1.695   0.362  0.00  0.00    -0.276 N 
ATOM      2  C   UNL     1      -0.801   2.436  -0.733  0.00  0.00    +0.122 A 
ATOM      3  N   UNL     1      -2.008   2.881  -0.525  0.00  0.00    -0.135 NA
ATOM      4  N   UNL     1      -2.435   2.482   0.620  0.00  0.00    -0.122 NA
ATOM      5  C   UNL     1      -1.518   1.750   1.209  0.00  0.00    +0.196 A 
ENDROOT
BRANCH   1   9
ATOM      6  C   UNL     1       3.162  -0.302   0.979  0.00  0.00    +0.000 A 
ATOM      7  C   UNL     1       1.985  -1.021   0.868  0.00  0.00    +0.002 A 
ATOM      8  C   UNL     1       0.788  -0.362   0.666  0.00  0.00    +0.026 A 
ATOM      9  C   UNL     1       0.767   1.023   0.574  0.00  0.00    +0.050 A 
ATOM     10  C   UNL     1       1.950   1.742   0.685  0.00  0.00    +0.026 A 
ATOM     11  C   UNL     1       3.143   1.077   0.888  0.00  0.00    +0.002 A 
ENDBRANCH   1   9
BRANCH   5  12
ATOM     12  S   UNL     1      -1.645   0.985   2.791  0.00  0.00    -0.078 S 
BRANCH  12  13
ATOM     13  C   UNL     1      -3.312   1.512   3.262  0.00  0.00    +0.153 C 
BRANCH  13  14
ATOM     14  C   UNL     1      -3.648   0.959   4.623  0.00  0.00    +0.143 A 
ATOM     15  N   UNL     1      -4.235  -0.221   4.714  0.00  0.00    -0.216 NA
ATOM     16  C   UNL     1      -4.550  -0.764   5.879  0.00  0.00    +0.128 A 
ATOM     17  C   UNL     1      -4.259  -0.052   7.075  0.00  0.00    +0.051 A 
ATOM     18  C   UNL     1      -4.517  -0.445   8.462  0.00  0.00    -0.025 A 
ATOM     19  C   UNL     1      -4.139   0.421   9.424  0.00  0.00    -0.004 A 
ATOM     20  S   UNL     1      -3.428   1.794   8.557  0.00  0.00    -0.073 S 
ATOM     21  C   UNL     1      -3.638   1.201   6.898  0.00  0.00    +0.114 A 
ATOM     22  N   UNL     1      -3.354   1.666   5.697  0.00  0.00    -0.224 NA
ATOM     23  C   UNL     1      -4.291   0.254  10.905  0.00  0.00    +0.043 C 
ATOM     24  C   UNL     1      -5.279  -0.891  11.166  0.00  0.00    +0.005 C 
ATOM     25  C   UNL     1      -4.888  -2.086  10.290  0.00  0.00    +0.005 C 
ATOM     26  C   UNL     1      -5.181  -1.771   8.823  0.00  0.00    +0.037 C 
ATOM     27  N   UNL     1      -5.159  -2.005   5.932  0.00  0.00    -0.343 N 
ATOM     28  H   UNL     1      -5.418  -2.449   6.904  0.00  0.00    +0.144 HD
ATOM     29  H   UNL     1      -5.385  -2.547   5.002  0.00  0.00    +0.144 HD
ENDBRANCH  13  14
ENDBRANCH  12  13
ENDBRANCH   5  12
BRANCH   2  30
ATOM     30  C   UNL     1       0.045   2.689  -1.954  0.00  0.00    -0.001 C 
BRANCH  30  31
ATOM     31  N   UNL     1      -0.203   1.637  -2.949  0.00  0.00    +0.384 N 
ATOM     32  C   UNL     1       0.259   0.331  -2.461  0.00  0.00    -0.078 C 
ATOM     33  C   UNL     1      -0.146  -0.759  -3.455  0.00  0.00    -0.019 C 
ATOM     34  C   UNL     1       0.476  -0.454  -4.821  0.00  0.00    -0.004 C 
ATOM     35  C   UNL     1       0.018   0.931  -5.284  0.00  0.00    -0.019 C 
ATOM     36  C   UNL     1       0.418   1.972  -4.236  0.00  0.00    -0.078 C 
ATOM     37  H   UNL     1      -1.290   1.570  -3.108  0.00  0.00    -0.081 HD
ENDBRANCH  30  31
ENDBRANCH   2  30
TORSDOF 6
