REMARK  Name = ZINC39434170
REMARK  4 active torsions:
REMARK  status: ('A' for Active; 'I' for Inactive)
REMARK    1  A    between atoms: C_4  and  C_7
REMARK    2  A    between atoms: C_17  and  N_19
REMARK    3  A    between atoms: N_19  and  S_20
REMARK    4  A    between atoms: S_20  and  C_23
REMARK                            x       y       z     vdW  Elec       q    Type
REMARK                         _______ _______ _______ _____ _____    ______ ____
ROOT
ATOM      1  C   UNL     1       3.648  -0.649  -0.037  0.00  0.00    -0.004 C 
ATOM      2  C   UNL     1       4.861   0.036  -0.144  0.00  0.00    +0.003 A 
ATOM      3  C   UNL     1       4.888   1.444  -0.239  0.00  0.00    +0.030 A 
ATOM      4  C   UNL     1       6.083   2.086  -0.342  0.00  0.00    +0.042 A 
ATOM      5  C   UNL     1       7.286   1.381  -0.355  0.00  0.00    +0.022 A 
ATOM      6  C   UNL     1       7.323   0.023  -0.268  0.00  0.00    +0.025 A 
ATOM      7  C   UNL     1       6.126  -0.707  -0.158  0.00  0.00    +0.041 A 
ATOM      8  N   UNL     1       6.165  -2.041  -0.071  0.00  0.00    -0.283 N 
ATOM      9  C   UNL     1       5.089  -2.796   0.033  0.00  0.00    +0.240 C 
ATOM     10  O   UNL     1       5.200  -4.006   0.108  0.00  0.00    -0.273 OA
ATOM     11  C   UNL     1       3.718  -2.161   0.066  0.00  0.00    +0.193 C 
ATOM     12 CL   UNL     1       6.111   3.818  -0.459  0.00  0.00    -0.084 Cl
ATOM     13  H   UNL     1       7.032  -2.477  -0.085  0.00  0.00    +0.155 HD
ENDROOT
BRANCH   1  17
ATOM     14  C   UNL     1      -0.017   1.380   0.011  0.00  0.00    +0.000 A 
ATOM     15  C   UNL     1       0.778   1.424  -1.123  0.00  0.00    +0.001 A 
ATOM     16  C   UNL     1       1.985   0.760  -1.149  0.00  0.00    +0.008 A 
ATOM     17  C   UNL     1       2.408   0.038  -0.021  0.00  0.00    -0.019 A 
ATOM     18  C   UNL     1       1.594   0.000   1.123  0.00  0.00    +0.008 A 
ATOM     19  C   UNL     1       0.391   0.670   1.128  0.00  0.00    +0.001 A 
ENDBRANCH   1  17
BRANCH  11  20
ATOM     20  N   UNL     1       2.939  -2.724  -1.040  0.00  0.00    -0.174 NA
ATOM     21  H   UNL     1       2.925  -2.276  -1.900  0.00  0.00    +0.149 HD
BRANCH  20  22
ATOM     22  S   UNL     1       2.085  -4.125  -0.821  0.00  0.00    +0.059 S 
ATOM     23  O   UNL     1       1.424  -4.394  -2.051  0.00  0.00    -0.153 OA
ATOM     24  O   UNL     1       2.974  -5.053  -0.216  0.00  0.00    -0.153 OA
BRANCH  22  25
ATOM     25  C   UNL     1       0.825  -3.788   0.364  0.00  0.00    +0.105 A 
ATOM     26  C   UNL     1       1.078  -3.967   1.711  0.00  0.00    +0.028 A 
ATOM     27  C   UNL     1       0.090  -3.703   2.641  0.00  0.00    +0.002 A 
ATOM     28  C   UNL     1      -1.151  -3.259   2.224  0.00  0.00    +0.000 A 
ATOM     29  C   UNL     1      -1.403  -3.078   0.876  0.00  0.00    +0.002 A 
ATOM     30  C   UNL     1      -0.414  -3.339  -0.053  0.00  0.00    +0.028 A 
ENDBRANCH  22  25
ENDBRANCH  20  22
ENDBRANCH  11  20
TORSDOF 4
