REMARK  Name = ZINC36530139
REMARK  11 active torsions:
REMARK  status: ('A' for Active; 'I' for Inactive)
REMARK    1  A    between atoms: C_1  and  C_2
REMARK    2  A    between atoms: C_5  and  S_8
REMARK    3  A    between atoms: S_8  and  C_11
REMARK    4  A    between atoms: C_11  and  N_12
REMARK    5  A    between atoms: C_13  and  C_15
REMARK    6  A    between atoms: C_15  and  C_17
REMARK    7  A    between atoms: C_15  and  N_24
REMARK    8  A    between atoms: C_22  and  O_23
REMARK    9  A    between atoms: N_24  and  C_25
REMARK   10  A    between atoms: C_26  and  C_28
REMARK   11  A    between atoms: C_30  and  N_35
REMARK                            x       y       z     vdW  Elec       q    Type
REMARK                         _______ _______ _______ _____ _____    ______ ____
ROOT
ATOM      1  C   UNL     1       3.343  -4.663   3.736  0.00  0.00    +0.196 C 
ENDROOT
BRANCH   1   2
ATOM      2  C   UNL     1       4.564  -3.782   3.674  0.00  0.00    +0.023 A 
ATOM      3  C   UNL     1       5.442  -3.892   2.613  0.00  0.00    +0.009 A 
ATOM      4  C   UNL     1       6.563  -3.084   2.555  0.00  0.00    +0.001 A 
ATOM      5  C   UNL     1       6.808  -2.164   3.558  0.00  0.00    +0.004 A 
ATOM      6  C   UNL     1       5.933  -2.050   4.621  0.00  0.00    +0.046 A 
ATOM      7  C   UNL     1       4.804  -2.856   4.678  0.00  0.00    +0.122 A 
BRANCH   7   8
ATOM      8  O   UNL     1       3.939  -2.742   5.720  0.00  0.00    -0.506 OA
ATOM      9  H   UNL     1       4.148  -3.315   6.470  0.00  0.00    +0.292 HD
ENDBRANCH   7   8
ENDBRANCH   1   2
BRANCH   1  11
ATOM     10  N   UNL     1       2.876  -4.490   1.313  0.00  0.00    -0.294 N 
ATOM     11  C   UNL     1       3.099  -5.279   2.383  0.00  0.00    +0.239 C 
ATOM     12  O   UNL     1       3.102  -6.485   2.256  0.00  0.00    -0.273 OA
ATOM     13  H   UNL     1       2.873  -3.525   1.415  0.00  0.00    +0.150 HD
BRANCH  10  14
ATOM     14  C   UNL     1       2.638  -5.089  -0.002  0.00  0.00    +0.278 C 
BRANCH  14  15
ATOM     15  S   UNL     1       0.852  -5.238  -0.284  0.00  0.00    +0.013 S 
ATOM     16  O   UNL     1       0.222  -5.805   0.856  0.00  0.00    -0.168 OA
ATOM     17  O   UNL     1       0.604  -5.759  -1.583  0.00  0.00    -0.168 OA
BRANCH  15  22
ATOM     18  C   UNL     1      -1.168   0.443  -0.495  0.00  0.00    +0.044 C 
ATOM     19  C   UNL     1      -0.663  -0.976  -0.443  0.00  0.00    -0.050 A 
ATOM     20  C   UNL     1      -0.246  -1.604  -1.601  0.00  0.00    +0.005 A 
ATOM     21  C   UNL     1       0.217  -2.906  -1.552  0.00  0.00    +0.027 A 
ATOM     22  C   UNL     1       0.263  -3.579  -0.346  0.00  0.00    +0.090 A 
ATOM     23  C   UNL     1      -0.154  -2.950   0.812  0.00  0.00    +0.027 A 
ATOM     24  C   UNL     1      -0.613  -1.647   0.765  0.00  0.00    +0.005 A 
ENDBRANCH  15  22
ENDBRANCH  14  15
ENDBRANCH  10  14
ENDBRANCH   1  11
BRANCH   1  25
ATOM     25  N   UNL     1       3.557  -5.724   4.724  0.00  0.00    -0.285 N 
ATOM     26  C   UNL     1       4.736  -6.588   4.628  0.00  0.00    +0.133 C 
ATOM     27  C   UNL     1       2.668  -5.904   5.721  0.00  0.00    +0.251 C 
ATOM     28  O   UNL     1       1.734  -5.137   5.850  0.00  0.00    -0.270 OA
BRANCH  27  29
ATOM     29  C   UNL     1       2.829  -7.033   6.657  0.00  0.00    +0.086 A 
ATOM     30  C   UNL     1       4.076  -7.302   7.226  0.00  0.00    +0.049 A 
ATOM     31  C   UNL     1       4.220  -8.358   8.099  0.00  0.00    +0.127 A 
ATOM     32  C   UNL     1       3.132  -9.156   8.417  0.00  0.00    +0.036 A 
ATOM     33  C   UNL     1       1.894  -8.901   7.862  0.00  0.00    +0.054 A 
ATOM     34  C   UNL     1       1.730  -7.838   6.986  0.00  0.00    +0.191 A 
ATOM     35  O   UNL     1       0.512  -7.583   6.445  0.00  0.00    -0.287 OA
BRANCH  31  36
ATOM     36  N   UNL     1       5.543  -8.643   8.700  0.00  0.00    +0.056 N 
ATOM     37  O   UNL     1       6.494  -7.949   8.425  0.00  0.00    -0.126 OA
ATOM     38  O   UNL     1       5.672  -9.569   9.467  0.00  0.00    -0.126 OA
ENDBRANCH  31  36
ENDBRANCH  27  29
ENDBRANCH   1  25
TORSDOF 9
