REMARK  Name = ZINC09292656
REMARK  9 active torsions:
REMARK  status: ('A' for Active; 'I' for Inactive)
REMARK    1  A    between atoms: C_1  and  C_2
REMARK    2  A    between atoms: C_2  and  O_3
REMARK    3  A    between atoms: O_3  and  C_4
REMARK    4  A    between atoms: C_7  and  C_12
REMARK    5  A    between atoms: C_9  and  O_10
REMARK    6  A    between atoms: O_10  and  C_11
REMARK    7  A    between atoms: C_19  and  N_35
REMARK    8  A    between atoms: C_20  and  C_33
REMARK    9  A    between atoms: C_21  and  C_23
REMARK                            x       y       z     vdW  Elec       q    Type
REMARK                         _______ _______ _______ _____ _____    ______ ____
ROOT
ATOM      1  C   UNL     1       0.982  -6.382  -1.861  0.00  0.00    +0.074 A 
ATOM      2  C   UNL     1       1.526  -7.113  -0.858  0.00  0.00    +0.054 A 
ATOM      3  C   UNL     1       1.575  -8.458  -1.274  0.00  0.00    +0.245 A 
ATOM      4  N   UNL     1       1.079  -8.533  -2.477  0.00  0.00    -0.135 NA
ATOM      5  N   UNL     1       0.690  -7.245  -2.878  0.00  0.00    -0.273 N 
ATOM      6  H   UNL     1       0.287  -7.010  -3.729  0.00  0.00    +0.189 HD
ATOM      7  O   UNL     1       2.077  -9.441  -0.479  0.00  0.00    -0.421 OA
ATOM      8  C   UNL     1       2.776  -9.062   0.610  0.00  0.00    +0.201 C 
ATOM      9  C   UNL     1       2.796  -7.808   1.108  0.00  0.00    +0.098 C 
ATOM     10  C   UNL     1       2.022  -6.669   0.494  0.00  0.00    +0.102 C 
ENDROOT
BRANCH  10  11
ATOM     11  C   UNL     1       0.851  -6.317   1.375  0.00  0.00    -0.034 A 
ATOM     12  C   UNL     1      -0.141  -7.268   1.609  0.00  0.00    +0.005 A 
ATOM     13  C   UNL     1      -1.212  -6.983   2.400  0.00  0.00    +0.009 A 
ATOM     14  C   UNL     1      -1.322  -5.712   2.990  0.00  0.00    -0.018 A 
ATOM     15  C   UNL     1      -2.413  -5.381   3.812  0.00  0.00    +0.008 A 
ATOM     16  C   UNL     1      -2.485  -4.140   4.367  0.00  0.00    +0.001 A 
ATOM     17  C   UNL     1      -1.493  -3.190   4.133  0.00  0.00    +0.001 A 
ATOM     18  C   UNL     1      -0.423  -3.475   3.342  0.00  0.00    +0.008 A 
ATOM     19  C   UNL     1      -0.313  -4.746   2.752  0.00  0.00    -0.018 A 
ATOM     20  C   UNL     1       0.781  -5.079   1.934  0.00  0.00    +0.013 A 
ENDBRANCH  10  11
BRANCH   1  24
ATOM     21  C   UNL     1       0.300  -2.184  -1.836  0.00  0.00    +0.162 A 
ATOM     22  C   UNL     1       1.526  -2.689  -1.429  0.00  0.00    +0.050 A 
ATOM     23  C   UNL     1       1.750  -4.051  -1.436  0.00  0.00    +0.014 A 
ATOM     24  C   UNL     1       0.743  -4.922  -1.852  0.00  0.00    +0.004 A 
ATOM     25  C   UNL     1      -0.490  -4.413  -2.261  0.00  0.00    +0.059 A 
ATOM     26  C   UNL     1      -0.711  -3.048  -2.248  0.00  0.00    +0.162 A 
BRANCH  26  27
ATOM     27  O   UNL     1      -1.914  -2.550  -2.641  0.00  0.00    -0.491 OA
ATOM     28  C   UNL     1      -2.905  -3.494  -3.051  0.00  0.00    +0.277 C 
ENDBRANCH  26  27
BRANCH  21  29
ATOM     29  O   UNL     1       0.084  -0.841  -1.828  0.00  0.00    -0.489 OA
BRANCH  29  31
ATOM     30  C   UNL     1       0.736   1.455  -1.452  0.00  0.00    +0.048 C 
ATOM     31  C   UNL     1       1.164  -0.013  -1.394  0.00  0.00    +0.226 C 
ENDBRANCH  29  31
ENDBRANCH  21  29
ENDBRANCH   1  24
BRANCH   8  32
ATOM     32  N   UNL     1       3.518 -10.019   1.257  0.00  0.00    -0.328 N 
ATOM     33  H   UNL     1       3.526 -10.931   0.927  0.00  0.00    +0.145 HD
ATOM     34  H   UNL     1       4.033  -9.783   2.044  0.00  0.00    +0.145 HD
ENDBRANCH   8  32
BRANCH   9  35
ATOM     35  C   UNL     1       3.589  -7.547   2.271  0.00  0.00    +0.101 C 
ATOM     36  N   UNL     1       4.218  -7.341   3.194  0.00  0.00    -0.191 NA
ENDBRANCH   9  35
TORSDOF 7
