REMARK  Name = ZINC04236928
REMARK  11 active torsions:
REMARK  status: ('A' for Active; 'I' for Inactive)
REMARK    1  A    between atoms: C_1  and  C_2
REMARK    2  A    between atoms: C_7  and  C_38
REMARK    3  A    between atoms: C_12  and  O_26
REMARK    4  A    between atoms: C_14  and  C_16
REMARK    5  A    between atoms: C_16  and  C_17
REMARK    6  A    between atoms: N_19  and  C_20
REMARK    7  A    between atoms: C_20  and  C_21
REMARK    8  A    between atoms: C_29  and  C_32
REMARK    9  A    between atoms: C_32  and  N_33
REMARK   10  A    between atoms: N_33  and  S_34
REMARK   11  A    between atoms: S_34  and  C_37
REMARK                            x       y       z     vdW  Elec       q    Type
REMARK                         _______ _______ _______ _____ _____    ______ ____
ROOT
ATOM      1  C   UNL     1      -2.097  -0.438   1.584  0.00  0.00    +0.012 C 
ATOM      2  C   UNL     1      -2.146   1.068   1.328  0.00  0.00    -0.023 C 
ATOM      3  C   UNL     1      -0.737   1.554   0.972  0.00  0.00    +0.010 C 
ATOM      4  C   UNL     1      -0.322   1.003  -0.393  0.00  0.00    +0.033 C 
ATOM      5  C   UNL     1      -1.265   1.552  -1.461  0.00  0.00    +0.130 C 
ATOM      6  C   UNL     1      -2.700   1.093  -1.185  0.00  0.00    +0.021 C 
ATOM      7  C   UNL     1      -3.122   1.444   0.224  0.00  0.00    +0.006 C 
ATOM      8  C   UNL     1      -4.518   0.922   0.565  0.00  0.00    +0.007 C 
ATOM      9  C   UNL     1      -5.003   1.665   1.815  0.00  0.00    +0.032 C 
ATOM     10  C   UNL     1      -4.042   1.458   2.978  0.00  0.00    +0.119 C 
ATOM     11  C   UNL     1      -2.596   1.766   2.621  0.00  0.00    +0.032 C 
ATOM     12  C   UNL     1      -2.841  -0.394  -1.498  0.00  0.00    +0.172 C 
ATOM     13  O   UNL     1      -2.412  -0.606  -2.856  0.00  0.00    -0.349 OA
ATOM     14  C   UNL     1      -1.036  -0.258  -3.047  0.00  0.00    +0.266 C 
ATOM     15  O   UNL     1      -0.848   1.124  -2.755  0.00  0.00    -0.346 OA
ATOM     16  C   UNL     1      -3.607   1.865  -2.170  0.00  0.00    +0.016 C 
ENDROOT
BRANCH  10  17
ATOM     17  O   UNL     1      -4.175   0.136   3.501  0.00  0.00    -0.391 OA
ATOM     18  H   UNL     1      -5.060  -0.069   3.832  0.00  0.00    +0.210 HD
ENDBRANCH  10  17
BRANCH  11  19
ATOM     19  C   UNL     1      -1.693   1.313   3.776  0.00  0.00    +0.102 C 
BRANCH  19  20
ATOM     20  C   UNL     1      -1.993   2.138   5.001  0.00  0.00    +0.214 C 
ATOM     21  O   UNL     1      -2.844   3.001   4.957  0.00  0.00    -0.276 OA
ATOM     22  N   UNL     1      -1.317   1.916   6.146  0.00  0.00    -0.308 N 
ATOM     23  H   UNL     1      -0.637   1.225   6.181  0.00  0.00    +0.149 HD
BRANCH  22  24
ATOM     24  C   UNL     1      -1.609   2.717   7.337  0.00  0.00    +0.178 C 
BRANCH  24  25
ATOM     25  C   UNL     1      -0.722   2.273   8.471  0.00  0.00    +0.122 A 
ATOM     26  C   UNL     1       0.497   2.764   8.756  0.00  0.00    +0.046 A 
ATOM     27  C   UNL     1       0.964   2.067   9.893  0.00  0.00    +0.041 A 
ATOM     28  C   UNL     1       0.006   1.186  10.231  0.00  0.00    +0.195 A 
ATOM     29  O   UNL     1      -1.013   1.315   9.366  0.00  0.00    -0.466 OA
ENDBRANCH  24  25
ENDBRANCH  22  24
ENDBRANCH  19  20
ENDBRANCH  11  19
BRANCH  14  30
ATOM     30  C   UNL     1      -0.645  -0.533  -4.500  0.00  0.00    +0.166 C 
BRANCH  30  31
ATOM     31  N   UNL     1      -1.484   0.271  -5.393  0.00  0.00    -0.190 NA
ATOM     32  H   UNL     1      -2.292   0.688  -5.053  0.00  0.00    +0.148 HD
BRANCH  31  33
ATOM     33  S   UNL     1      -1.054   0.467  -6.980  0.00  0.00    +0.027 S 
ATOM     34  O   UNL     1      -2.062   1.306  -7.527  0.00  0.00    -0.158 OA
ATOM     35  O   UNL     1       0.301   0.893  -6.938  0.00  0.00    -0.158 OA
ATOM     36  C   UNL     1      -1.165  -1.194  -7.701  0.00  0.00    +0.214 C 
ENDBRANCH  31  33
ENDBRANCH  30  31
ENDBRANCH  14  30
TORSDOF 8
