REMARK  Name = ZINC63901216
REMARK  15 active torsions:
REMARK  status: ('A' for Active; 'I' for Inactive)
REMARK    1  A    between atoms: C_1  and  C_2
REMARK    2  A    between atoms: C_2  and  C_3
REMARK    3  A    between atoms: C_3  and  C_4
REMARK    4  A    between atoms: C_6  and  S_11
REMARK    5  A    between atoms: S_11  and  C_12
REMARK    6  A    between atoms: C_12  and  C_13
REMARK    7  A    between atoms: N_15  and  C_16
REMARK    8  A    between atoms: C_17  and  C_29
REMARK    9  A    between atoms: C_21  and  C_27
REMARK   10  A    between atoms: C_21  and  C_28
REMARK   11  A    between atoms: C_23  and  C_25
REMARK   12  A    between atoms: C_23  and  C_26
REMARK   13  A    between atoms: C_29  and  O_31
REMARK   14  A    between atoms: O_31  and  C_32
REMARK   15  A    between atoms: C_32  and  C_33
REMARK                            x       y       z     vdW  Elec       q    Type
REMARK                         _______ _______ _______ _____ _____    ______ ____
ROOT
ATOM      1  C   UNL     1       3.435  -9.421  -0.060  0.00  0.00    +0.086 A 
ATOM      2  C   UNL     1       3.600 -10.801  -0.068  0.00  0.00    +0.091 A 
ATOM      3  C   UNL     1       4.958 -11.298  -0.072  0.00  0.00    -0.024 A 
ATOM      4  C   UNL     1       5.910 -10.336  -0.065  0.00  0.00    -0.016 A 
ATOM      5  S   UNL     1       5.003  -8.819  -0.065  0.00  0.00    -0.079 S 
ATOM      6  C   UNL     1       7.386 -10.554  -0.049  0.00  0.00    -0.041 C 
ATOM      7  N   UNL     1       7.745 -11.955  -0.264  0.00  0.00    +0.389 N 
ATOM      8  C   UNL     1       6.726 -12.805  -0.865  0.00  0.00    -0.069 C 
ATOM      9  C   UNL     1       5.402 -12.752  -0.093  0.00  0.00    +0.024 C 
ATOM     10  C   UNL     1       6.479 -12.420  -2.326  0.00  0.00    -0.010 C 
ATOM     11  C   UNL     1       7.229 -14.260  -0.838  0.00  0.00    -0.010 C 
ATOM     12  C   UNL     1       8.045  -9.669  -1.117  0.00  0.00    -0.005 C 
ATOM     13  C   UNL     1       7.925 -10.114   1.327  0.00  0.00    -0.005 C 
ATOM     14  H   UNL     1       8.582 -11.989  -0.849  0.00  0.00    -0.084 HD
ATOM     15  H   UNL     1       8.019 -12.361   0.632  0.00  0.00    -0.084 HD
ENDROOT
BRANCH   1  18
ATOM     16  C   UNL     1       2.271  -7.359  -0.043  0.00  0.00    +0.228 C 
ATOM     17  O   UNL     1       3.332  -6.772  -0.045  0.00  0.00    -0.275 OA
ATOM     18  N   UNL     1       2.248  -8.707  -0.050  0.00  0.00    -0.279 N 
ATOM     19  H   UNL     1       1.399  -9.177  -0.048  0.00  0.00    +0.155 HD
BRANCH  16  20
ATOM     20  C   UNL     1       0.980  -6.583  -0.032  0.00  0.00    +0.173 C 
BRANCH  20  21
ATOM     21  S   UNL     1       1.343  -4.806  -0.024  0.00  0.00    -0.079 S 
BRANCH  21  24
ATOM     22  C   UNL     1      -1.413  -2.041   0.005  0.00  0.00    +0.030 C 
ATOM     23  N   UNL     1      -0.294  -2.698  -0.004  0.00  0.00    -0.233 NA
ATOM     24  C   UNL     1      -0.247  -4.046  -0.012  0.00  0.00    +0.181 C 
ATOM     25  N   UNL     1      -1.301  -4.838  -0.011  0.00  0.00    -0.155 NA
ATOM     26  C   UNL     1      -2.545  -4.354  -0.003  0.00  0.00    +0.244 C 
ATOM     27  O   UNL     1      -3.512  -5.090  -0.002  0.00  0.00    -0.273 OA
ATOM     28  C   UNL     1      -2.700  -2.844   0.013  0.00  0.00    +0.148 C 
BRANCH  22  29
ATOM     29  C   UNL     1      -1.433  -0.534   0.013  0.00  0.00    +0.051 C 
BRANCH  29  31
ATOM     30  C   UNL     1      -0.019   1.526   0.010  0.00  0.00    +0.004 C 
ATOM     31  C   UNL     1       0.002  -0.004   0.002  0.00  0.00    +0.002 C 
ENDBRANCH  29  31
ENDBRANCH  22  29
ENDBRANCH  21  24
ENDBRANCH  20  21
ENDBRANCH  16  20
ENDBRANCH   1  18
BRANCH   2  32
ATOM     32  C   UNL     1       2.444 -11.700  -0.068  0.00  0.00    +0.342 C 
ATOM     33  O   UNL     1       1.960 -12.068  -1.122  0.00  0.00    -0.245 OA
BRANCH  32  34
ATOM     34  O   UNL     1       1.915 -12.120   1.099  0.00  0.00    -0.461 OA
BRANCH  34  35
ATOM     35  C   UNL     1       0.788 -12.995   1.024  0.00  0.00    +0.229 C 
ATOM     36  C   UNL     1       0.331 -13.361   2.438  0.00  0.00    +0.048 C 
ENDBRANCH  34  35
ENDBRANCH  32  34
ENDBRANCH   2  32
TORSDOF 9
