REMARK  Name = ZINC12197392
REMARK  8 active torsions:
REMARK  status: ('A' for Active; 'I' for Inactive)
REMARK    1  A    between atoms: C_1  and  N_2
REMARK    2  A    between atoms: N_2  and  C_3
REMARK    3  A    between atoms: N_2  and  S_4
REMARK    4  A    between atoms: S_4  and  N_7
REMARK    5  A    between atoms: N_7  and  C_8
REMARK    6  A    between atoms: C_8  and  C_9
REMARK    7  A    between atoms: C_9  and  C_11
REMARK    8  A    between atoms: C_9  and  N_46
REMARK                            x       y       z     vdW  Elec       q    Type
REMARK                         _______ _______ _______ _____ _____    ______ ____
ROOT
ATOM      1  C   UNL     1       3.330  -3.116   2.280  0.00  0.00    -0.022 C 
ENDROOT
BRANCH   1   2
ATOM      2  C   UNL     1       3.001  -1.810   1.606  0.00  0.00    -0.056 A 
ATOM      3  C   UNL     1       3.916  -0.774   1.624  0.00  0.00    +0.006 A 
ATOM      4  C   UNL     1       3.618   0.427   1.007  0.00  0.00    +0.050 A 
ATOM      5  C   UNL     1       2.401   0.595   0.367  0.00  0.00    +0.166 A 
ATOM      6  C   UNL     1       1.479  -0.449   0.348  0.00  0.00    +0.166 A 
ATOM      7  C   UNL     1       1.784  -1.649   0.969  0.00  0.00    +0.051 A 
ATOM      8  O   UNL     1       0.371  -0.040  -0.336  0.00  0.00    -0.453 OA
ATOM      9  C   UNL     1       0.457   1.397  -0.383  0.00  0.00    +0.466 C 
ATOM     10  O   UNL     1       1.870   1.658  -0.305  0.00  0.00    -0.453 OA
ENDBRANCH   1   2
BRANCH   1  15
ATOM     11  C   UNL     1       5.106  -4.727   2.703  0.00  0.00    -0.078 C 
ATOM     12  C   UNL     1       6.372  -5.181   1.934  0.00  0.00    -0.020 C 
ATOM     13  C   UNL     1       6.055  -4.774   0.476  0.00  0.00    -0.020 C 
ATOM     14  C   UNL     1       4.983  -3.674   0.590  0.00  0.00    -0.078 C 
ATOM     15  N   UNL     1       4.758  -3.470   2.021  0.00  0.00    +0.385 N 
ATOM     16  H   UNL     1       5.360  -2.712   2.363  0.00  0.00    -0.081 HD
ENDBRANCH   1  15
BRANCH   1  17
ATOM     17  C   UNL     1       3.095  -2.986   3.787  0.00  0.00    +0.096 C 
BRANCH  17  18
ATOM     18  N   UNL     1       1.668  -2.779   4.042  0.00  0.00    -0.181 NA
ATOM     19  H   UNL     1       1.081  -2.504   3.320  0.00  0.00    +0.149 HD
BRANCH  18  20
ATOM     20  S   UNL     1       1.056  -3.013   5.563  0.00  0.00    +0.096 S 
ATOM     21  O   UNL     1      -0.330  -2.710   5.495  0.00  0.00    -0.141 OA
ATOM     22  O   UNL     1       1.540  -4.273   6.006  0.00  0.00    -0.141 OA
BRANCH  20  24
ATOM     23  C   UNL     1       1.091  -0.569   6.722  0.00  0.00    +0.132 C 
ATOM     24  N   UNL     1       1.742  -1.870   6.547  0.00  0.00    -0.173 NA
ATOM     25  C   UNL     1       2.998  -2.161   7.243  0.00  0.00    +0.132 C 
ENDBRANCH  20  24
ENDBRANCH  18  20
ENDBRANCH  17  18
ENDBRANCH   1  17
TORSDOF 6
