REMARK  Name = ZINC01042563
REMARK  5 active torsions:
REMARK  status: ('A' for Active; 'I' for Inactive)
REMARK    1  A    between atoms: C_6  and  S_7
REMARK    2  A    between atoms: S_7  and  C_8
REMARK    3  A    between atoms: C_8  and  C_9
REMARK    4  A    between atoms: N_11  and  S_12
REMARK    5  A    between atoms: S_12  and  C_15
REMARK                            x       y       z     vdW  Elec       q    Type
REMARK                         _______ _______ _______ _____ _____    ______ ____
ROOT
ATOM      1  C   UNL     1      -1.020   5.771  -1.968  0.00  0.00    +0.096 C 
ATOM      2  H   UNL     1      -2.821   5.057  -2.563  0.00  0.00    +0.157 HD
ATOM      3  N   UNL     1      -0.177   5.848  -0.890  0.00  0.00    -0.205 N 
ATOM      4  H   UNL     1       0.675   6.304  -0.973  0.00  0.00    +0.175 HD
ATOM      5  N   UNL     1      -2.160   5.141  -1.791  0.00  0.00    -0.389 N 
ATOM      6  H   UNL     1      -2.385   4.734  -0.876  0.00  0.00    +0.157 HD
ENDROOT
BRANCH   3   7
ATOM      7  S   UNL     1      -0.614   5.164   0.553  0.00  0.00    +0.073 S 
ATOM      8  O   UNL     1      -1.937   5.605   0.828  0.00  0.00    -0.150 OA
ATOM      9  O   UNL     1       0.465   5.386   1.451  0.00  0.00    -0.150 OA
BRANCH   7  10
ATOM     10  C   UNL     1      -0.706   3.423   0.298  0.00  0.00    +0.111 A 
ATOM     11  C   UNL     1       0.412   2.635   0.497  0.00  0.00    +0.049 A 
ATOM     12  C   UNL     1       0.340   1.268   0.297  0.00  0.00    +0.044 A 
ATOM     13  C   UNL     1      -0.851   0.690  -0.103  0.00  0.00    +0.040 A 
ATOM     14  C   UNL     1      -1.968   1.480  -0.308  0.00  0.00    +0.044 A 
ATOM     15  C   UNL     1      -1.897   2.846  -0.102  0.00  0.00    +0.049 A 
ATOM     16 CL   UNL     1      -3.462   0.755  -0.817  0.00  0.00    -0.083 Cl
ATOM     17 CL   UNL     1       1.745   0.279   0.546  0.00  0.00    -0.083 Cl
ENDBRANCH   7  10
ENDBRANCH   3   7
BRANCH   1  18
ATOM     18  C   UNL     1      -0.622   6.394  -3.281  0.00  0.00    +0.144 C 
BRANCH  18  19
ATOM     19  S   UNL     1      -1.938   6.125  -4.501  0.00  0.00    -0.118 S 
BRANCH  19  25
ATOM     20  C   UNL     1      -0.091   7.528  -5.952  0.00  0.00    +0.016 A 
ATOM     21  C   UNL     1       0.385   8.130  -7.100  0.00  0.00    +0.021 A 
ATOM     22  C   UNL     1      -0.377   8.120  -8.255  0.00  0.00    +0.041 A 
ATOM     23  C   UNL     1      -1.614   7.500  -8.266  0.00  0.00    +0.021 A 
ATOM     24  C   UNL     1      -2.093   6.891  -7.123  0.00  0.00    +0.016 A 
ATOM     25  C   UNL     1      -1.330   6.901  -5.961  0.00  0.00    +0.008 A 
ATOM     26 CL   UNL     1       0.222   8.884  -9.695  0.00  0.00    -0.084 Cl
ENDBRANCH  19  25
ENDBRANCH  18  19
ENDBRANCH   1  18
TORSDOF 5
