REMARK  Name = ZINC12372449
REMARK  7 active torsions:
REMARK  status: ('A' for Active; 'I' for Inactive)
REMARK    1  A    between atoms: C_1  and  C_2
REMARK    2  A    between atoms: C_3  and  N_9
REMARK    3  A    between atoms: C_15  and  C_17
REMARK    4  A    between atoms: C_15  and  C_18
REMARK    5  A    between atoms: N_26  and  C_29
REMARK    6  A    between atoms: C_30  and  C_33
REMARK    7  A    between atoms: C_31  and  N_32
REMARK                            x       y       z     vdW  Elec       q    Type
REMARK                         _______ _______ _______ _____ _____    ______ ____
ROOT
ATOM      1  N   UNL     1      -2.465   4.481   0.048  0.00  0.00    -0.260 N 
ATOM      2  C   UNL     1      -3.067   4.818  -1.136  0.00  0.00    +0.026 C 
ATOM      3  C   UNL     1      -4.007   5.787  -1.178  0.00  0.00    +0.037 C 
ATOM      4  C   UNL     1      -4.638   6.131  -2.385  0.00  0.00    +0.163 C 
ATOM      5  O   UNL     1      -5.470   7.017  -2.391  0.00  0.00    -0.292 OA
ATOM      6  C   UNL     1      -4.305   5.424  -3.670  0.00  0.00    +0.086 C 
ATOM      7  C   UNL     1      -3.839   4.000  -3.350  0.00  0.00    -0.023 C 
ATOM      8  C   UNL     1      -2.653   4.083  -2.387  0.00  0.00    +0.058 C 
ATOM      9  C   UNL     1      -4.980   3.222  -2.692  0.00  0.00    +0.011 C 
ATOM     10  C   UNL     1      -3.407   3.298  -4.638  0.00  0.00    +0.011 C 
ATOM     11  C   UNL     1      -4.407   6.527   0.072  0.00  0.00    +0.141 C 
ATOM     12  C   UNL     1      -3.844   7.915   0.066  0.00  0.00    -0.001 A 
ATOM     13  C   UNL     1      -2.543   8.371   0.058  0.00  0.00    +0.007 A 
ATOM     14  C   UNL     1      -2.359   9.749   0.055  0.00  0.00    +0.000 A 
ATOM     15  C   UNL     1      -3.431  10.618   0.061  0.00  0.00    +0.002 A 
ATOM     16  C   UNL     1      -4.742  10.166   0.070  0.00  0.00    +0.024 A 
ATOM     17  C   UNL     1      -4.940   8.785   0.072  0.00  0.00    +0.041 A 
ATOM     18  N   UNL     1      -6.123   8.068   0.079  0.00  0.00    -0.273 N 
ATOM     19  C   UNL     1      -5.908   6.736   0.079  0.00  0.00    +0.240 C 
ATOM     20  O   UNL     1      -6.757   5.869   0.083  0.00  0.00    -0.274 OA
ATOM     21  C   UNL     1      -7.453   8.682   0.086  0.00  0.00    +0.138 C 
ATOM     22  C   UNL     1      -3.990   5.786   1.308  0.00  0.00    +0.089 C 
ATOM     23  C   UNL     1      -3.050   4.804   1.251  0.00  0.00    +0.108 C 
ENDROOT
BRANCH   1  26
ATOM     24  C   UNL     1      -2.523   1.635   0.023  0.00  0.00    +0.047 C 
ATOM     25  C   UNL     1      -1.228   2.406   0.021  0.00  0.00    -0.010 A 
ATOM     26  C   UNL     1      -1.245   3.795   0.033  0.00  0.00    +0.044 A 
ATOM     27  C   UNL     1      -0.050   4.501   0.025  0.00  0.00    +0.024 A 
ATOM     28  C   UNL     1       1.153   3.822   0.011  0.00  0.00    +0.003 A 
ATOM     29  C   UNL     1       1.168   2.440   0.004  0.00  0.00    +0.020 A 
ATOM     30  C   UNL     1      -0.021   1.732   0.012  0.00  0.00    +0.046 A 
ATOM     31 CL   UNL     1       0.002  -0.004   0.002  0.00  0.00    -0.083 Cl
ENDBRANCH   1  26
BRANCH  23  32
ATOM     32  N   UNL     1      -2.681   4.138   2.395  0.00  0.00    -0.345 N 
ATOM     33  H   UNL     1      -2.008   3.440   2.354  0.00  0.00    +0.144 HD
ATOM     34  H   UNL     1      -3.093   4.365   3.243  0.00  0.00    +0.144 HD
ENDBRANCH  23  32
BRANCH  22  35
ATOM     35  C   UNL     1      -4.593   6.114   2.564  0.00  0.00    +0.100 C 
ATOM     36  N   UNL     1      -5.071   6.374   3.562  0.00  0.00    -0.191 NA
ENDBRANCH  22  35
TORSDOF 3
