REMARK  Name = ZINC05202834
REMARK  7 active torsions:
REMARK  status: ('A' for Active; 'I' for Inactive)
REMARK    1  A    between atoms: C_1  and  C_2
REMARK    2  A    between atoms: C_2  and  C_22
REMARK    3  A    between atoms: C_7  and  C_21
REMARK    4  A    between atoms: C_8  and  N_43
REMARK    5  A    between atoms: C_11  and  C_12
REMARK    6  A    between atoms: C_11  and  N_43
REMARK    7  A    between atoms: C_17  and  O_18
REMARK                            x       y       z     vdW  Elec       q    Type
REMARK                         _______ _______ _______ _____ _____    ______ ____
ROOT
ATOM      1  N   UNL     1       0.076   2.496   2.048  0.00  0.00    +0.384 N 
ATOM      2  H   UNL     1      -0.513   3.160   2.564  0.00  0.00    -0.085 HD
ATOM      3  H   UNL     1       0.709   3.011   1.425  0.00  0.00    -0.085 HD
ENDROOT
BRANCH   1  10
ATOM      4  C   UNL     1      -0.160   3.946  -0.325  0.00  0.00    +0.011 C 
ATOM      5  C   UNL     1      -1.317   3.000  -0.651  0.00  0.00    -0.028 C 
ATOM      6  C   UNL     1      -0.813   1.625  -1.216  0.00  0.00    -0.006 C 
ATOM      7  C   UNL     1      -2.140   0.806  -1.207  0.00  0.00    +0.004 C 
ATOM      8  C   UNL     1      -2.913   1.328   0.026  0.00  0.00    +0.006 C 
ATOM      9  C   UNL     1      -1.980   2.413   0.645  0.00  0.00    -0.039 C 
ATOM     10  C   UNL     1      -0.783   1.607   1.242  0.00  0.00    -0.065 C 
ATOM     11  C   UNL     1      -0.013   1.086   0.008  0.00  0.00    -0.011 C 
ATOM     12  C   UNL     1      -2.655   3.423   1.576  0.00  0.00    +0.010 C 
ATOM     13  C   UNL     1      -2.345   3.658  -1.573  0.00  0.00    +0.011 C 
ENDBRANCH   1  10
BRANCH   1  14
ATOM     14  C   UNL     1       0.874   1.707   3.006  0.00  0.00    -0.043 C 
BRANCH  14  15
ATOM     15  C   UNL     1       1.740   2.639   3.813  0.00  0.00    -0.020 A 
ATOM     16  C   UNL     1       3.075   2.795   3.490  0.00  0.00    +0.025 A 
ATOM     17  C   UNL     1       3.870   3.655   4.227  0.00  0.00    +0.043 A 
ATOM     18  C   UNL     1       3.333   4.351   5.296  0.00  0.00    +0.043 A 
ATOM     19  C   UNL     1       2.000   4.194   5.625  0.00  0.00    +0.084 A 
ATOM     20  C   UNL     1       1.200   3.335   4.883  0.00  0.00    +0.136 A 
ATOM     21 CL   UNL     1       1.327   5.067   6.966  0.00  0.00    -0.080 Cl
ATOM     22 CL   UNL     1       5.544   3.854   3.815  0.00  0.00    -0.083 Cl
BRANCH  20  23
ATOM     23  O   UNL     1      -0.112   3.178   5.206  0.00  0.00    -0.505 OA
ATOM     24  H   UNL     1      -0.278   2.467   5.840  0.00  0.00    +0.292 HD
ENDBRANCH  20  23
ENDBRANCH  14  15
ENDBRANCH   1  14
TORSDOF 4
