REMARK  Name = ZINC00938079
REMARK  5 active torsions:
REMARK  status: ('A' for Active; 'I' for Inactive)
REMARK    1  A    between atoms: C_1  and  C_2
REMARK    2  A    between atoms: C_2  and  C_4
REMARK    3  A    between atoms: C_2  and  O_23
REMARK    4  A    between atoms: C_4  and  C_6
REMARK    5  A    between atoms: C_4  and  N_8
REMARK                            x       y       z     vdW  Elec       q    Type
REMARK                         _______ _______ _______ _____ _____    ______ ____
ROOT
ATOM      1  N   UNL     1       0.010  -0.012  -2.444  0.00  0.00    -0.217 N 
ATOM      2  C   UNL     1      -1.271  -0.302  -2.737  0.00  0.00    +0.256 C 
ATOM      3  O   UNL     1      -2.011  -0.997  -2.070  0.00  0.00    -0.269 OA
ATOM      4  C   UNL     1      -1.627   0.369  -4.003  0.00  0.00    +0.071 A 
ATOM      5  C   UNL     1      -0.464   1.052  -4.418  0.00  0.00    +0.071 A 
ATOM      6  C   UNL     1      -0.477   1.784  -5.595  0.00  0.00    +0.074 A 
ATOM      7  C   UNL     1      -1.636   1.840  -6.359  0.00  0.00    +0.080 A 
ATOM      8  C   UNL     1      -2.776   1.170  -5.953  0.00  0.00    +0.080 A 
ATOM      9  C   UNL     1      -2.777   0.433  -4.775  0.00  0.00    +0.074 A 
ATOM     10 CL   UNL     1      -4.212  -0.404  -4.271  0.00  0.00    -0.081 Cl
ATOM     11 CL   UNL     1      -4.215   1.251  -6.920  0.00  0.00    -0.080 Cl
ATOM     12 CL   UNL     1      -1.655   2.757  -7.833  0.00  0.00    -0.080 Cl
ATOM     13 CL   UNL     1       0.949   2.628  -6.113  0.00  0.00    -0.081 Cl
ATOM     14  C   UNL     1       0.556   0.777  -3.386  0.00  0.00    +0.256 C 
ATOM     15  O   UNL     1       1.697   1.194  -3.388  0.00  0.00    -0.269 OA
ENDROOT
BRANCH   1  16
ATOM     16  C   UNL     1       0.718  -0.497  -1.257  0.00  0.00    +0.225 C 
BRANCH  16  17
ATOM     17  C   UNL     1       0.739  -2.004  -1.265  0.00  0.00    +0.379 C 
ATOM     18  O   UNL     1       0.215  -2.611  -2.170  0.00  0.00    -0.244 OA
ATOM     19  O   UNL     1       1.339  -2.673  -0.268  0.00  0.00    -0.244 OA
ENDBRANCH  16  17
BRANCH  16  21
ATOM     20  C   UNL     1      -0.019   1.526   0.010  0.00  0.00    +0.040 C 
ATOM     21  C   UNL     1       0.002  -0.004   0.002  0.00  0.00    +0.143 C 
BRANCH  21  22
ATOM     22  O   UNL     1       0.693  -0.477   1.160  0.00  0.00    -0.390 OA
ATOM     23  H   UNL     1       0.294  -0.202   1.996  0.00  0.00    +0.210 HD
ENDBRANCH  21  22
ENDBRANCH  16  21
ENDBRANCH   1  16
TORSDOF 4
