REMARK  Name = ZINC06148921
REMARK  9 active torsions:
REMARK  status: ('A' for Active; 'I' for Inactive)
REMARK    1  A    between atoms: C_1  and  C_2
REMARK    2  A    between atoms: C_7  and  C_9
REMARK    3  A    between atoms: C_7  and  C_25
REMARK    4  A    between atoms: C_7  and  N_68
REMARK    5  A    between atoms: C_13  and  O_23
REMARK    6  A    between atoms: C_14  and  O_21
REMARK    7  A    between atoms: O_21  and  C_22
REMARK    8  A    between atoms: O_23  and  C_24
REMARK    9  A    between atoms: N_29  and  C_30
REMARK                            x       y       z     vdW  Elec       q    Type
REMARK                         _______ _______ _______ _____ _____    ______ ____
ROOT
ATOM      1  C   UNL     1      -0.099   0.979   2.425  0.00  0.00    +0.039 C 
ENDROOT
BRANCH   1   2
ATOM      2  C   UNL     1      -0.747   1.579   3.646  0.00  0.00    +0.011 A 
ATOM      3  C   UNL     1       0.021   2.166   4.599  0.00  0.00    +0.017 A 
ATOM      4  C   UNL     1      -0.637   2.745   5.769  0.00  0.00    +0.002 A 
ATOM      5  C   UNL     1       0.105   3.367   6.782  0.00  0.00    +0.059 A 
ATOM      6  C   UNL     1      -0.544   3.898   7.874  0.00  0.00    +0.162 A 
ATOM      7  C   UNL     1      -1.937   3.818   7.975  0.00  0.00    +0.163 A 
ATOM      8  C   UNL     1      -2.679   3.205   6.982  0.00  0.00    +0.075 A 
ATOM      9  C   UNL     1      -2.040   2.664   5.873  0.00  0.00    +0.053 A 
ATOM     10  N   UNL     1      -2.762   2.049   4.871  0.00  0.00    -0.322 N 
ATOM     11  H   UNL     1      -3.758   1.992   4.945  0.00  0.00    +0.169 HD
ATOM     12  C   UNL     1      -2.147   1.524   3.797  0.00  0.00    +0.251 A 
ATOM     13  O   UNL     1      -2.817   0.989   2.931  0.00  0.00    -0.268 OA
BRANCH   7  14
ATOM     14  O   UNL     1      -2.566   4.345   9.057  0.00  0.00    -0.491 OA
ATOM     15  C   UNL     1      -3.990   4.230   9.100  0.00  0.00    +0.277 C 
ENDBRANCH   7  14
BRANCH   6  16
ATOM     16  O   UNL     1       0.172   4.503   8.860  0.00  0.00    -0.491 OA
ATOM     17  C   UNL     1       1.591   4.550   8.694  0.00  0.00    +0.277 C 
ENDBRANCH   6  16
ENDBRANCH   1   2
BRANCH   1  24
ATOM     18  C   UNL     1      -1.579   3.634  -2.415  0.00  0.00    +0.007 C 
ATOM     19  C   UNL     1      -0.788   3.123  -1.209  0.00  0.00    -0.018 C 
ATOM     20  C   UNL     1      -0.752   1.593  -1.232  0.00  0.00    -0.015 C 
ATOM     21  C   UNL     1      -0.013   1.086   0.008  0.00  0.00    -0.077 C 
ATOM     22  C   UNL     1      -0.705   3.026   1.284  0.00  0.00    -0.077 C 
ATOM     23  C   UNL     1      -1.465   3.591   0.082  0.00  0.00    -0.015 C 
ATOM     24  N   UNL     1      -0.728   1.550   1.216  0.00  0.00    +0.389 N 
ATOM     25  H   UNL     1      -1.704   1.234   1.167  0.00  0.00    -0.080 HD
ENDBRANCH   1  24
BRANCH   1  26
ATOM     26  C   UNL     1      -0.313  -0.513   2.425  0.00  0.00    +0.143 A 
ATOM     27  N   UNL     1      -1.427  -1.144   2.146  0.00  0.00    -0.115 NA
ATOM     28  N   UNL     1      -1.207  -2.409   2.253  0.00  0.00    -0.023 NA
ATOM     29  N   UNL     1       0.018  -2.601   2.602  0.00  0.00    -0.044 NA
ATOM     30  N   UNL     1       0.602  -1.456   2.718  0.00  0.00    -0.227 N 
BRANCH  30  31
ATOM     31  C   UNL     1       1.998  -1.226   3.098  0.00  0.00    +0.111 C 
ATOM     32  C   UNL     1       2.920  -1.907   2.084  0.00  0.00    +0.027 C 
ATOM     33  C   UNL     1       4.378  -1.667   2.480  0.00  0.00    +0.002 C 
ATOM     34  C   UNL     1       4.631  -2.249   3.872  0.00  0.00    +0.000 C 
ATOM     35  C   UNL     1       3.709  -1.568   4.886  0.00  0.00    +0.002 C 
ATOM     36  C   UNL     1       2.251  -1.808   4.489  0.00  0.00    +0.027 C 
ENDBRANCH  30  31
ENDBRANCH   1  26
TORSDOF 6
