REMARK  Name = ZINC09094460
REMARK  11 active torsions:
REMARK  status: ('A' for Active; 'I' for Inactive)
REMARK    1  A    between atoms: C_1  and  C_2
REMARK    2  A    between atoms: C_2  and  N_3
REMARK    3  A    between atoms: C_7  and  C_9
REMARK    4  A    between atoms: C_9  and  C_11
REMARK    5  A    between atoms: C_9  and  O_12
REMARK    6  A    between atoms: O_12  and  C_13
REMARK    7  A    between atoms: C_13  and  C_15
REMARK    8  A    between atoms: C_15  and  S_16
REMARK    9  A    between atoms: S_16  and  C_17
REMARK   10  A    between atoms: C_20  and  C_28
REMARK   11  A    between atoms: N_21  and  C_22
REMARK                            x       y       z     vdW  Elec       q    Type
REMARK                         _______ _______ _______ _____ _____    ______ ____
ROOT
ATOM      1  S   UNL     1      -1.448   2.336   0.022  0.00  0.00    -0.074 S 
ENDROOT
BRANCH   1   2
ATOM      2  C   UNL     1      -0.016   1.310   0.009  0.00  0.00    +0.197 A 
ATOM      3  N   UNL     1       0.002  -0.004   0.002  0.00  0.00    -0.122 NA
ATOM      4  N   UNL     1       1.214  -0.430  -0.012  0.00  0.00    -0.128 NA
ATOM      5  C   UNL     1       2.047   0.585  -0.014  0.00  0.00    +0.169 A 
ATOM      6  N   UNL     1       1.285   1.733  -0.001  0.00  0.00    -0.270 N 
BRANCH   6   7
ATOM      7  C   UNL     1       1.747   3.056   0.002  0.00  0.00    +0.051 A 
ATOM      8  C   UNL     1       2.450   3.550  -1.089  0.00  0.00    +0.026 A 
ATOM      9  C   UNL     1       2.898   4.857  -1.086  0.00  0.00    +0.002 A 
ATOM     10  C   UNL     1       2.658   5.669   0.007  0.00  0.00    +0.000 A 
ATOM     11  C   UNL     1       1.963   5.178   1.097  0.00  0.00    +0.002 A 
ATOM     12  C   UNL     1       1.507   3.874   1.098  0.00  0.00    +0.026 A 
ENDBRANCH   6   7
BRANCH   5  13
ATOM     13  C   UNL     1       3.523   0.510  -0.030  0.00  0.00    +0.020 A 
ATOM     14  C   UNL     1       4.286   1.639   0.276  0.00  0.00    +0.011 A 
ATOM     15  C   UNL     1       5.663   1.560   0.265  0.00  0.00    +0.001 A 
ATOM     16  C   UNL     1       6.289   0.369  -0.058  0.00  0.00    +0.000 A 
ATOM     17  C   UNL     1       5.539  -0.751  -0.367  0.00  0.00    +0.001 A 
ATOM     18  C   UNL     1       4.161  -0.689  -0.355  0.00  0.00    +0.011 A 
ENDBRANCH   5  13
ENDBRANCH   1   2
BRANCH   1  19
ATOM     19  C   UNL     1      -2.742   1.071   0.022  0.00  0.00    +0.197 C 
BRANCH  19  20
ATOM     20  C   UNL     1      -4.094   1.735   0.033  0.00  0.00    +0.318 C 
ATOM     21  O   UNL     1      -4.176   2.940   0.039  0.00  0.00    -0.250 OA
BRANCH  20  22
ATOM     22  O   UNL     1      -5.209   0.987   0.035  0.00  0.00    -0.452 OA
BRANCH  22  23
ATOM     23  C   UNL     1      -6.477   1.694   0.045  0.00  0.00    +0.259 C 
ATOM     24  C   UNL     1      -6.915   1.935   1.491  0.00  0.00    +0.062 C 
BRANCH  23  29
ATOM     25  N   UNL     1     -10.919   1.132  -1.705  0.00  0.00    -0.299 N 
ATOM     26  C   UNL     1      -9.685   0.630  -1.502  0.00  0.00    +0.306 C 
ATOM     27  O   UNL     1      -9.412  -0.488  -1.891  0.00  0.00    -0.252 OA
ATOM     28  N   UNL     1      -8.753   1.369  -0.868  0.00  0.00    -0.237 N 
ATOM     29  C   UNL     1      -7.519   0.868  -0.665  0.00  0.00    +0.261 C 
ATOM     30  O   UNL     1      -7.247  -0.248  -1.052  0.00  0.00    -0.271 OA
ATOM     31  H   UNL     1     -11.137   2.024  -1.395  0.00  0.00    +0.150 HD
ATOM     32  H   UNL     1      -8.971   2.262  -0.557  0.00  0.00    +0.159 HD
BRANCH  25  34
ATOM     33  C   UNL     1     -13.235   1.125  -2.493  0.00  0.00    +0.024 C 
ATOM     34  C   UNL     1     -11.932   0.328  -2.394  0.00  0.00    +0.102 C 
ENDBRANCH  25  34
ENDBRANCH  23  29
ENDBRANCH  22  23
ENDBRANCH  20  22
ENDBRANCH  19  20
ENDBRANCH   1  19
TORSDOF 9
