REMARK  Name = ZINC12979568
REMARK  5 active torsions:
REMARK  status: ('A' for Active; 'I' for Inactive)
REMARK    1  A    between atoms: C_1  and  C_2
REMARK    2  A    between atoms: C_2  and  C_4
REMARK    3  A    between atoms: C_2  and  N_20
REMARK    4  A    between atoms: C_10  and  C_15
REMARK    5  A    between atoms: C_26  and  C_28
REMARK                            x       y       z     vdW  Elec       q    Type
REMARK                         _______ _______ _______ _____ _____    ______ ____
ROOT
ATOM      1  C   UNL     1       0.249   1.577   0.386  0.00  0.00    -0.005 C 
ATOM      2  C   UNL     1       0.134   0.060   0.222  0.00  0.00    -0.004 C 
ENDROOT
BRANCH   2   3
ATOM      3  C   UNL     1      -1.304  -0.357   0.396  0.00  0.00    +0.097 A 
ATOM      4  N   UNL     1      -1.979   0.026   1.510  0.00  0.00    -0.312 N 
ATOM      5  H   UNL     1      -1.526   0.562   2.180  0.00  0.00    +0.170 HD
ATOM      6  C   UNL     1      -3.264  -0.325   1.704  0.00  0.00    +0.260 A 
ATOM      7  O   UNL     1      -3.856   0.027   2.709  0.00  0.00    -0.267 OA
ATOM      8  C   UNL     1      -3.924  -1.116   0.711  0.00  0.00    +0.080 A 
ATOM      9  C   UNL     1      -5.294  -1.616   0.691  0.00  0.00    +0.010 A 
ATOM     10  C   UNL     1      -5.702  -2.356  -0.371  0.00  0.00    +0.057 A 
ATOM     11  S   UNL     1      -4.255  -2.420  -1.409  0.00  0.00    -0.076 S 
ATOM     12  C   UNL     1      -3.147  -1.464  -0.406  0.00  0.00    +0.116 A 
ATOM     13  N   UNL     1      -1.880  -1.075  -0.530  0.00  0.00    -0.228 NA
BRANCH   9  14
ATOM     14  C   UNL     1      -6.220  -1.324   1.805  0.00  0.00    +0.021 A 
ATOM     15  C   UNL     1      -7.497  -0.832   1.760  0.00  0.00    +0.016 A 
ATOM     16  C   UNL     1      -8.174  -0.638   2.945  0.00  0.00    +0.008 A 
ATOM     17  C   UNL     1      -7.558  -0.940   4.116  0.00  0.00    +0.046 A 
ATOM     18  S   UNL     1      -5.966  -1.527   3.561  0.00  0.00    -0.097 S 
ENDBRANCH   9  14
ENDBRANCH   2   3
BRANCH   2  19
ATOM     19  N   UNL     1       0.596  -0.324  -1.119  0.00  0.00    +0.388 N 
ATOM     20  C   UNL     1       2.037  -0.066  -1.231  0.00  0.00    -0.059 C 
ATOM     21  C   UNL     1       2.542  -0.571  -2.586  0.00  0.00    +0.089 C 
ATOM     22  N   UNL     1       1.731   0.047  -3.646  0.00  0.00    -0.299 N 
ATOM     23  C   UNL     1       0.266  -0.023  -3.528  0.00  0.00    +0.089 C 
ATOM     24  C   UNL     1      -0.131   0.457  -2.128  0.00  0.00    -0.059 C 
ATOM     25  C   UNL     1       2.313   0.661  -4.696  0.00  0.00    +0.282 C 
ATOM     26  O   UNL     1       3.524   0.650  -4.812  0.00  0.00    -0.267 OA
ATOM     27  H   UNL     1       0.421  -1.307  -1.265  0.00  0.00    -0.081 HD
BRANCH  25  28
ATOM     28  C   UNL     1       1.486   1.342  -5.698  0.00  0.00    +0.189 A 
ATOM     29  C   UNL     1       1.945   2.110  -6.729  0.00  0.00    +0.054 A 
ATOM     30  C   UNL     1       0.816   2.559  -7.432  0.00  0.00    +0.042 A 
ATOM     31  C   UNL     1      -0.269   2.050  -6.807  0.00  0.00    +0.196 A 
ATOM     32  O   UNL     1       0.139   1.313  -5.766  0.00  0.00    -0.458 OA
ENDBRANCH  25  28
ENDBRANCH   2  19
TORSDOF 4
