REMARK  Name = ZINC06812327
REMARK  9 active torsions:
REMARK  status: ('A' for Active; 'I' for Inactive)
REMARK    1  A    between atoms: C_1  and  C_2
REMARK    2  A    between atoms: C_2  and  C_3
REMARK    3  A    between atoms: C_3  and  C_4
REMARK    4  A    between atoms: C_10  and  C_25
REMARK    5  A    between atoms: C_12  and  C_15
REMARK    6  A    between atoms: N_17  and  C_18
REMARK    7  A    between atoms: C_21  and  C_24
REMARK    8  A    between atoms: C_28  and  O_31
REMARK    9  A    between atoms: O_31  and  C_32
REMARK                            x       y       z     vdW  Elec       q    Type
REMARK                         _______ _______ _______ _____ _____    ______ ____
ROOT
ATOM      1  C   UNL     1       3.434   1.156  -1.212  0.00  0.00    +0.151 A 
ATOM      2  N   UNL     1       3.697   0.767  -2.429  0.00  0.00    -0.132 NA
ATOM      3  N   UNL     1       2.602   0.572  -3.079  0.00  0.00    -0.121 NA
ATOM      4  C   UNL     1       1.585   0.826  -2.303  0.00  0.00    +0.209 A 
ATOM      5  N   UNL     1       2.075   1.215  -1.089  0.00  0.00    -0.225 N 
ATOM      6  N   UNL     1       1.357   1.587   0.003  0.00  0.00    -0.272 N 
ATOM      7  C   UNL     1      -0.016   1.081   0.003  0.00  0.00    +0.140 C 
ATOM      8  C   UNL     1      -0.775   1.588  -1.230  0.00  0.00    +0.166 C 
ATOM      9  S   UNL     1      -0.134   0.703  -2.683  0.00  0.00    -0.069 S 
ATOM     10  H   UNL     1       1.836   1.334   0.854  0.00  0.00    +0.167 HD
ENDROOT
BRANCH   7  11
ATOM     11  C   UNL     1      -0.721   1.555   1.248  0.00  0.00    -0.024 A 
ATOM     12  C   UNL     1      -0.517   2.843   1.708  0.00  0.00    +0.009 A 
ATOM     13  C   UNL     1      -1.167   3.282   2.846  0.00  0.00    +0.046 A 
ATOM     14  C   UNL     1      -2.015   2.426   3.533  0.00  0.00    +0.120 A 
ATOM     15  C   UNL     1      -2.214   1.133   3.072  0.00  0.00    +0.046 A 
ATOM     16  C   UNL     1      -1.567   0.700   1.931  0.00  0.00    +0.009 A 
BRANCH  14  17
ATOM     17  O   UNL     1      -2.650   2.854   4.655  0.00  0.00    -0.495 OA
ATOM     18  C   UNL     1      -2.398   4.197   5.071  0.00  0.00    +0.277 C 
ENDBRANCH  14  17
ENDBRANCH   7  11
BRANCH   8  19
ATOM     19  C   UNL     1      -0.549   3.069  -1.394  0.00  0.00    +0.233 C 
ATOM     20  O   UNL     1       0.523   3.555  -1.102  0.00  0.00    -0.274 OA
ATOM     21  N   UNL     1      -1.538   3.854  -1.865  0.00  0.00    -0.285 N 
ATOM     22  H   UNL     1      -2.373   3.457  -2.162  0.00  0.00    +0.155 HD
BRANCH  21  23
ATOM     23  C   UNL     1      -1.363   5.240  -1.927  0.00  0.00    +0.033 A 
ATOM     24  C   UNL     1      -2.437   6.089  -1.696  0.00  0.00    +0.023 A 
ATOM     25  C   UNL     1      -2.259   7.458  -1.754  0.00  0.00    +0.005 A 
ATOM     26  C   UNL     1      -1.015   7.983  -2.050  0.00  0.00    -0.050 A 
ATOM     27  C   UNL     1       0.056   7.140  -2.285  0.00  0.00    +0.005 A 
ATOM     28  C   UNL     1      -0.114   5.771  -2.224  0.00  0.00    +0.023 A 
ATOM     29  C   UNL     1      -0.825   9.476  -2.117  0.00  0.00    +0.044 C 
ENDBRANCH  21  23
ENDBRANCH   8  19
BRANCH   1  30
ATOM     30  C   UNL     1       4.443   1.480  -0.140  0.00  0.00    +0.078 C 
BRANCH  30  32
ATOM     31  C   UNL     1       5.788   0.542   1.746  0.00  0.00    +0.004 C 
ATOM     32  C   UNL     1       4.764   0.214   0.657  0.00  0.00    +0.004 C 
ENDBRANCH  30  32
ENDBRANCH   1  30
TORSDOF 6
