REMARK  Name = ZINC39354616
REMARK  8 active torsions:
REMARK  status: ('A' for Active; 'I' for Inactive)
REMARK    1  A    between atoms: C_1  and  C_2
REMARK    2  A    between atoms: C_6  and  C_8
REMARK    3  A    between atoms: C_8  and  N_9
REMARK    4  A    between atoms: N_16  and  C_17
REMARK    5  A    between atoms: C_17  and  C_18
REMARK    6  A    between atoms: C_18  and  C_19
REMARK    7  A    between atoms: N_28  and  C_35
REMARK    8  A    between atoms: N_31  and  C_34
REMARK                            x       y       z     vdW  Elec       q    Type
REMARK                         _______ _______ _______ _____ _____    ______ ____
ROOT
ATOM      1  N   UNL     1       1.435  -2.967   2.961  0.00  0.00    -0.286 N 
ATOM      2  C   UNL     1       2.415  -4.005   2.648  0.00  0.00    +0.203 C 
ATOM      3  C   UNL     1       3.656  -3.068   2.498  0.00  0.00    +0.203 C 
ATOM      4  N   UNL     1       3.444  -2.167   3.606  0.00  0.00    -0.341 N 
ATOM      5  C   UNL     1       2.142  -2.118   3.817  0.00  0.00    +0.159 C 
ATOM      6  N   UNL     1       1.550  -1.324   4.771  0.00  0.00    -0.318 N 
ATOM      7  N   UNL     1       4.809  -3.920   2.389  0.00  0.00    -0.266 N 
ATOM      8  C   UNL     1       4.683  -4.971   1.528  0.00  0.00    +0.312 C 
ATOM      9  O   UNL     1       5.638  -5.696   1.332  0.00  0.00    -0.252 OA
ATOM     10  N   UNL     1       3.522  -5.225   0.889  0.00  0.00    -0.227 N 
ATOM     11  C   UNL     1       2.314  -4.751   1.359  0.00  0.00    +0.247 C 
ATOM     12  O   UNL     1       1.260  -4.923   0.787  0.00  0.00    -0.273 OA
ATOM     13  C   UNL     1       3.540  -6.028  -0.336  0.00  0.00    +0.143 C 
ATOM     14  C   UNL     1       6.037  -3.677   3.151  0.00  0.00    +0.136 C 
ATOM     15  H   UNL     1       0.586  -1.333   4.880  0.00  0.00    +0.149 HD
ATOM     16  H   UNL     1       4.127  -1.687   4.099  0.00  0.00    +0.164 HD
ENDROOT
BRANCH   1  17
ATOM     17  C   UNL     1       0.054  -2.845   2.489  0.00  0.00    +0.143 C 
BRANCH  17  23
ATOM     18  C   UNL     1      -2.085  -7.174   3.802  0.00  0.00    +0.044 C 
ATOM     19  C   UNL     1      -1.883  -5.698   4.025  0.00  0.00    -0.050 A 
ATOM     20  C   UNL     1      -2.536  -5.060   5.064  0.00  0.00    +0.003 A 
ATOM     21  C   UNL     1      -2.351  -3.706   5.269  0.00  0.00    +0.001 A 
ATOM     22  C   UNL     1      -1.513  -2.989   4.435  0.00  0.00    +0.005 A 
ATOM     23  C   UNL     1      -0.859  -3.626   3.397  0.00  0.00    -0.030 A 
ATOM     24  C   UNL     1      -1.041  -4.982   3.195  0.00  0.00    +0.008 A 
ENDBRANCH  17  23
ENDBRANCH   1  17
BRANCH   6  25
ATOM     25  C   UNL     1       2.376  -0.465   5.623  0.00  0.00    +0.109 C 
BRANCH  25  26
ATOM     26  C   UNL     1       1.477   0.308   6.591  0.00  0.00    +0.056 C 
BRANCH  26  27
ATOM     27  C   UNL     1       2.326   1.192   7.468  0.00  0.00    -0.021 A 
ATOM     28  C   UNL     1       2.806   2.538   7.144  0.00  0.00    +0.003 A 
ATOM     29  C   UNL     1       2.662   3.379   6.040  0.00  0.00    +0.010 A 
ATOM     30  C   UNL     1       3.250   4.613   6.047  0.00  0.00    +0.001 A 
ATOM     31  C   UNL     1       3.989   5.036   7.143  0.00  0.00    +0.002 A 
ATOM     32  C   UNL     1       4.143   4.222   8.243  0.00  0.00    +0.026 A 
ATOM     33  C   UNL     1       3.553   2.962   8.258  0.00  0.00    +0.047 A 
ATOM     34  N   UNL     1       3.522   1.941   9.181  0.00  0.00    -0.360 N 
ATOM     35  C   UNL     1       2.783   0.897   8.695  0.00  0.00    +0.087 A 
ATOM     36  H   UNL     1       3.957   1.960  10.048  0.00  0.00    +0.165 HD
ENDBRANCH  26  27
ENDBRANCH  25  26
ENDBRANCH   6  25
TORSDOF 5
