REMARK  Name = ZINC60533071
REMARK  7 active torsions:
REMARK  status: ('A' for Active; 'I' for Inactive)
REMARK    1  A    between atoms: C_1  and  C_2
REMARK    2  A    between atoms: C_7  and  C_8
REMARK    3  A    between atoms: C_11  and  S_13
REMARK    4  A    between atoms: S_13  and  C_14
REMARK    5  A    between atoms: C_14  and  C_15
REMARK    6  A    between atoms: C_17  and  C_21
REMARK    7  A    between atoms: C_18  and  C_20
REMARK                            x       y       z     vdW  Elec       q    Type
REMARK                         _______ _______ _______ _____ _____    ______ ____
ROOT
ATOM      1  C   UNL     1       0.026   0.017   2.492  0.00  0.00    +0.249 A 
ATOM      2  N   UNL     1       0.004   1.318   2.648  0.00  0.00    -0.106 NA
ATOM      3  N   UNL     1       0.015   1.598   3.904  0.00  0.00    -0.101 NA
ATOM      4  C   UNL     1       0.043   0.485   4.600  0.00  0.00    +0.278 A 
ATOM      5  O   UNL     1       0.045  -0.538   3.725  0.00  0.00    -0.411 OA
ENDROOT
BRANCH   1  12
ATOM      6  C   UNL     1      -0.018   1.503   0.010  0.00  0.00    +0.044 C 
ATOM      7  C   UNL     1       0.002  -0.004   0.002  0.00  0.00    -0.038 A 
ATOM      8  C   UNL     1       0.006  -0.689  -1.196  0.00  0.00    +0.004 A 
ATOM      9  C   UNL     1       0.025  -2.072  -1.205  0.00  0.00    +0.000 A 
ATOM     10  C   UNL     1       0.040  -2.778  -0.015  0.00  0.00    +0.001 A 
ATOM     11  C   UNL     1       0.036  -2.106   1.189  0.00  0.00    +0.013 A 
ATOM     12  C   UNL     1       0.023  -0.710   1.206  0.00  0.00    +0.041 A 
ENDBRANCH   1  12
BRANCH   4  13
ATOM     13  S   UNL     1       0.066   0.354   6.357  0.00  0.00    -0.056 S 
BRANCH  13  14
ATOM     14  C   UNL     1       0.042   2.077   6.926  0.00  0.00    +0.175 C 
BRANCH  14  15
ATOM     15  C   UNL     1       0.059   2.109   8.432  0.00  0.00    +0.206 A 
ATOM     16  N   UNL     1       1.126   2.150   9.178  0.00  0.00    -0.218 NA
ATOM     17  C   UNL     1       0.750   2.169  10.469  0.00  0.00    +0.079 A 
ATOM     18  C   UNL     1      -0.593   2.138  10.503  0.00  0.00    +0.125 A 
ATOM     19  O   UNL     1      -1.021   2.105   9.225  0.00  0.00    -0.444 OA
ATOM     20  C   UNL     1      -1.457   2.143  11.737  0.00  0.00    +0.088 C 
ATOM     21  C   UNL     1       1.669   2.216  11.662  0.00  0.00    +0.069 C 
ENDBRANCH  14  15
ENDBRANCH  13  14
ENDBRANCH   4  13
TORSDOF 4
