REMARK  Name = ZINC29604129
REMARK  7 active torsions:
REMARK  status: ('A' for Active; 'I' for Inactive)
REMARK    1  A    between atoms: C_1  and  S_2
REMARK    2  A    between atoms: S_2  and  C_3
REMARK    3  A    between atoms: C_7  and  C_9
REMARK    4  A    between atoms: N_11  and  C_12
REMARK    5  A    between atoms: C_12  and  C_13
REMARK    6  A    between atoms: C_13  and  C_14
REMARK    7  A    between atoms: C_14  and  N_15
REMARK                            x       y       z     vdW  Elec       q    Type
REMARK                         _______ _______ _______ _____ _____    ______ ____
ROOT
ATOM      1  C   UNL     1       2.422   1.185  -0.015  0.00  0.00    +0.106 C 
ENDROOT
BRANCH   1   4
ATOM      2  C   UNL     1      -0.014   1.211   0.009  0.00  0.00    +0.264 C 
ATOM      3  O   UNL     1       0.002  -0.004   0.002  0.00  0.00    -0.268 OA
ATOM      4  N   UNL     1       1.143   1.900   0.001  0.00  0.00    -0.310 N 
ATOM      5  H   UNL     1       1.129   3.000   0.007  0.00  0.00    +0.149 HD
BRANCH   2  10
ATOM      6  C   UNL     1      -2.492   3.915   0.036  0.00  0.00    +0.189 A 
ATOM      7  N   UNL     1      -3.654   3.274   0.038  0.00  0.00    -0.229 NA
ATOM      8  C   UNL     1      -3.702   1.954   0.031  0.00  0.00    +0.136 A 
ATOM      9  C   UNL     1      -2.515   1.232   0.021  0.00  0.00    +0.090 A 
ATOM     10  C   UNL     1      -1.309   1.935   0.019  0.00  0.00    +0.148 A 
ATOM     11  N   UNL     1      -1.339   3.266   0.032  0.00  0.00    -0.216 NA
ATOM     12 CL   UNL     1      -2.531  -0.504   0.010  0.00  0.00    -0.080 Cl
BRANCH   6  14
ATOM     13  C   UNL     1      -4.265   5.999   0.058  0.00  0.00    +0.093 C 
ATOM     14  S   UNL     1      -2.484   5.676   0.047  0.00  0.00    -0.089 S 
ENDBRANCH   6  14
ENDBRANCH   2  10
ENDBRANCH   1   4
BRANCH   1  15
ATOM     15  C   UNL     1       3.571   2.195  -0.020  0.00  0.00    +0.038 C 
BRANCH  15  16
ATOM     16  C   UNL     1       4.907   1.448  -0.037  0.00  0.00    +0.119 C 
BRANCH  16  17
ATOM     17  N   UNL     1       6.007   2.415  -0.042  0.00  0.00    -0.224 N 
ATOM     18  C   UNL     1       6.588   2.911   1.072  0.00  0.00    +0.246 C 
ATOM     19  O   UNL     1       6.311   2.651   2.223  0.00  0.00    -0.273 OA
ATOM     20  C   UNL     1       7.655   3.854   0.578  0.00  0.00    +0.113 C 
ATOM     21  C   UNL     1       9.044   3.417   1.060  0.00  0.00    +0.035 C 
ATOM     22  C   UNL     1       9.793   4.752   1.306  0.00  0.00    +0.003 C 
ATOM     23  C   UNL     1       8.684   5.668   1.883  0.00  0.00    +0.003 C 
ATOM     24  C   UNL     1       7.418   5.277   1.090  0.00  0.00    +0.035 C 
ATOM     25  N   UNL     1       7.556   3.788  -0.881  0.00  0.00    -0.285 N 
ATOM     26  C   UNL     1       6.566   2.914  -1.153  0.00  0.00    +0.309 C 
ATOM     27  O   UNL     1       6.217   2.615  -2.278  0.00  0.00    -0.252 OA
ATOM     28  H   UNL     1       8.229   4.394  -1.506  0.00  0.00    +0.151 HD
ENDBRANCH  16  17
ENDBRANCH  15  16
ENDBRANCH   1  15
TORSDOF 6
