REMARK  Name = ZINC24467532
REMARK  6 active torsions:
REMARK  status: ('A' for Active; 'I' for Inactive)
REMARK    1  A    between atoms: C_4  and  C_7
REMARK    2  A    between atoms: C_7  and  N_8
REMARK    3  A    between atoms: C_9  and  C_26
REMARK    4  A    between atoms: C_12  and  S_13
REMARK    5  A    between atoms: S_13  and  C_14
REMARK    6  A    between atoms: C_14  and  C_15
REMARK                            x       y       z     vdW  Elec       q    Type
REMARK                         _______ _______ _______ _____ _____    ______ ____
ROOT
ATOM      1  N   UNL     1      -4.225   3.715   2.408  0.00  0.00    -0.301 N 
ATOM      2  C   UNL     1      -5.257   4.300   1.727  0.00  0.00    +0.137 A 
ATOM      3  N   UNL     1      -5.009   4.164   0.456  0.00  0.00    -0.133 NA
ATOM      4  N   UNL     1      -3.897   3.543   0.287  0.00  0.00    -0.122 NA
ATOM      5  C   UNL     1      -3.370   3.247   1.452  0.00  0.00    +0.192 A 
ENDROOT
BRANCH   2   6
ATOM      6  C   UNL     1      -6.462   4.971   2.336  0.00  0.00    +0.057 C 
ATOM      7  C   UNL     1      -7.599   5.371   1.393  0.00  0.00    +0.012 C 
ATOM      8  C   UNL     1      -6.693   6.445   2.000  0.00  0.00    +0.012 C 
ENDBRANCH   2   6
BRANCH   1   9
ATOM      9  C   UNL     1      -4.068   3.615   3.861  0.00  0.00    +0.160 C 
BRANCH   9  13
ATOM     10  C   UNL     1      -1.957   7.037   5.304  0.00  0.00    +0.000 A 
ATOM     11  C   UNL     1      -3.336   7.060   5.222  0.00  0.00    +0.000 A 
ATOM     12  C   UNL     1      -4.020   5.953   4.755  0.00  0.00    +0.005 A 
ATOM     13  C   UNL     1      -3.323   4.822   4.370  0.00  0.00    -0.028 A 
ATOM     14  C   UNL     1      -1.944   4.798   4.457  0.00  0.00    +0.005 A 
ATOM     15  C   UNL     1      -1.260   5.907   4.919  0.00  0.00    +0.000 A 
ENDBRANCH   9  13
ENDBRANCH   1   9
BRANCH   5  16
ATOM     16  S   UNL     1      -1.851   2.398   1.730  0.00  0.00    -0.081 S 
BRANCH  16  17
ATOM     17  C   UNL     1      -1.333   2.113   0.020  0.00  0.00    +0.113 C 
BRANCH  17  18
ATOM     18  C   UNL     1      -0.017   1.379   0.010  0.00  0.00    -0.020 A 
ATOM     19  C   UNL     1       1.170   2.088   0.002  0.00  0.00    +0.055 A 
ATOM     20  C   UNL     1       2.382   1.415  -0.013  0.00  0.00    +0.162 A 
ATOM     21  C   UNL     1       2.401   0.025  -0.019  0.00  0.00    +0.163 A 
ATOM     22  C   UNL     1       1.208  -0.681  -0.012  0.00  0.00    +0.065 A 
ATOM     23  C   UNL     1       0.002  -0.004   0.002  0.00  0.00    +0.026 A 
ATOM     24 BR   UNL     1      -1.623  -0.970   0.010  0.00  0.00    -0.050 Br
ATOM     25  O   UNL     1       3.580  -0.655  -0.029  0.00  0.00    -0.485 OA
ATOM     26  C   UNL     1       4.746   0.083  -0.411  0.00  0.00    +0.270 C 
ATOM     27  C   UNL     1       4.734   1.423   0.338  0.00  0.00    +0.270 C 
ATOM     28  O   UNL     1       3.542   2.128  -0.025  0.00  0.00    -0.485 OA
ENDBRANCH  17  18
ENDBRANCH  16  17
ENDBRANCH   5  16
TORSDOF 6
