REMARK  Name = ZINC40336630
REMARK  6 active torsions:
REMARK  status: ('A' for Active; 'I' for Inactive)
REMARK    1  A    between atoms: C_1  and  C_2
REMARK    2  A    between atoms: C_2  and  C_3
REMARK    3  A    between atoms: C_6  and  N_9
REMARK    4  A    between atoms: N_9  and  C_10
REMARK    5  A    between atoms: C_11  and  C_13
REMARK    6  A    between atoms: C_15  and  N_21
REMARK                            x       y       z     vdW  Elec       q    Type
REMARK                         _______ _______ _______ _____ _____    ______ ____
ROOT
ATOM      1  N   UNL     1       1.536  -2.634   4.849  0.00  0.00    -0.298 N 
ATOM      2  C   UNL     1       2.906  -2.216   5.158  0.00  0.00    +0.132 C 
ATOM      3  C   UNL     1       0.896  -3.500   5.659  0.00  0.00    +0.247 C 
ATOM      4  O   UNL     1      -0.198  -3.929   5.348  0.00  0.00    -0.270 OA
ENDROOT
BRANCH   3   5
ATOM      5  C   UNL     1       1.526  -3.929   6.926  0.00  0.00    +0.040 A 
ATOM      6  C   UNL     1       2.304  -3.032   7.660  0.00  0.00    +0.037 A 
ATOM      7  C   UNL     1       2.891  -3.440   8.847  0.00  0.00    +0.045 A 
ATOM      8  C   UNL     1       2.704  -4.741   9.304  0.00  0.00    +0.080 A 
ATOM      9  C   UNL     1       1.932  -5.630   8.576  0.00  0.00    +0.062 A 
ATOM     10  C   UNL     1       1.338  -5.230   7.396  0.00  0.00    +0.034 A 
ATOM     11 CL   UNL     1       1.704  -7.252   9.154  0.00  0.00    -0.082 Cl
ATOM     12 CL   UNL     1       3.441  -5.249  10.791  0.00  0.00    -0.080 Cl
BRANCH   7  13
ATOM     13  N   UNL     1       3.671  -2.545   9.584  0.00  0.00    -0.357 N 
ATOM     14  H   UNL     1       3.802  -1.639   9.265  0.00  0.00    +0.142 HD
ATOM     15  H   UNL     1       4.082  -2.831  10.415  0.00  0.00    +0.142 HD
ENDBRANCH   7  13
ENDBRANCH   3   5
BRANCH   1  19
ATOM     16  C   UNL     1       0.861  -0.425   1.262  0.00  0.00    -0.011 C 
ATOM     17  C   UNL     1       0.066  -0.038   2.511  0.00  0.00    +0.005 C 
ATOM     18  C   UNL     1       0.770  -0.586   3.754  0.00  0.00    +0.023 C 
ATOM     19  C   UNL     1       0.861  -2.110   3.659  0.00  0.00    +0.076 C 
ATOM     20  C   UNL     1       1.656  -2.496   2.410  0.00  0.00    +0.023 C 
ATOM     21  C   UNL     1       0.952  -1.949   1.167  0.00  0.00    +0.005 C 
BRANCH  16  23
ATOM     22  C   UNL     1       0.175   1.652   0.054  0.00  0.00    +0.004 C 
ATOM     23  C   UNL     1       0.156   0.122   0.019  0.00  0.00    -0.000 C 
ENDBRANCH  16  23
ENDBRANCH   1  19
TORSDOF 4
