REMARK  Name = ZINC11855712
REMARK  3 active torsions:
REMARK  status: ('A' for Active; 'I' for Inactive)
REMARK    1  A    between atoms: C_3  and  C_6
REMARK    2  A    between atoms: C_8  and  N_22
REMARK    3  A    between atoms: C_23  and  C_25
REMARK                            x       y       z     vdW  Elec       q    Type
REMARK                         _______ _______ _______ _____ _____    ______ ____
ROOT
ATOM      1  C   UNL     1      -1.828   9.328  -0.378  0.00  0.00    +0.102 A 
ATOM      2  C   UNL     1      -1.585   7.990  -0.002  0.00  0.00    +0.074 A 
ATOM      3  C   UNL     1      -2.131   7.187  -0.950  0.00  0.00    +0.132 A 
ATOM      4  N   UNL     1      -2.698   7.991  -1.898  0.00  0.00    -0.185 N 
ATOM      5  N   UNL     1      -2.498   9.322  -1.512  0.00  0.00    -0.162 NA
ATOM      6  C   UNL     1      -3.355   7.565  -3.036  0.00  0.00    +0.234 A 
ATOM      7  N   UNL     1      -3.875   8.486  -3.890  0.00  0.00    -0.291 N 
ATOM      8  H   UNL     1      -3.785   9.433  -3.700  0.00  0.00    +0.172 HD
ATOM      9  C   UNL     1      -4.513   8.076  -5.007  0.00  0.00    +0.256 A 
ATOM     10  O   UNL     1      -4.982   8.888  -5.787  0.00  0.00    -0.267 OA
ATOM     11  C   UNL     1      -4.632   6.694  -5.251  0.00  0.00    +0.038 A 
ATOM     12  C   UNL     1      -4.096   5.816  -4.357  0.00  0.00    +0.053 A 
ATOM     13  N   UNL     1      -3.470   6.277  -3.271  0.00  0.00    -0.217 NA
ATOM     14  C   UNL     1      -4.340   4.396  -4.818  0.00  0.00    +0.056 C 
ATOM     15  C   UNL     1      -5.463   4.502  -5.872  0.00  0.00    +0.011 C 
ATOM     16  C   UNL     1      -5.285   5.946  -6.391  0.00  0.00    +0.043 C 
ENDROOT
BRANCH   1  19
ATOM     17  C   UNL     1      -1.112  12.808   0.931  0.00  0.00    +0.008 A 
ATOM     18  C   UNL     1      -1.604  11.850   0.071  0.00  0.00    +0.018 A 
ATOM     19  C   UNL     1      -1.405  10.530   0.373  0.00  0.00    +0.039 A 
ATOM     20  S   UNL     1      -0.507  10.636   1.912  0.00  0.00    -0.095 S 
ATOM     21  C   UNL     1      -0.447  12.415   2.047  0.00  0.00    +0.046 A 
ENDBRANCH   1  19
BRANCH   3  22
ATOM     22  N   UNL     1      -2.112   5.794  -0.958  0.00  0.00    -0.270 N 
ATOM     23  C   UNL     1      -1.510   5.123   0.044  0.00  0.00    +0.224 C 
ATOM     24  O   UNL     1      -0.984   5.731   0.952  0.00  0.00    -0.275 OA
ATOM     25  H   UNL     1      -2.533   5.307  -1.684  0.00  0.00    +0.156 HD
BRANCH  23  26
ATOM     26  C   UNL     1      -1.490   3.616   0.036  0.00  0.00    +0.048 C 
ATOM     27  C   UNL     1      -0.773   3.123  -1.223  0.00  0.00    +0.019 C 
ATOM     28  C   UNL     1      -0.753   1.593  -1.232  0.00  0.00    -0.009 C 
ATOM     29  C   UNL     1      -0.013   1.086   0.008  0.00  0.00    +0.007 C 
ATOM     30  C   UNL     1      -0.729   1.579   1.267  0.00  0.00    -0.009 C 
ATOM     31  C   UNL     1      -0.750   3.109   1.275  0.00  0.00    +0.019 C 
ATOM     32  C   UNL     1      -2.164   1.050   1.278  0.00  0.00    +0.007 C 
ATOM     33  C   UNL     1      -2.904   1.556   0.038  0.00  0.00    -0.009 C 
ATOM     34  C   UNL     1      -2.188   1.063  -1.221  0.00  0.00    +0.007 C 
ATOM     35  C   UNL     1      -2.925   3.086   0.047  0.00  0.00    +0.019 C 
ENDBRANCH  23  26
ENDBRANCH   3  22
TORSDOF 3
