REMARK  Name = ZINC12293638
REMARK  6 active torsions:
REMARK  status: ('A' for Active; 'I' for Inactive)
REMARK    1  A    between atoms: C_1  and  C_2
REMARK    2  A    between atoms: C_8  and  O_29
REMARK    3  A    between atoms: C_17  and  C_18
REMARK    4  A    between atoms: C_17  and  N_53
REMARK    5  A    between atoms: C_18  and  C_20
REMARK    6  A    between atoms: C_18  and  O_28
REMARK                            x       y       z     vdW  Elec       q    Type
REMARK                         _______ _______ _______ _____ _____    ______ ____
ROOT
ATOM      1  C   UNL     1      -0.859   2.032   5.659  0.00  0.00    +0.044 C 
ATOM      2  C   UNL     1      -1.422   2.026   4.261  0.00  0.00    -0.050 A 
ATOM      3  C   UNL     1      -2.701   2.497   4.029  0.00  0.00    +0.007 A 
ATOM      4  C   UNL     1      -3.215   2.493   2.748  0.00  0.00    +0.046 A 
ATOM      5  C   UNL     1      -2.449   2.018   1.688  0.00  0.00    +0.127 A 
ATOM      6  C   UNL     1      -1.171   1.544   1.924  0.00  0.00    +0.023 A 
ATOM      7  C   UNL     1      -0.660   1.551   3.212  0.00  0.00    +0.013 A 
ATOM      8  C   UNL     1      -0.310   1.014   0.805  0.00  0.00    +0.152 C 
ATOM      9  C   UNL     1      -0.855   1.504  -0.538  0.00  0.00    +0.084 C 
ATOM     10  C   UNL     1      -2.365   1.248  -0.571  0.00  0.00    +0.110 C 
ATOM     11  O   UNL     1      -2.985   2.042   0.440  0.00  0.00    -0.485 OA
ATOM     12  C   UNL     1      -2.918   1.633  -1.944  0.00  0.00    +0.029 C 
ATOM     13  C   UNL     1      -4.414   1.316  -1.995  0.00  0.00    -0.075 C 
ATOM     14  C   UNL     1      -4.144  -0.495  -0.407  0.00  0.00    -0.075 C 
ATOM     15  C   UNL     1      -2.639  -0.233  -0.308  0.00  0.00    +0.029 C 
ATOM     16  N   UNL     1      -4.606  -0.132  -1.764  0.00  0.00    +0.382 N 
ATOM     17  H   UNL     1      -4.055  -0.655  -2.454  0.00  0.00    -0.082 HD
ENDROOT
BRANCH   8  18
ATOM     18  O   UNL     1       1.030   1.481   0.974  0.00  0.00    -0.387 OA
ATOM     19  H   UNL     1       1.440   1.206   1.806  0.00  0.00    +0.210 HD
ENDBRANCH   8  18
BRANCH  16  20
ATOM     20  C   UNL     1      -6.032  -0.484  -1.922  0.00  0.00    -0.042 C 
BRANCH  20  21
ATOM     21  C   UNL     1      -6.141  -1.993  -2.148  0.00  0.00    +0.128 C 
BRANCH  21  22
ATOM     22  C   UNL     1      -7.593  -2.381  -2.258  0.00  0.00    -0.019 A 
ATOM     23  C   UNL     1      -8.245  -2.280  -3.473  0.00  0.00    +0.007 A 
ATOM     24  C   UNL     1      -9.575  -2.641  -3.576  0.00  0.00    +0.022 A 
ATOM     25  C   UNL     1     -10.258  -3.093  -2.461  0.00  0.00    +0.059 A 
ATOM     26  C   UNL     1      -9.607  -3.188  -1.243  0.00  0.00    +0.060 A 
ATOM     27  C   UNL     1      -8.274  -2.832  -1.143  0.00  0.00    +0.027 A 
ATOM     28 CL   UNL     1     -10.462  -3.755   0.158  0.00  0.00    -0.082 Cl
ATOM     29 CL   UNL     1     -11.931  -3.540  -2.588  0.00  0.00    -0.082 Cl
ENDBRANCH  21  22
BRANCH  21  30
ATOM     30  O   UNL     1      -5.462  -2.345  -3.355  0.00  0.00    -0.389 OA
ATOM     31  H   UNL     1      -5.814  -1.911  -4.145  0.00  0.00    +0.210 HD
ENDBRANCH  21  30
ENDBRANCH  20  21
ENDBRANCH  16  20
TORSDOF 5
