REMARK  Name = ZINC20343738
REMARK  6 active torsions:
REMARK  status: ('A' for Active; 'I' for Inactive)
REMARK    1  A    between atoms: C_1  and  C_2
REMARK    2  A    between atoms: N_9  and  C_10
REMARK    3  A    between atoms: C_12  and  C_18
REMARK    4  A    between atoms: C_12  and  C_19
REMARK    5  A    between atoms: C_14  and  C_16
REMARK    6  A    between atoms: C_14  and  C_17
REMARK                            x       y       z     vdW  Elec       q    Type
REMARK                         _______ _______ _______ _____ _____    ______ ____
ROOT
ATOM      1  C   UNL     1      -1.681  -0.638   8.063  0.00  0.00    +0.053 C 
ATOM      2  C   UNL     1      -1.361  -0.210   6.654  0.00  0.00    +0.007 A 
ATOM      3  C   UNL     1      -0.331   0.553   6.223  0.00  0.00    +0.058 A 
ATOM      4  C   UNL     1      -0.260   0.807   4.855  0.00  0.00    +0.140 A 
ATOM      5  N   UNL     1       0.706   1.538   4.337  0.00  0.00    -0.283 NA
ATOM      6  N   UNL     1      -1.248   0.255   4.071  0.00  0.00    -0.237 N 
ATOM      7  S   UNL     1      -2.229  -0.571   5.200  0.00  0.00    -0.008 S 
ATOM      8  C   UNL     1      -1.410   0.351   2.705  0.00  0.00    +0.184 C 
ATOM      9  N   UNL     1      -0.934  -0.578   1.925  0.00  0.00    -0.355 N 
ATOM     10  N   UNL     1      -2.074   1.427   2.165  0.00  0.00    -0.302 N 
ATOM     11  C   UNL     1      -1.866   1.742   0.769  0.00  0.00    +0.108 C 
ATOM     12  C   UNL     1      -0.668   2.703   0.621  0.00  0.00    +0.019 C 
ATOM     13  C   UNL     1      -1.022   4.040   1.121  0.00  0.00    +0.002 C 
ATOM     14  C   UNL     1      -1.362   4.086   2.608  0.00  0.00    +0.002 C 
ATOM     15  C   UNL     1      -2.817   3.732   2.799  0.00  0.00    +0.019 C 
ATOM     16  C   UNL     1      -2.966   2.218   3.036  0.00  0.00    +0.108 C 
ATOM     17  H   UNL     1       1.391   1.915   4.912  0.00  0.00    +0.188 HD
ATOM     18  H   UNL     1      -1.071  -1.638   2.186  0.00  0.00    +0.163 HD
ENDROOT
BRANCH   9  19
ATOM     19  C   UNL     1      -0.216  -0.211   0.699  0.00  0.00    +0.079 C 
ATOM     20  C   UNL     1      -0.813  -0.975  -0.482  0.00  0.00    +0.011 C 
ATOM     21  C   UNL     1      -0.070  -0.627  -1.770  0.00  0.00    -0.071 C 
ATOM     22  N   UNL     1       1.368  -0.725  -1.636  0.00  0.00    +0.386 N 
ATOM     23  C   UNL     1       2.023  -0.256  -0.432  0.00  0.00    -0.071 C 
ATOM     24  C   UNL     1       1.254  -0.606   0.839  0.00  0.00    +0.011 C 
ATOM     25  C   UNL     1       3.408  -0.935  -0.341  0.00  0.00    -0.010 C 
ATOM     26  C   UNL     1       2.263   1.257  -0.486  0.00  0.00    -0.010 C 
ATOM     27  C   UNL     1      -0.523  -1.631  -2.854  0.00  0.00    -0.010 C 
ATOM     28  C   UNL     1      -0.489   0.770  -2.242  0.00  0.00    -0.010 C 
ATOM     29  H   UNL     1       1.673  -1.779  -1.707  0.00  0.00    -0.084 HD
ATOM     30  H   UNL     1       1.851  -0.149  -2.439  0.00  0.00    -0.084 HD
ENDBRANCH   9  19
TORSDOF 1
