REMARK  Name = ZINC12329827
REMARK  6 active torsions:
REMARK  status: ('A' for Active; 'I' for Inactive)
REMARK    1  A    between atoms: C_6  and  C_7
REMARK    2  A    between atoms: C_7  and  C_9
REMARK    3  A    between atoms: C_7  and  O_27
REMARK    4  A    between atoms: C_9  and  N_51
REMARK    5  A    between atoms: C_16  and  O_26
REMARK    6  A    between atoms: C_20  and  O_25
REMARK                            x       y       z     vdW  Elec       q    Type
REMARK                         _______ _______ _______ _____ _____    ______ ____
ROOT
ATOM      1  C   UNL     1      -1.048   2.984  -1.081  0.00  0.00    -0.075 C 
ATOM      2  C   UNL     1      -1.791   3.429  -2.343  0.00  0.00    +0.029 C 
ATOM      3  C   UNL     1      -0.862   3.298  -3.550  0.00  0.00    +0.110 C 
ATOM      4  C   UNL     1      -0.373   1.853  -3.661  0.00  0.00    +0.029 C 
ATOM      5  C   UNL     1       0.329   1.454  -2.360  0.00  0.00    -0.075 C 
ATOM      6  C   UNL     1      -1.623   3.679  -4.825  0.00  0.00    +0.084 C 
ATOM      7  C   UNL     1      -2.194   5.088  -4.641  0.00  0.00    +0.152 C 
ATOM      8  C   UNL     1      -1.119   6.007  -4.119  0.00  0.00    +0.026 A 
ATOM      9  C   UNL     1      -1.302   7.375  -4.232  0.00  0.00    +0.055 A 
ATOM     10  C   UNL     1      -0.339   8.251  -3.756  0.00  0.00    +0.117 A 
ATOM     11  C   UNL     1       0.812   7.755  -3.162  0.00  0.00    +0.049 A 
ATOM     12  C   UNL     1       0.996   6.392  -3.050  0.00  0.00    +0.049 A 
ATOM     13  C   UNL     1       0.031   5.512  -3.530  0.00  0.00    +0.127 A 
ATOM     14  O   UNL     1       0.252   4.176  -3.404  0.00  0.00    -0.485 OA
ATOM     15  N   UNL     1      -0.630   1.575  -1.242  0.00  0.00    +0.382 N 
ATOM     16  H   UNL     1      -1.458   1.004  -1.450  0.00  0.00    -0.082 HD
ENDROOT
BRANCH  10  17
ATOM     17  O   UNL     1      -0.523   9.593  -3.869  0.00  0.00    -0.507 OA
ATOM     18  H   UNL     1      -0.175   9.970  -4.689  0.00  0.00    +0.292 HD
ENDBRANCH  10  17
BRANCH   7  19
ATOM     19  O   UNL     1      -2.669   5.575  -5.897  0.00  0.00    -0.387 OA
ATOM     20  H   UNL     1      -3.048   6.464  -5.856  0.00  0.00    +0.210 HD
ENDBRANCH   7  19
BRANCH  15  21
ATOM     21  C   UNL     1      -0.013   1.086   0.008  0.00  0.00    -0.042 C 
BRANCH  21  22
ATOM     22  C   UNL     1       0.201  -0.425  -0.106  0.00  0.00    +0.128 C 
BRANCH  22  28
ATOM     23  C   UNL     1       0.009  -1.267   2.243  0.00  0.00    +0.007 A 
ATOM     24  C   UNL     1       0.573  -1.748   3.410  0.00  0.00    +0.020 A 
ATOM     25  C   UNL     1       1.945  -1.895   3.506  0.00  0.00    +0.041 A 
ATOM     26  C   UNL     1       2.752  -1.565   2.431  0.00  0.00    +0.020 A 
ATOM     27  C   UNL     1       2.187  -1.090   1.263  0.00  0.00    +0.007 A 
ATOM     28  C   UNL     1       0.816  -0.943   1.168  0.00  0.00    -0.021 A 
ATOM     29 CL   UNL     1       2.654  -2.492   4.973  0.00  0.00    -0.084 Cl
ENDBRANCH  22  28
BRANCH  22  30
ATOM     30  O   UNL     1      -1.057  -1.068  -0.324  0.00  0.00    -0.389 OA
ATOM     31  H   UNL     1      -1.700  -0.924   0.383  0.00  0.00    +0.210 HD
ENDBRANCH  22  30
ENDBRANCH  21  22
ENDBRANCH  15  21
TORSDOF 6
