REMARK  Name = ZINC13692101
REMARK  10 active torsions:
REMARK  status: ('A' for Active; 'I' for Inactive)
REMARK    1  A    between atoms: C_1  and  C_2
REMARK    2  A    between atoms: C_2  and  C_35
REMARK    3  A    between atoms: C_4  and  N_10
REMARK    4  A    between atoms: C_6  and  C_8
REMARK    5  A    between atoms: C_6  and  C_9
REMARK    6  A    between atoms: C_20  and  C_23
REMARK    7  A    between atoms: C_26  and  O_31
REMARK    8  A    between atoms: C_27  and  O_29
REMARK    9  A    between atoms: O_29  and  C_30
REMARK   10  A    between atoms: O_31  and  C_32
REMARK                            x       y       z     vdW  Elec       q    Type
REMARK                         _______ _______ _______ _____ _____    ______ ____
ROOT
ATOM      1  N   UNL     1       2.616  -0.819  -2.627  0.00  0.00    -0.263 NA
ATOM      2  C   UNL     1       4.058  -0.560  -2.743  0.00  0.00    +0.130 C 
ATOM      3  C   UNL     1       4.601  -1.260  -3.962  0.00  0.00    +0.051 A 
ATOM      4  C   UNL     1       3.890  -2.277  -4.573  0.00  0.00    +0.130 A 
ATOM      5  C   UNL     1       4.404  -2.921  -5.699  0.00  0.00    +0.047 A 
ATOM      6  C   UNL     1       5.614  -2.555  -6.215  0.00  0.00    +0.019 A 
ATOM      7  C   UNL     1       6.339  -1.529  -5.611  0.00  0.00    +0.065 A 
ATOM      8  C   UNL     1       5.836  -0.876  -4.472  0.00  0.00    +0.146 A 
ATOM      9  O   UNL     1       6.547   0.103  -3.879  0.00  0.00    -0.462 OA
ATOM     10  C   UNL     1       7.576   0.693  -4.491  0.00  0.00    +0.208 A 
ATOM     11  C   UNL     1       8.174   0.171  -5.594  0.00  0.00    +0.064 A 
ATOM     12  C   UNL     1       7.646  -1.095  -6.139  0.00  0.00    +0.200 A 
ATOM     13  O   UNL     1       8.253  -1.741  -6.976  0.00  0.00    -0.286 OA
ATOM     14  O   UNL     1       2.680  -2.664  -4.091  0.00  0.00    -0.476 OA
ATOM     15  C   UNL     1       2.348  -2.261  -2.760  0.00  0.00    +0.319 C 
ENDROOT
BRANCH   1  19
ATOM     16  C   UNL     1      -0.019   1.528   0.010  0.00  0.00    -0.010 C 
ATOM     17  C   UNL     1       0.002  -0.004   0.002  0.00  0.00    -0.072 C 
ATOM     18  C   UNL     1       0.573  -0.505  -1.321  0.00  0.00    +0.006 C 
ATOM     19  C   UNL     1       2.088  -0.301  -1.357  0.00  0.00    +0.058 C 
ATOM     20  C   UNL     1       2.703  -1.086  -0.198  0.00  0.00    +0.006 C 
ATOM     21  C   UNL     1       2.147  -0.590   1.133  0.00  0.00    -0.072 C 
ATOM     22  N   UNL     1       0.697  -0.529   1.164  0.00  0.00    +0.386 N 
ATOM     23  C   UNL     1       2.769   0.766   1.481  0.00  0.00    -0.010 C 
ATOM     24  C   UNL     1       2.600  -1.589   2.223  0.00  0.00    -0.010 C 
ATOM     25  C   UNL     1      -1.468  -0.478   0.079  0.00  0.00    -0.010 C 
ATOM     26  H   UNL     1       0.416   0.021   1.982  0.00  0.00    -0.084 HD
ATOM     27  H   UNL     1       0.341  -1.472   1.351  0.00  0.00    -0.084 HD
ENDBRANCH   1  19
BRANCH  11  28
ATOM     28  C   UNL     1       9.326   0.854  -6.231  0.00  0.00    -0.008 A 
ATOM     29  C   UNL     1       9.205   1.373  -7.519  0.00  0.00    +0.012 A 
ATOM     30  C   UNL     1      10.278   2.009  -8.111  0.00  0.00    +0.050 A 
ATOM     31  C   UNL     1      11.478   2.131  -7.428  0.00  0.00    +0.162 A 
ATOM     32  C   UNL     1      11.605   1.613  -6.142  0.00  0.00    +0.162 A 
ATOM     33  C   UNL     1      10.531   0.981  -5.541  0.00  0.00    +0.058 A 
BRANCH  32  34
ATOM     34  O   UNL     1      12.784   1.733  -5.474  0.00  0.00    -0.491 OA
ATOM     35  C   UNL     1      12.843   1.179  -4.158  0.00  0.00    +0.277 C 
ENDBRANCH  32  34
BRANCH  31  36
ATOM     36  O   UNL     1      12.533   2.757  -8.015  0.00  0.00    -0.491 OA
ATOM     37  C   UNL     1      12.333   3.264  -9.336  0.00  0.00    +0.277 C 
ENDBRANCH  31  36
ENDBRANCH  11  28
TORSDOF 4
