REMARK  Name = ZINC63291426
REMARK  11 active torsions:
REMARK  status: ('A' for Active; 'I' for Inactive)
REMARK    1  A    between atoms: C_1  and  C_2
REMARK    2  A    between atoms: C_4  and  C_13
REMARK    3  A    between atoms: C_13  and  C_14
REMARK    4  A    between atoms: C_14  and  N_15
REMARK    5  A    between atoms: N_15  and  S_16
REMARK    6  A    between atoms: S_16  and  C_19
REMARK    7  A    between atoms: C_21  and  C_27
REMARK    8  A    between atoms: C_24  and  O_25
REMARK    9  A    between atoms: O_25  and  C_26
REMARK   10  A    between atoms: C_27  and  C_28
REMARK   11  A    between atoms: C_27  and  C_29
REMARK                            x       y       z     vdW  Elec       q    Type
REMARK                         _______ _______ _______ _____ _____    ______ ____
ROOT
ATOM      1  N   UNL     1       0.567  -0.710  -5.077  0.00  0.00    -0.190 NA
ATOM      2  H   UNL     1      -0.309  -0.405  -5.361  0.00  0.00    +0.148 HD
ENDROOT
BRANCH   1   3
ATOM      3  S   UNL     1       1.764  -0.949  -6.196  0.00  0.00    +0.062 S 
ATOM      4  O   UNL     1       1.191  -0.679  -7.468  0.00  0.00    -0.153 OA
ATOM      5  O   UNL     1       2.911  -0.261  -5.716  0.00  0.00    -0.153 OA
BRANCH   3   6
ATOM      6  C   UNL     1       2.162  -2.665  -6.176  0.00  0.00    +0.147 A 
ATOM      7  C   UNL     1       1.831  -3.464  -7.253  0.00  0.00    +0.036 A 
ATOM      8  C   UNL     1       2.142  -4.811  -7.238  0.00  0.00    -0.043 A 
ATOM      9  C   UNL     1       2.786  -5.362  -6.145  0.00  0.00    +0.007 A 
ATOM     10  C   UNL     1       3.119  -4.568  -5.066  0.00  0.00    +0.048 A 
ATOM     11  C   UNL     1       2.812  -3.214  -5.081  0.00  0.00    +0.146 A 
BRANCH   8  12
ATOM     12  C   UNL     1       1.780  -5.680  -8.415  0.00  0.00    +0.013 C 
ATOM     13  C   UNL     1       3.050  -6.296  -9.005  0.00  0.00    +0.012 C 
ATOM     14  C   UNL     1       0.839  -6.795  -7.954  0.00  0.00    +0.012 C 
ENDBRANCH   8  12
BRANCH  11  15
ATOM     15  O   UNL     1       3.144  -2.429  -4.022  0.00  0.00    -0.493 OA
ATOM     16  C   UNL     1       3.909  -3.037  -2.979  0.00  0.00    +0.277 C 
ENDBRANCH  11  15
ENDBRANCH   3   6
ENDBRANCH   1   3
BRANCH   1  17
ATOM     17  C   UNL     1       0.830  -0.961  -3.658  0.00  0.00    +0.110 C 
BRANCH  17  18
ATOM     18  C   UNL     1       0.362  -2.371  -3.293  0.00  0.00    +0.050 C 
BRANCH  18  21
ATOM     19  C   UNL     1      -1.449  -3.964  -1.126  0.00  0.00    +0.035 C 
ATOM     20  C   UNL     1       0.067  -3.788  -1.012  0.00  0.00    +0.103 C 
ATOM     21  C   UNL     1       0.514  -2.583  -1.809  0.00  0.00    -0.037 C 
ATOM     22  C   UNL     1       1.078  -1.734  -0.920  0.00  0.00    +0.000 A 
ATOM     23  C   UNL     1       1.695  -0.410  -1.063  0.00  0.00    +0.025 A 
ATOM     24  C   UNL     1       2.184   0.209   0.036  0.00  0.00    +0.019 A 
ATOM     25  C   UNL     1       2.115  -0.382   1.307  0.00  0.00    +0.017 A 
ATOM     26  C   UNL     1       1.564  -1.596   1.517  0.00  0.00    +0.027 A 
ATOM     27  C   UNL     1       1.018  -2.336   0.432  0.00  0.00    +0.043 A 
ATOM     28  N   UNL     1       0.441  -3.513   0.380  0.00  0.00    -0.378 N 
ATOM     29 BR   UNL     1       2.979   1.915  -0.144  0.00  0.00    -0.050 Br
ATOM     30  H   UNL     1       0.285  -4.102   1.135  0.00  0.00    +0.160 HD
ENDBRANCH  18  21
ENDBRANCH  17  18
ENDBRANCH   1  17
TORSDOF 7
