REMARK  Name = ZINC64839577
REMARK  7 active torsions:
REMARK  status: ('A' for Active; 'I' for Inactive)
REMARK    1  A    between atoms: C_1  and  C_2
REMARK    2  A    between atoms: C_2  and  C_4
REMARK    3  A    between atoms: C_2  and  N_19
REMARK    4  A    between atoms: N_6  and  C_7
REMARK    5  A    between atoms: C_7  and  C_8
REMARK    6  A    between atoms: C_8  and  C_9
REMARK    7  A    between atoms: N_29  and  C_34
REMARK                            x       y       z     vdW  Elec       q    Type
REMARK                         _______ _______ _______ _____ _____    ______ ____
ROOT
ATOM      1  C   UNL     1      -0.019   1.526   0.010  0.00  0.00    +0.038 C 
ATOM      2  C   UNL     1       0.002  -0.004   0.002  0.00  0.00    +0.157 C 
ENDROOT
BRANCH   2   3
ATOM      3  N   UNL     1       0.688  -0.476  -1.203  0.00  0.00    -0.303 N 
ATOM      4  C   UNL     1       2.017  -0.197  -1.550  0.00  0.00    +0.039 A 
ATOM      5  C   UNL     1       3.018   0.424  -0.814  0.00  0.00    +0.024 A 
ATOM      6  C   UNL     1       4.282   0.585  -1.348  0.00  0.00    +0.002 A 
ATOM      7  C   UNL     1       4.566   0.130  -2.623  0.00  0.00    +0.001 A 
ATOM      8  C   UNL     1       3.584  -0.482  -3.374  0.00  0.00    +0.010 A 
ATOM      9  C   UNL     1       2.300  -0.646  -2.851  0.00  0.00    +0.003 A 
ATOM     10  C   UNL     1       1.071  -1.209  -3.409  0.00  0.00    +0.006 C 
ATOM     11  C   UNL     1       0.715  -1.564  -4.648  0.00  0.00    +0.094 C 
ATOM     12  N   UNL     1      -0.631  -1.968  -4.743  0.00  0.00    -0.269 N 
ATOM     13  N   UNL     1      -1.567  -1.198  -4.013  0.00  0.00    -0.224 N 
ATOM     14  C   UNL     1      -1.230  -0.817  -2.745  0.00  0.00    +0.256 C 
ATOM     15  O   UNL     1      -1.957  -0.122  -2.067  0.00  0.00    -0.272 OA
ATOM     16  C   UNL     1       0.103  -1.319  -2.237  0.00  0.00    +0.194 C 
ATOM     17  C   UNL     1      -2.856  -0.820  -4.599  0.00  0.00    +0.156 C 
ATOM     18  H   UNL     1      -0.901  -2.731  -5.278  0.00  0.00    +0.170 HD
ENDBRANCH   2   3
BRANCH   2  19
ATOM     19  C   UNL     1       0.731  -0.503   1.223  0.00  0.00    +0.233 C 
ATOM     20  O   UNL     1       1.725  -1.187   1.099  0.00  0.00    -0.274 OA
ATOM     21  N   UNL     1       0.278  -0.191   2.453  0.00  0.00    -0.313 N 
ATOM     22  H   UNL     1      -0.517   0.356   2.553  0.00  0.00    +0.149 HD
BRANCH  21  23
ATOM     23  C   UNL     1       0.986  -0.676   3.640  0.00  0.00    +0.108 C 
BRANCH  23  24
ATOM     24  C   UNL     1       0.270  -0.182   4.899  0.00  0.00    +0.052 C 
BRANCH  24  25
ATOM     25  C   UNL     1       0.999  -0.682   6.120  0.00  0.00    -0.040 C 
ATOM     26  C   UNL     1       1.935  -0.018   6.836  0.00  0.00    +0.000 A 
ATOM     27  C   UNL     1       2.533   1.315   6.697  0.00  0.00    +0.030 A 
ATOM     28  C   UNL     1       3.470   1.710   7.589  0.00  0.00    +0.042 A 
ATOM     29  C   UNL     1       3.885   0.879   8.640  0.00  0.00    +0.022 A 
ATOM     30  C   UNL     1       3.382  -0.359   8.832  0.00  0.00    +0.027 A 
ATOM     31  C   UNL     1       2.389  -0.876   7.954  0.00  0.00    +0.043 A 
ATOM     32  N   UNL     1       1.759  -2.025   7.929  0.00  0.00    -0.380 N 
ATOM     33  C   UNL     1       0.827  -2.023   6.796  0.00  0.00    +0.144 C 
ATOM     34 CL   UNL     1       4.179   3.287   7.429  0.00  0.00    -0.084 Cl
ATOM     35  H   UNL     1       1.884  -2.753   8.558  0.00  0.00    +0.160 HD
ENDBRANCH  24  25
ENDBRANCH  23  24
ENDBRANCH  21  23
ENDBRANCH   2  19
TORSDOF 5
