REMARK  Name = ZINC08721979
REMARK  3 active torsions:
REMARK  status: ('A' for Active; 'I' for Inactive)
REMARK    1  A    between atoms: C_4  and  C_7
REMARK    2  A    between atoms: C_7  and  N_48
REMARK    3  A    between atoms: C_18  and  C_21
REMARK                            x       y       z     vdW  Elec       q    Type
REMARK                         _______ _______ _______ _____ _____    ______ ____
ROOT
ATOM      1  C   UNL     1      -0.765   1.599  -1.223  0.00  0.00    -0.073 C 
ATOM      2  C   UNL     1      -0.013   1.086   0.008  0.00  0.00    +0.018 C 
ATOM      3  C   UNL     1      -0.739   1.584   1.253  0.00  0.00    -0.027 A 
ATOM      4  C   UNL     1      -1.614   2.612   1.158  0.00  0.00    -0.021 A 
ATOM      5  S   UNL     1      -2.217   2.851   2.807  0.00  0.00    -0.080 S 
ATOM      6  C   UNL     1      -1.330   1.618   3.598  0.00  0.00    +0.080 A 
ATOM      7  C   UNL     1      -0.565   1.024   2.581  0.00  0.00    +0.068 A 
ATOM      8  C   UNL     1       0.328  -0.095   2.961  0.00  0.00    +0.248 C 
ATOM      9  O   UNL     1       0.937  -0.732   2.121  0.00  0.00    -0.270 OA
ATOM     10  N   UNL     1       0.439  -0.378   4.275  0.00  0.00    -0.289 N 
ATOM     11  C   UNL     1      -0.068   0.491   5.332  0.00  0.00    +0.191 C 
ATOM     12  N   UNL     1      -1.287   1.201   4.903  0.00  0.00    -0.316 N 
ATOM     13  C   UNL     1      -1.973   3.364  -0.085  0.00  0.00    -0.035 C 
ATOM     14  H   UNL     1       0.879  -1.203   4.531  0.00  0.00    +0.151 HD
ATOM     15  H   UNL     1      -2.022   1.364   5.514  0.00  0.00    +0.149 HD
ATOM     16  N   UNL     1      -0.947   3.061  -1.111  0.00  0.00    +0.386 N 
ATOM     17  H   UNL     1      -0.056   3.488  -0.830  0.00  0.00    -0.081 HD
ENDROOT
BRANCH  11  18
ATOM     18  C   UNL     1       0.991   1.502   5.690  0.00  0.00    +0.009 A 
ATOM     19  C   UNL     1       0.627   2.788   6.047  0.00  0.00    +0.010 A 
ATOM     20  C   UNL     1       1.597   3.714   6.380  0.00  0.00    +0.020 A 
ATOM     21  C   UNL     1       2.934   3.358   6.347  0.00  0.00    +0.042 A 
ATOM     22  C   UNL     1       3.299   2.074   5.986  0.00  0.00    +0.040 A 
ATOM     23  C   UNL     1       2.327   1.146   5.657  0.00  0.00    +0.049 A 
ATOM     24 CL   UNL     1       2.784  -0.466   5.202  0.00  0.00    -0.083 Cl
ATOM     25 CL   UNL     1       4.153   4.523   6.761  0.00  0.00    -0.083 Cl
ENDBRANCH  11  18
BRANCH  16  26
ATOM     26  C   UNL     1      -1.357   3.621  -2.417  0.00  0.00    -0.043 C 
BRANCH  26  30
ATOM     27  C   UNL     1      -1.250   7.885  -2.188  0.00  0.00    +0.000 A 
ATOM     28  C   UNL     1      -0.121   7.185  -2.571  0.00  0.00    +0.000 A 
ATOM     29  C   UNL     1      -0.156   5.805  -2.646  0.00  0.00    +0.002 A 
ATOM     30  C   UNL     1      -1.319   5.125  -2.336  0.00  0.00    -0.064 A 
ATOM     31  C   UNL     1      -2.449   5.826  -1.958  0.00  0.00    +0.002 A 
ATOM     32  C   UNL     1      -2.413   7.205  -1.879  0.00  0.00    +0.000 A 
ENDBRANCH  26  30
ENDBRANCH  16  26
TORSDOF 3
