REMARK  Name = ZINC12296895
REMARK  10 active torsions:
REMARK  status: ('A' for Active; 'I' for Inactive)
REMARK    1  A    between atoms: C_1  and  C_2
REMARK    2  A    between atoms: C_5  and  C_7
REMARK    3  A    between atoms: C_8  and  N_34
REMARK    4  A    between atoms: N_9  and  C_13
REMARK    5  A    between atoms: C_13  and  C_14
REMARK    6  A    between atoms: C_14  and  C_33
REMARK    7  A    between atoms: C_18  and  C_32
REMARK    8  A    between atoms: C_27  and  C_29
REMARK    9  A    between atoms: C_29  and  C_30
REMARK   10  A    between atoms: C_29  and  C_31
REMARK                            x       y       z     vdW  Elec       q    Type
REMARK                         _______ _______ _______ _____ _____    ______ ____
ROOT
ATOM      1  C   UNL     1       0.957  -2.186  -1.172  0.00  0.00    -0.013 C 
ATOM      2  C   UNL     1       1.280  -3.060   0.036  0.00  0.00    +0.008 C 
ATOM      3  C   UNL     1       2.745  -2.850   0.427  0.00  0.00    +0.001 C 
ATOM      4  C   UNL     1       2.957  -1.385   0.808  0.00  0.00    +0.011 C 
ATOM      5  C   UNL     1       2.634  -0.483  -0.387  0.00  0.00    -0.003 C 
ATOM      6  C   UNL     1       1.198  -0.718  -0.845  0.00  0.00    +0.007 C 
ATOM      7  C   UNL     1       0.249  -0.247   0.258  0.00  0.00    +0.009 C 
ATOM      8  C   UNL     1       0.306   1.279   0.318  0.00  0.00    +0.036 C 
ATOM      9  C   UNL     1       1.734   1.759   0.364  0.00  0.00    -0.043 A 
ATOM     10  C   UNL     1       2.803   0.956   0.036  0.00  0.00    -0.038 A 
ATOM     11  C   UNL     1       4.093   1.466   0.092  0.00  0.00    +0.005 A 
ATOM     12  C   UNL     1       4.313   2.772   0.478  0.00  0.00    +0.004 A 
ATOM     13  C   UNL     1       3.241   3.578   0.812  0.00  0.00    -0.045 A 
ATOM     14  C   UNL     1       1.959   3.073   0.755  0.00  0.00    +0.007 A 
ATOM     15  C   UNL     1       3.594  -0.795  -1.537  0.00  0.00    +0.016 C 
ATOM     16  C   UNL     1       1.853  -2.598  -2.342  0.00  0.00    +0.013 C 
ENDROOT
BRANCH  13  17
ATOM     17  C   UNL     1       3.473   5.005   1.238  0.00  0.00    +0.013 C 
ATOM     18  C   UNL     1       4.354   5.028   2.488  0.00  0.00    +0.012 C 
ATOM     19  C   UNL     1       4.169   5.768   0.109  0.00  0.00    +0.012 C 
ENDBRANCH  13  17
BRANCH   1  20
ATOM     20  C   UNL     1      -0.508  -2.384  -1.566  0.00  0.00    +0.113 C 
BRANCH  20  23
ATOM     21  C   UNL     1      -0.911  -5.731  -3.065  0.00  0.00    +0.086 C 
ATOM     22  C   UNL     1      -0.620  -4.371  -3.108  0.00  0.00    +0.097 C 
ATOM     23  N   UNL     1      -0.743  -3.795  -1.882  0.00  0.00    -0.310 N 
ATOM     24  C   UNL     1      -1.159  -4.835  -0.931  0.00  0.00    +0.186 C 
ATOM     25  C   UNL     1      -1.258  -6.101  -1.756  0.00  0.00    +0.186 C 
ATOM     26  O   UNL     1      -1.573  -7.209  -1.365  0.00  0.00    -0.290 OA
BRANCH  21  31
ATOM     27  C   UNL     1      -1.344 -10.083  -5.449  0.00  0.00    +0.066 C 
ATOM     28  C   UNL     1      -1.040  -8.607  -5.412  0.00  0.00    +0.046 A 
ATOM     29  C   UNL     1      -0.670  -7.962  -6.546  0.00  0.00    +0.070 A 
ATOM     30  S   UNL     1      -0.453  -6.299  -5.927  0.00  0.00    -0.075 S 
ATOM     31  C   UNL     1      -0.868  -6.645  -4.222  0.00  0.00    +0.115 A 
ATOM     32  N   UNL     1      -1.131  -7.944  -4.280  0.00  0.00    -0.244 NA
ENDBRANCH  21  31
BRANCH  22  33
ATOM     33  N   UNL     1      -0.253  -3.700  -4.238  0.00  0.00    -0.346 N 
ATOM     34  H   UNL     1      -0.061  -2.750  -4.197  0.00  0.00    +0.143 HD
ATOM     35  H   UNL     1      -0.184  -4.173  -5.082  0.00  0.00    +0.143 HD
ENDBRANCH  22  33
ENDBRANCH  20  23
ENDBRANCH   1  20
TORSDOF 5
