REMARK  Name = ZINC05889922
REMARK  15 active torsions:
REMARK  status: ('A' for Active; 'I' for Inactive)
REMARK    1  A    between atoms: C_1  and  C_2
REMARK    2  A    between atoms: C_8  and  O_13
REMARK    3  A    between atoms: N_9  and  C_12
REMARK    4  A    between atoms: O_13  and  C_14
REMARK    5  A    between atoms: N_15  and  O_18
REMARK    6  A    between atoms: O_18  and  C_19
REMARK    7  A    between atoms: C_21  and  O_37
REMARK    8  A    between atoms: C_23  and  O_33
REMARK    9  A    between atoms: C_25  and  O_29
REMARK   10  A    between atoms: O_29  and  C_30
REMARK   11  A    between atoms: C_30  and  C_32
REMARK   12  A    between atoms: O_33  and  C_34
REMARK   13  A    between atoms: C_34  and  C_36
REMARK   14  A    between atoms: O_37  and  C_38
REMARK   15  A    between atoms: C_38  and  C_40
REMARK                            x       y       z     vdW  Elec       q    Type
REMARK                         _______ _______ _______ _____ _____    ______ ____
ROOT
ATOM      1  O   UNL     1      -4.168   3.075   4.403  0.00  0.00    -0.371 OA
ENDROOT
BRANCH   1  14
ATOM      2  C   UNL     1      -0.154   3.266   7.165  0.00  0.00    +0.053 C 
ATOM      3  C   UNL     1      -0.800   2.969   5.836  0.00  0.00    +0.064 A 
ATOM      4  C   UNL     1      -0.015   2.516   4.753  0.00  0.00    +0.203 A 
ATOM      5  O   UNL     1       1.191   2.359   4.870  0.00  0.00    -0.287 OA
ATOM      6  C   UNL     1      -0.694   2.242   3.485  0.00  0.00    +0.132 A 
ATOM      7  C   UNL     1      -2.082   2.438   3.400  0.00  0.00    +0.194 A 
ATOM      8  N   UNL     1      -2.705   2.189   2.244  0.00  0.00    -0.175 NA
ATOM      9  C   UNL     1      -2.041   1.771   1.189  0.00  0.00    +0.302 A 
ATOM     10  N   UNL     1      -0.698   1.558   1.213  0.00  0.00    -0.265 N 
ATOM     11  C   UNL     1       0.007   1.786   2.345  0.00  0.00    +0.269 A 
ATOM     12  O   UNL     1       1.212   1.604   2.380  0.00  0.00    -0.267 OA
ATOM     13  C   UNL     1      -0.013   1.086   0.008  0.00  0.00    +0.157 C 
ATOM     14  N   UNL     1      -2.768   2.880   4.496  0.00  0.00    -0.121 N 
ATOM     15  C   UNL     1      -2.139   3.135   5.677  0.00  0.00    +0.292 A 
ATOM     16  O   UNL     1      -2.871   3.569   6.727  0.00  0.00    -0.264 OA
BRANCH   9  17
ATOM     17  O   UNL     1      -2.715   1.540   0.045  0.00  0.00    -0.467 OA
ATOM     18  C   UNL     1      -4.147   1.781   0.064  0.00  0.00    +0.280 C 
ENDBRANCH   9  17
ENDBRANCH   1  14
BRANCH   1  19
ATOM     19  C   UNL     1      -4.544   4.391   3.992  0.00  0.00    +0.380 C 
ATOM     20  C   UNL     1      -6.063   4.453   3.806  0.00  0.00    +0.291 C 
ATOM     21  C   UNL     1      -6.465   5.881   3.425  0.00  0.00    +0.266 C 
ATOM     22  C   UNL     1      -5.972   6.845   4.508  0.00  0.00    +0.246 C 
ATOM     23  C   UNL     1      -4.457   6.691   4.667  0.00  0.00    +0.212 C 
ATOM     24  O   UNL     1      -4.149   5.334   4.991  0.00  0.00    -0.333 OA
BRANCH  22  25
ATOM     25  O   UNL     1      -6.283   8.210   4.121  0.00  0.00    -0.455 OA
BRANCH  25  26
ATOM     26  C   UNL     1      -6.504   9.088   5.112  0.00  0.00    +0.304 C 
ATOM     27  O   UNL     1      -6.439   8.730   6.264  0.00  0.00    -0.251 OA
ATOM     28  C   UNL     1      -6.832  10.523   4.787  0.00  0.00    +0.136 C 
ENDBRANCH  25  26
ENDBRANCH  22  25
BRANCH  21  29
ATOM     29  O   UNL     1      -5.863   6.233   2.151  0.00  0.00    -0.454 OA
BRANCH  29  30
ATOM     30  C   UNL     1      -6.529   7.111   1.384  0.00  0.00    +0.304 C 
ATOM     31  O   UNL     1      -7.580   7.570   1.765  0.00  0.00    -0.251 OA
ATOM     32  C   UNL     1      -5.966   7.524   0.049  0.00  0.00    +0.136 C 
ENDBRANCH  29  30
ENDBRANCH  21  29
BRANCH  20  33
ATOM     33  O   UNL     1      -6.719   4.079   5.046  0.00  0.00    -0.451 OA
BRANCH  33  34
ATOM     34  C   UNL     1      -6.998   2.777   5.218  0.00  0.00    +0.305 C 
ATOM     35  O   UNL     1      -6.704   1.977   4.362  0.00  0.00    -0.251 OA
ATOM     36  C   UNL     1      -7.679   2.314   6.481  0.00  0.00    +0.136 C 
ENDBRANCH  33  34
ENDBRANCH  20  33
ENDBRANCH   1  19
TORSDOF 9
