REMARK  Name = ZINC12995520
REMARK  5 active torsions:
REMARK  status: ('A' for Active; 'I' for Inactive)
REMARK    1  A    between atoms: C_6  and  N_11
REMARK    2  A    between atoms: C_12  and  C_14
REMARK    3  A    between atoms: C_14  and  C_15
REMARK    4  A    between atoms: N_21  and  C_22
REMARK    5  A    between atoms: C_22  and  C_23
REMARK                            x       y       z     vdW  Elec       q    Type
REMARK                         _______ _______ _______ _____ _____    ______ ____
ROOT
ATOM      1  C   UNL     1       6.009  -6.239   0.230  0.00  0.00    +0.149 C 
ATOM      2  C   UNL     1       7.316  -7.005   0.359  0.00  0.00    +0.232 C 
ATOM      3  O   UNL     1       8.061  -6.852   1.303  0.00  0.00    -0.274 OA
ATOM      4  N   UNL     1       7.588  -7.849  -0.621  0.00  0.00    -0.264 N 
ATOM      5  C   UNL     1       6.743  -8.029  -1.699  0.00  0.00    +0.157 C 
ATOM      6  N   UNL     1       6.899  -8.824  -2.719  0.00  0.00    -0.258 NA
ATOM      7  S   UNL     1       5.385  -6.915  -1.365  0.00  0.00    -0.077 S 
ATOM      8  H   UNL     1       8.412  -8.360  -0.582  0.00  0.00    +0.157 HD
ENDROOT
BRANCH   1   9
ATOM      9  C   UNL     1       6.257  -4.732   0.133  0.00  0.00    +0.120 C 
BRANCH   9  11
ATOM     10  N   UNL     1       4.909  -2.667  -0.059  0.00  0.00    -0.285 N 
ATOM     11  C   UNL     1       4.937  -4.011   0.036  0.00  0.00    +0.219 C 
ATOM     12  O   UNL     1       3.901  -4.640   0.043  0.00  0.00    -0.275 OA
ATOM     13  H   UNL     1       5.738  -2.168  -0.131  0.00  0.00    +0.155 HD
BRANCH  10  19
ATOM     14  C   UNL     1      -0.093   1.216   0.544  0.00  0.00    +0.001 A 
ATOM     15  C   UNL     1       1.013   1.803   1.156  0.00  0.00    +0.001 A 
ATOM     16  C   UNL     1       2.221   1.176   1.170  0.00  0.00    +0.008 A 
ATOM     17  C   UNL     1       2.358  -0.083   0.559  0.00  0.00    -0.016 A 
ATOM     18  C   UNL     1       3.589  -0.759   0.555  0.00  0.00    +0.031 A 
ATOM     19  C   UNL     1       3.685  -1.991  -0.053  0.00  0.00    +0.034 A 
ATOM     20  C   UNL     1       2.569  -2.573  -0.666  0.00  0.00    +0.024 A 
ATOM     21  C   UNL     1       1.367  -1.939  -0.676  0.00  0.00    +0.010 A 
ATOM     22  C   UNL     1       1.234  -0.680  -0.063  0.00  0.00    -0.018 A 
ATOM     23  C   UNL     1       0.003  -0.001  -0.058  0.00  0.00    +0.008 A 
ENDBRANCH  10  19
ENDBRANCH   9  11
ENDBRANCH   1   9
BRANCH   6  24
ATOM     24  C   UNL     1       8.093  -9.668  -2.815  0.00  0.00    +0.179 C 
BRANCH  24  25
ATOM     25  C   UNL     1       7.691 -11.118  -2.731  0.00  0.00    -0.026 A 
ATOM     26  C   UNL     1       7.621 -11.746  -1.502  0.00  0.00    +0.008 A 
ATOM     27  C   UNL     1       7.252 -13.075  -1.424  0.00  0.00    +0.038 A 
ATOM     28  C   UNL     1       6.952 -13.778  -2.578  0.00  0.00    +0.123 A 
ATOM     29  C   UNL     1       7.022 -13.149  -3.809  0.00  0.00    +0.038 A 
ATOM     30  C   UNL     1       7.386 -11.818  -3.884  0.00  0.00    +0.008 A 
ATOM     31  F   UNL     1       6.591 -15.078  -2.503  0.00  0.00    -0.205 F 
ENDBRANCH  24  25
ENDBRANCH   6  24
TORSDOF 5
