REMARK  Name = ZINC23693268
REMARK  3 active torsions:
REMARK  status: ('A' for Active; 'I' for Inactive)
REMARK    1  A    between atoms: C_1  and  C_2
REMARK    2  A    between atoms: N_11  and  C_12
REMARK    3  A    between atoms: C_12  and  C_13
REMARK                            x       y       z     vdW  Elec       q    Type
REMARK                         _______ _______ _______ _____ _____    ______ ____
ROOT
ATOM      1  C   UNL     1      -0.561  -1.363   3.031  0.00  0.00    +0.128 A 
ATOM      2  N   UNL     1      -1.032  -1.328   4.303  0.00  0.00    -0.307 N 
ATOM      3  H   UNL     1      -0.772  -0.603   4.893  0.00  0.00    +0.170 HD
ATOM      4  C   UNL     1      -1.861  -2.294   4.752  0.00  0.00    +0.295 A 
ATOM      5  O   UNL     1      -2.289  -2.267   5.894  0.00  0.00    -0.264 OA
ATOM      6  C   UNL     1      -2.223  -3.337   3.869  0.00  0.00    +0.218 A 
ATOM      7  C   UNL     1      -1.704  -3.313   2.579  0.00  0.00    +0.124 A 
ATOM      8  N   UNL     1      -0.888  -2.314   2.203  0.00  0.00    -0.228 NA
ATOM      9  C   UNL     1      -2.248  -4.503   1.908  0.00  0.00    +0.046 A 
ATOM     10  C   UNL     1      -2.114  -5.042   0.630  0.00  0.00    +0.014 A 
ATOM     11  C   UNL     1      -2.776  -6.207   0.308  0.00  0.00    +0.001 A 
ATOM     12  C   UNL     1      -3.572  -6.840   1.250  0.00  0.00    +0.004 A 
ATOM     13  C   UNL     1      -3.713  -6.317   2.517  0.00  0.00    +0.047 A 
ATOM     14  C   UNL     1      -3.054  -5.143   2.863  0.00  0.00    +0.138 A 
ATOM     15  O   UNL     1      -3.011  -4.423   4.004  0.00  0.00    -0.448 OA
ENDROOT
BRANCH   1  16
ATOM     16  C   UNL     1       0.363  -0.268   2.562  0.00  0.00    +0.179 C 
BRANCH  16  26
ATOM     17  C   UNL     1      -0.019   1.526   0.010  0.00  0.00    +0.028 C 
ATOM     18  C   UNL     1       0.002  -0.004   0.002  0.00  0.00    +0.075 C 
ATOM     19  C   UNL     1       0.778  -0.520  -1.221  0.00  0.00    +0.059 C 
ATOM     20  C   UNL     1       1.931  -1.304  -0.635  0.00  0.00    -0.025 A 
ATOM     21  C   UNL     1       2.960  -1.995  -1.246  0.00  0.00    +0.005 A 
ATOM     22  C   UNL     1       3.911  -2.644  -0.481  0.00  0.00    +0.000 A 
ATOM     23  C   UNL     1       3.831  -2.599   0.899  0.00  0.00    +0.002 A 
ATOM     24  C   UNL     1       2.807  -1.911   1.513  0.00  0.00    +0.023 A 
ATOM     25  C   UNL     1       1.842  -1.253   0.747  0.00  0.00    +0.034 A 
ATOM     26  N   UNL     1       0.735  -0.509   1.166  0.00  0.00    -0.319 N 
ENDBRANCH  16  26
ENDBRANCH   1  16
TORSDOF 2
