REMARK  Name = ZINC06232576
REMARK  7 active torsions:
REMARK  status: ('A' for Active; 'I' for Inactive)
REMARK    1  A    between atoms: C_1  and  C_2
REMARK    2  A    between atoms: C_2  and  C_30
REMARK    3  A    between atoms: C_6  and  C_16
REMARK    4  A    between atoms: C_11  and  O_15
REMARK    5  A    between atoms: C_24  and  S_26
REMARK    6  A    between atoms: S_26  and  C_27
REMARK    7  A    between atoms: C_27  and  C_28
REMARK                            x       y       z     vdW  Elec       q    Type
REMARK                         _______ _______ _______ _____ _____    ______ ____
ROOT
ATOM      1  C   UNL     1      -5.470  -2.703  -0.273  0.00  0.00    +0.034 C 
ATOM      2  C   UNL     1      -6.014  -1.271  -0.118  0.00  0.00    +0.040 C 
ATOM      3  C   UNL     1      -7.114  -1.290   0.934  0.00  0.00    +0.096 C 
ATOM      4  C   UNL     1      -7.106  -0.048   1.822  0.00  0.00    +0.180 C 
ATOM      5  C   UNL     1      -7.616   1.169   1.053  0.00  0.00    +0.081 C 
ATOM      6  C   UNL     1      -7.519   2.409   1.948  0.00  0.00    +0.058 C 
ATOM      7  C   UNL     1      -8.029   2.100   3.331  0.00  0.00    +0.002 A 
ATOM      8  C   UNL     1      -8.296   3.146   4.200  0.00  0.00    +0.011 A 
ATOM      9  C   UNL     1      -8.787   2.899   5.467  0.00  0.00    +0.046 A 
ATOM     10  C   UNL     1      -9.006   1.594   5.883  0.00  0.00    +0.120 A 
ATOM     11  C   UNL     1      -8.725   0.544   5.026  0.00  0.00    +0.091 A 
ATOM     12  C   UNL     1      -8.230   0.795   3.751  0.00  0.00    +0.131 A 
ATOM     13  O   UNL     1      -7.958  -0.265   2.947  0.00  0.00    -0.468 OA
ATOM     14  N   UNL     1      -5.733   0.194   2.284  0.00  0.00    -0.288 N 
ATOM     15  C   UNL     1      -4.760   0.255   1.310  0.00  0.00    +0.131 C 
ATOM     16  N   UNL     1      -4.899  -0.400   0.208  0.00  0.00    -0.363 N 
ATOM     17  C   UNL     1      -6.606  -0.849  -1.469  0.00  0.00    +0.034 C 
ATOM     18  H   UNL     1      -5.527   0.315   3.358  0.00  0.00    +0.152 HD
ATOM     19  H   UNL     1      -4.133  -0.322  -0.578  0.00  0.00    +0.162 HD
ENDROOT
BRANCH   6  20
ATOM     20  C   UNL     1      -8.344   3.511   1.335  0.00  0.00    -0.040 A 
ATOM     21  C   UNL     1      -9.703   3.337   1.150  0.00  0.00    +0.005 A 
ATOM     22  C   UNL     1     -10.460   4.351   0.594  0.00  0.00    +0.020 A 
ATOM     23  C   UNL     1      -9.857   5.535   0.212  0.00  0.00    +0.041 A 
ATOM     24  C   UNL     1      -8.496   5.707   0.392  0.00  0.00    +0.020 A 
ATOM     25  C   UNL     1      -7.740   4.695   0.954  0.00  0.00    +0.005 A 
ATOM     26 CL   UNL     1     -10.806   6.806  -0.493  0.00  0.00    -0.084 Cl
ENDBRANCH   6  20
BRANCH  10  27
ATOM     27  O   UNL     1      -9.493   1.347   7.127  0.00  0.00    -0.507 OA
ATOM     28  H   UNL     1      -9.666   0.312   7.455  0.00  0.00    +0.292 HD
ENDBRANCH  10  27
BRANCH  15  29
ATOM     29  S   UNL     1      -3.331   1.247   1.571  0.00  0.00    -0.089 S 
BRANCH  29  30
ATOM     30  C   UNL     1      -2.451   0.944   0.019  0.00  0.00    +0.103 C 
BRANCH  30  31
ATOM     31  C   UNL     1      -1.156   1.715   0.017  0.00  0.00    -0.023 C 
ATOM     32  C   UNL     1      -0.013   1.076   0.008  0.00  0.00    +0.005 C 
ENDBRANCH  30  31
ENDBRANCH  29  30
ENDBRANCH  15  29
TORSDOF 5
