REMARK  Name = ZINC01372310
REMARK  8 active torsions:
REMARK  status: ('A' for Active; 'I' for Inactive)
REMARK    1  A    between atoms: C_1  and  C_2
REMARK    2  A    between atoms: C_15  and  S_18
REMARK    3  A    between atoms: S_18  and  C_19
REMARK    4  A    between atoms: C_19  and  C_20
REMARK    5  A    between atoms: N_22  and  C_23
REMARK    6  A    between atoms: C_23  and  C_24
REMARK    7  A    between atoms: C_23  and  C_25
REMARK    8  A    between atoms: C_23  and  C_26
REMARK                            x       y       z     vdW  Elec       q    Type
REMARK                         _______ _______ _______ _____ _____    ______ ____
ROOT
ATOM      1  C   UNL     1      -8.434   0.262   0.861  0.00  0.00    +0.086 C 
ATOM      2  C   UNL     1      -6.971   0.442   0.551  0.00  0.00    +0.115 A 
ATOM      3  N   UNL     1      -6.149   0.753   1.512  0.00  0.00    -0.226 NA
ATOM      4  C   UNL     1      -4.846   0.926   1.307  0.00  0.00    +0.114 A 
ATOM      5  C   UNL     1      -4.259   0.785   0.041  0.00  0.00    +0.056 A 
ATOM      6  C   UNL     1      -2.860   0.997  -0.042  0.00  0.00    -0.024 A 
ATOM      7  C   UNL     1      -2.205   1.316   1.099  0.00  0.00    -0.004 A 
ATOM      8  S   UNL     1      -3.466   1.343   2.345  0.00  0.00    -0.073 S 
ATOM      9  C   UNL     1      -0.738   1.584   1.266  0.00  0.00    +0.043 C 
ATOM     10  C   UNL     1      -0.013   1.086   0.008  0.00  0.00    +0.005 C 
ATOM     11  C   UNL     1      -0.760   1.596  -1.228  0.00  0.00    +0.005 C 
ATOM     12  C   UNL     1      -2.101   0.874  -1.361  0.00  0.00    +0.037 C 
ATOM     13  C   UNL     1      -5.202   0.432  -1.044  0.00  0.00    +0.173 A 
ATOM     14  N   UNL     1      -6.534   0.274  -0.731  0.00  0.00    -0.258 N 
ATOM     15  C   UNL     1      -7.149  -0.043  -1.911  0.00  0.00    +0.198 A 
ATOM     16  N   UNL     1      -6.221  -0.065  -2.840  0.00  0.00    -0.122 NA
ATOM     17  N   UNL     1      -5.071   0.214  -2.329  0.00  0.00    -0.128 NA
ENDROOT
BRANCH  15  18
ATOM     18  S   UNL     1      -8.866  -0.362  -2.142  0.00  0.00    -0.076 S 
BRANCH  18  19
ATOM     19  C   UNL     1      -9.013  -0.715  -3.915  0.00  0.00    +0.173 C 
BRANCH  19  20
ATOM     20  C   UNL     1     -10.452  -1.008  -4.252  0.00  0.00    +0.224 C 
ATOM     21  O   UNL     1     -11.296  -0.982  -3.381  0.00  0.00    -0.275 OA
ATOM     22  N   UNL     1     -10.801  -1.300  -5.521  0.00  0.00    -0.310 N 
ATOM     23  H   UNL     1     -10.126  -1.321  -6.217  0.00  0.00    +0.149 HD
BRANCH  22  24
ATOM     24  C   UNL     1     -12.200  -1.585  -5.848  0.00  0.00    +0.026 C 
ATOM     25  C   UNL     1     -13.064  -0.372  -5.497  0.00  0.00    +0.031 C 
ATOM     26  C   UNL     1     -12.323  -1.883  -7.344  0.00  0.00    +0.031 C 
ATOM     27  C   UNL     1     -12.675  -2.799  -5.046  0.00  0.00    +0.031 C 
ENDBRANCH  22  24
ENDBRANCH  19  20
ENDBRANCH  18  19
ENDBRANCH  15  18
TORSDOF 4
