REMARK  Name = ZINC36608043
REMARK  11 active torsions:
REMARK  status: ('A' for Active; 'I' for Inactive)
REMARK    1  A    between atoms: C_1  and  C_2
REMARK    2  A    between atoms: C_2  and  C_3
REMARK    3  A    between atoms: C_2  and  C_4
REMARK    4  A    between atoms: C_2  and  N_5
REMARK    5  A    between atoms: C_6  and  C_8
REMARK    6  A    between atoms: C_8  and  C_10
REMARK    7  A    between atoms: C_8  and  N_17
REMARK    8  A    between atoms: C_15  and  O_16
REMARK    9  A    between atoms: N_17  and  C_18
REMARK   10  A    between atoms: C_24  and  C_26
REMARK   11  A    between atoms: C_31  and  O_32
REMARK                            x       y       z     vdW  Elec       q    Type
REMARK                         _______ _______ _______ _____ _____    ______ ____
ROOT
ATOM      1  C   UNL     1       3.238   1.176  -3.539  0.00  0.00    +0.201 C 
ENDROOT
BRANCH   1   2
ATOM      2  C   UNL     1       1.861   0.659  -3.215  0.00  0.00    +0.024 A 
ATOM      3  C   UNL     1       1.649  -0.069  -2.060  0.00  0.00    +0.009 A 
ATOM      4  C   UNL     1       0.385  -0.544  -1.762  0.00  0.00    +0.001 A 
ATOM      5  C   UNL     1      -0.670  -0.293  -2.620  0.00  0.00    +0.004 A 
ATOM      6  C   UNL     1      -0.464   0.434  -3.776  0.00  0.00    +0.046 A 
ATOM      7  C   UNL     1       0.802   0.917  -4.074  0.00  0.00    +0.122 A 
BRANCH   7   8
ATOM      8  O   UNL     1       1.007   1.637  -5.208  0.00  0.00    -0.506 OA
ATOM      9  H   UNL     1       1.242   1.101  -5.978  0.00  0.00    +0.292 HD
ENDBRANCH   7   8
ENDBRANCH   1   2
BRANCH   1  11
ATOM     10  N   UNL     1       2.385   3.406  -4.185  0.00  0.00    -0.309 N 
ATOM     11  C   UNL     1       3.245   2.680  -3.444  0.00  0.00    +0.239 C 
ATOM     12  O   UNL     1       4.024   3.237  -2.700  0.00  0.00    -0.273 OA
ATOM     13  H   UNL     1       1.762   2.961  -4.780  0.00  0.00    +0.149 HD
BRANCH  10  15
ATOM     14  C   UNL     1       3.768   5.399  -4.499  0.00  0.00    +0.031 C 
ATOM     15  C   UNL     1       2.391   4.868  -4.093  0.00  0.00    +0.026 C 
ATOM     16  C   UNL     1       2.086   5.290  -2.654  0.00  0.00    +0.031 C 
ATOM     17  C   UNL     1       1.327   5.443  -5.030  0.00  0.00    +0.031 C 
ENDBRANCH  10  15
ENDBRANCH   1  11
BRANCH   1  18
ATOM     18  N   UNL     1       4.204   0.623  -2.587  0.00  0.00    -0.251 N 
ATOM     19  C   UNL     1       4.814  -0.550  -2.850  0.00  0.00    +0.255 C 
ATOM     20  O   UNL     1       5.494  -1.087  -1.997  0.00  0.00    -0.269 OA
BRANCH  18  21
ATOM     21  C   UNL     1       4.493   1.311  -1.404  0.00  0.00    +0.038 A 
ATOM     22  C   UNL     1       3.589   1.293  -0.350  0.00  0.00    +0.023 A 
ATOM     23  C   UNL     1       3.878   1.974   0.817  0.00  0.00    +0.002 A 
ATOM     24  C   UNL     1       5.066   2.671   0.936  0.00  0.00    +0.000 A 
ATOM     25  C   UNL     1       5.968   2.691  -0.112  0.00  0.00    +0.002 A 
ATOM     26  C   UNL     1       5.688   2.008  -1.279  0.00  0.00    +0.023 A 
ENDBRANCH  18  21
BRANCH  19  27
ATOM     27  C   UNL     1       4.656  -1.182  -4.174  0.00  0.00    +0.079 A 
ATOM     28  C   UNL     1       3.437  -1.099  -4.851  0.00  0.00    +0.017 A 
ATOM     29  C   UNL     1       3.296  -1.692  -6.087  0.00  0.00    +0.001 A 
ATOM     30  C   UNL     1       4.359  -2.370  -6.662  0.00  0.00    +0.004 A 
ATOM     31  C   UNL     1       5.569  -2.460  -6.003  0.00  0.00    +0.046 A 
ATOM     32  C   UNL     1       5.730  -1.865  -4.761  0.00  0.00    +0.129 A 
BRANCH  32  33
ATOM     33  O   UNL     1       6.920  -1.947  -4.115  0.00  0.00    -0.506 OA
ATOM     34  H   UNL     1       7.002  -2.720  -3.539  0.00  0.00    +0.292 HD
ENDBRANCH  32  33
ENDBRANCH  19  27
ENDBRANCH   1  18
TORSDOF 8
