REMARK  Name = ZINC39687171
REMARK  11 active torsions:
REMARK  status: ('A' for Active; 'I' for Inactive)
REMARK    1  A    between atoms: C_1  and  C_2
REMARK    2  A    between atoms: C_2  and  C_4
REMARK    3  A    between atoms: C_2  and  N_12
REMARK    4  A    between atoms: C_4  and  C_5
REMARK    5  A    between atoms: C_13  and  C_15
REMARK    6  A    between atoms: C_26  and  C_28
REMARK    7  A    between atoms: C_28  and  C_30
REMARK    8  A    between atoms: C_28  and  O_33
REMARK    9  A    between atoms: C_30  and  C_31
REMARK   10  A    between atoms: C_30  and  C_32
REMARK   11  A    between atoms: O_33  and  C_34
REMARK                            x       y       z     vdW  Elec       q    Type
REMARK                         _______ _______ _______ _____ _____    ______ ____
ROOT
ATOM      1  C   UNL     1       0.286  -1.323   4.171  0.00  0.00    +0.100 C 
ATOM      2  C   UNL     1       1.544  -0.428   4.237  0.00  0.00    +0.121 C 
ATOM      3  N   UNL     1       1.200   0.629   5.217  0.00  0.00    -0.297 N 
ATOM      4  C   UNL     1       0.443  -0.081   6.276  0.00  0.00    +0.115 C 
ATOM      5  C   UNL     1      -0.431  -1.095   5.513  0.00  0.00    -0.004 C 
ATOM      6  C   UNL     1      -0.524  -2.404   6.291  0.00  0.00    -0.010 C 
ATOM      7  C   UNL     1      -1.292  -2.165   7.594  0.00  0.00    -0.082 C 
ATOM      8  N   UNL     1      -2.636  -1.659   7.286  0.00  0.00    +0.379 N 
ATOM      9  C   UNL     1      -2.539  -0.355   6.620  0.00  0.00    -0.082 C 
ATOM     10  C   UNL     1      -1.823  -0.517   5.276  0.00  0.00    -0.010 C 
ATOM     11  C   UNL     1       1.506   1.941   5.160  0.00  0.00    +0.257 C 
ATOM     12  O   UNL     1       2.059   2.392   4.179  0.00  0.00    -0.272 OA
ATOM     13  H   UNL     1      -3.108  -2.312   6.679  0.00  0.00    -0.086 HD
ATOM     14  H   UNL     1      -3.160  -1.560   8.142  0.00  0.00    -0.086 HD
ENDROOT
BRANCH   1  16
ATOM     15  N   UNL     1      -1.360  -1.815   2.392  0.00  0.00    -0.312 N 
ATOM     16  C   UNL     1      -0.598  -0.902   3.026  0.00  0.00    +0.218 C 
ATOM     17  O   UNL     1      -0.624   0.258   2.674  0.00  0.00    -0.275 OA
ATOM     18  H   UNL     1      -1.340  -2.743   2.674  0.00  0.00    +0.149 HD
BRANCH  15  20
ATOM     19  C   UNL     1      -1.407  -1.401  -0.018  0.00  0.00    +0.028 C 
ATOM     20  C   UNL     1      -2.220  -1.406   1.278  0.00  0.00    +0.074 C 
BRANCH  20  21
ATOM     21  C   UNL     1      -3.385  -2.389   1.146  0.00  0.00    +0.060 C 
BRANCH  21  22
ATOM     22  C   UNL     1      -4.255  -2.305   2.373  0.00  0.00    -0.010 A 
ATOM     23  C   UNL     1      -4.059  -3.183   3.422  0.00  0.00    +0.006 A 
ATOM     24  C   UNL     1      -4.857  -3.106   4.548  0.00  0.00    +0.000 A 
ATOM     25  C   UNL     1      -5.853  -2.150   4.626  0.00  0.00    +0.003 A 
ATOM     26  C   UNL     1      -6.051  -1.271   3.578  0.00  0.00    +0.038 A 
ATOM     27  C   UNL     1      -5.249  -1.344   2.452  0.00  0.00    +0.127 A 
ATOM     28  F   UNL     1      -5.439  -0.481   1.430  0.00  0.00    -0.205 F 
ENDBRANCH  21  22
ENDBRANCH  20  21
ENDBRANCH  15  20
ENDBRANCH   1  16
BRANCH  11  29
ATOM     29  C   UNL     1       1.161   2.847   6.314  0.00  0.00    +0.261 C 
BRANCH  29  30
ATOM     30  C   UNL     1       1.977   2.440   7.542  0.00  0.00    +0.033 C 
ATOM     31  C   UNL     1       3.466   2.659   7.261  0.00  0.00    +0.011 C 
ATOM     32  C   UNL     1       1.554   3.292   8.740  0.00  0.00    +0.011 C 
ENDBRANCH  29  30
BRANCH  29  33
ATOM     33  O   UNL     1       1.466   4.199   5.965  0.00  0.00    -0.479 OA
BRANCH  33  34
ATOM     34  C   UNL     1       0.630   5.161   6.437  0.00  0.00    +0.122 A 
ATOM     35  C   UNL     1       0.861   6.494   6.129  0.00  0.00    +0.045 A 
ATOM     36  C   UNL     1       0.009   7.470   6.609  0.00  0.00    +0.004 A 
ATOM     37  C   UNL     1      -1.072   7.119   7.396  0.00  0.00    +0.000 A 
ATOM     38  C   UNL     1      -1.304   5.791   7.704  0.00  0.00    +0.004 A 
ATOM     39  C   UNL     1      -0.459   4.811   7.222  0.00  0.00    +0.045 A 
ENDBRANCH  33  34
ENDBRANCH  29  33
ENDBRANCH  11  29
TORSDOF 8
