REMARK  Name = ZINC12528890
REMARK  13 active torsions:
REMARK  status: ('A' for Active; 'I' for Inactive)
REMARK    1  A    between atoms: C_1  and  C_2
REMARK    2  A    between atoms: C_15  and  C_17
REMARK    3  A    between atoms: C_17  and  O_18
REMARK    4  A    between atoms: O_18  and  C_19
REMARK    5  A    between atoms: C_19  and  C_21
REMARK    6  A    between atoms: C_21  and  C_23
REMARK    7  A    between atoms: C_21  and  N_27
REMARK    8  A    between atoms: C_23  and  C_25
REMARK    9  A    between atoms: C_23  and  O_26
REMARK   10  A    between atoms: N_27  and  S_28
REMARK   11  A    between atoms: S_28  and  C_31
REMARK   12  A    between atoms: C_34  and  O_37
REMARK   13  A    between atoms: O_37  and  C_38
REMARK                            x       y       z     vdW  Elec       q    Type
REMARK                         _______ _______ _______ _____ _____    ______ ____
ROOT
ATOM      1  C   UNL     1       1.264   1.432   2.474  0.00  0.00    +0.329 C 
ATOM      2  O   UNL     1       0.927   0.544   3.222  0.00  0.00    -0.249 OA
ENDROOT
BRANCH   1   3
ATOM      3  O   UNL     1       0.924   2.702   2.746  0.00  0.00    -0.456 OA
BRANCH   3   4
ATOM      4  C   UNL     1       0.153   2.935   3.954  0.00  0.00    +0.306 C 
BRANCH   4  18
ATOM      5  C   UNL     1      -1.112  12.846   3.993  0.00  0.00    +0.008 C 
ATOM      6  C   UNL     1      -0.761  11.389   4.300  0.00  0.00    -0.009 C 
ATOM      7  C   UNL     1      -1.993  10.671   4.858  0.00  0.00    +0.008 C 
ATOM      8  C   UNL     1      -1.594   9.296   5.397  0.00  0.00    +0.037 C 
ATOM      9  C   UNL     1      -0.828   8.545   4.311  0.00  0.00    -0.023 A 
ATOM     10  C   UNL     1      -0.281   9.207   3.270  0.00  0.00    -0.004 A 
ATOM     11  S   UNL     1       0.491   7.953   2.283  0.00  0.00    -0.073 S 
ATOM     12  C   UNL     1       0.076   6.541   3.276  0.00  0.00    +0.116 A 
ATOM     13  C   UNL     1      -0.651   7.094   4.342  0.00  0.00    +0.075 A 
ATOM     14  C   UNL     1      -1.123   6.160   5.321  0.00  0.00    +0.260 A 
ATOM     15  O   UNL     1      -1.765   6.542   6.284  0.00  0.00    -0.267 OA
ATOM     16  N   UNL     1      -0.850   4.852   5.156  0.00  0.00    -0.308 N 
ATOM     17  H   UNL     1      -1.170   4.213   5.812  0.00  0.00    +0.170 HD
ATOM     18  C   UNL     1      -0.132   4.408   4.092  0.00  0.00    +0.149 A 
ATOM     19  N   UNL     1       0.311   5.235   3.183  0.00  0.00    -0.223 NA
ATOM     20  C   UNL     1      -0.321  10.682   3.010  0.00  0.00    +0.046 C 
ENDBRANCH   4  18
ENDBRANCH   3   4
ENDBRANCH   1   3
BRANCH   1  21
ATOM     21  C   UNL     1       2.064   1.114   1.238  0.00  0.00    +0.213 C 
BRANCH  21  22
ATOM     22  C   UNL     1       1.286   1.562  -0.002  0.00  0.00    +0.141 C 
ATOM     23  C   UNL     1       2.040   1.127  -1.261  0.00  0.00    +0.040 C 
BRANCH  22  24
ATOM     24  O   UNL     1      -0.011   0.963   0.007  0.00  0.00    -0.390 OA
ATOM     25  H   UNL     1       0.002  -0.004   0.002  0.00  0.00    +0.210 HD
ENDBRANCH  22  24
ENDBRANCH  21  22
BRANCH  21  26
ATOM     26  N   UNL     1       2.303  -0.330   1.169  0.00  0.00    -0.174 NA
ATOM     27  H   UNL     1       1.626  -0.949   1.484  0.00  0.00    +0.149 HD
BRANCH  26  28
ATOM     28  S   UNL     1       3.729  -0.904   0.553  0.00  0.00    +0.059 S 
ATOM     29  O   UNL     1       3.669  -2.321   0.646  0.00  0.00    -0.153 OA
ATOM     30  O   UNL     1       3.940  -0.230  -0.679  0.00  0.00    -0.153 OA
BRANCH  28  31
ATOM     31  C   UNL     1       5.013  -0.383   1.641  0.00  0.00    +0.105 A 
ATOM     32  C   UNL     1       5.651   0.825   1.426  0.00  0.00    +0.032 A 
ATOM     33  C   UNL     1       6.654   1.239   2.280  0.00  0.00    +0.047 A 
ATOM     34  C   UNL     1       7.030   0.437   3.347  0.00  0.00    +0.120 A 
ATOM     35  C   UNL     1       6.393  -0.777   3.557  0.00  0.00    +0.047 A 
ATOM     36  C   UNL     1       5.386  -1.184   2.704  0.00  0.00    +0.032 A 
BRANCH  34  37
ATOM     37  O   UNL     1       8.021   0.839   4.186  0.00  0.00    -0.495 OA
ATOM     38  C   UNL     1       8.633   2.101   3.909  0.00  0.00    +0.277 C 
ENDBRANCH  34  37
ENDBRANCH  28  31
ENDBRANCH  26  28
ENDBRANCH  21  26
ENDBRANCH   1  21
TORSDOF 10
