REMARK  Name = ZINC06281139
REMARK  8 active torsions:
REMARK  status: ('A' for Active; 'I' for Inactive)
REMARK    1  A    between atoms: C_1  and  C_2
REMARK    2  A    between atoms: C_4  and  O_28
REMARK    3  A    between atoms: C_7  and  N_8
REMARK    4  A    between atoms: N_8  and  C_9
REMARK    5  A    between atoms: C_11  and  C_27
REMARK    6  A    between atoms: C_12  and  C_25
REMARK    7  A    between atoms: N_15  and  C_18
REMARK    8  A    between atoms: C_18  and  C_19
REMARK                            x       y       z     vdW  Elec       q    Type
REMARK                         _______ _______ _______ _____ _____    ______ ____
ROOT
ATOM      1  C   UNL     1       0.045  -0.693   3.577  0.00  0.00    +0.085 C 
ATOM      2  C   UNL     1       0.151  -0.006   4.784  0.00  0.00    +0.055 C 
ATOM      3  C   UNL     1       0.285  -0.713   5.999  0.00  0.00    -0.015 C 
ATOM      4  C   UNL     1       0.389   0.006   7.181  0.00  0.00    +0.118 C 
ATOM      5  C   UNL     1       0.358   1.469   7.142  0.00  0.00    +0.264 C 
ATOM      6  O   UNL     1       0.450   2.100   8.179  0.00  0.00    -0.269 OA
ATOM      7  N   UNL     1       0.230   2.124   5.975  0.00  0.00    -0.229 N 
ATOM      8  C   UNL     1       0.132   1.462   4.808  0.00  0.00    +0.255 C 
ATOM      9  O   UNL     1       0.022   2.083   3.767  0.00  0.00    -0.269 OA
ATOM     10  C   UNL     1       0.314  -2.220   6.012  0.00  0.00    +0.046 C 
ENDROOT
BRANCH   1  11
ATOM     11  N   UNL     1       0.132  -0.024   2.413  0.00  0.00    -0.320 N 
ATOM     12  H   UNL     1       0.345   0.922   2.412  0.00  0.00    +0.152 HD
BRANCH  11  19
ATOM     13  C   UNL     1       0.338   1.466  -0.001  0.00  0.00    +0.046 C 
ATOM     14  C   UNL     1       0.006  -0.004   0.002  0.00  0.00    -0.026 A 
ATOM     15  C   UNL     1      -0.203  -0.667  -1.191  0.00  0.00    +0.050 A 
ATOM     16  C   UNL     1      -0.508  -2.020  -1.189  0.00  0.00    +0.117 A 
ATOM     17  C   UNL     1      -0.604  -2.709   0.012  0.00  0.00    +0.047 A 
ATOM     18  C   UNL     1      -0.396  -2.048   1.206  0.00  0.00    +0.027 A 
ATOM     19  C   UNL     1      -0.084  -0.694   1.204  0.00  0.00    +0.034 A 
BRANCH  16  20
ATOM     20  O   UNL     1      -0.713  -2.672  -2.364  0.00  0.00    -0.507 OA
ATOM     21  H   UNL     1       0.088  -3.054  -2.747  0.00  0.00    +0.292 HD
ENDBRANCH  16  20
ENDBRANCH  11  19
ENDBRANCH   1  11
BRANCH   4  22
ATOM     22  C   UNL     1       0.526  -0.678   8.431  0.00  0.00    +0.105 C 
ATOM     23  N   UNL     1       0.634  -1.222   9.423  0.00  0.00    -0.191 NA
ENDBRANCH   4  22
BRANCH   7  24
ATOM     24  C   UNL     1       0.202   3.589   5.973  0.00  0.00    +0.152 C 
BRANCH  24  25
ATOM     25  C   UNL     1       1.606   4.118   5.833  0.00  0.00    -0.030 A 
ATOM     26  C   UNL     1       2.370   4.358   6.959  0.00  0.00    +0.005 A 
ATOM     27  C   UNL     1       3.658   4.844   6.830  0.00  0.00    +0.000 A 
ATOM     28  C   UNL     1       4.182   5.088   5.574  0.00  0.00    +0.000 A 
ATOM     29  C   UNL     1       3.419   4.846   4.448  0.00  0.00    +0.000 A 
ATOM     30  C   UNL     1       2.132   4.357   4.577  0.00  0.00    +0.005 A 
ENDBRANCH  24  25
ENDBRANCH   7  24
TORSDOF 6
