REMARK  Name = ZINC43414897
REMARK  9 active torsions:
REMARK  status: ('A' for Active; 'I' for Inactive)
REMARK    1  A    between atoms: C_2  and  C_21
REMARK    2  A    between atoms: C_5  and  O_10
REMARK    3  A    between atoms: C_6  and  N_7
REMARK    4  A    between atoms: O_10  and  C_11
REMARK    5  A    between atoms: C_11  and  C_12
REMARK    6  A    between atoms: C_12  and  C_14
REMARK    7  A    between atoms: C_12  and  O_19
REMARK    8  A    between atoms: C_14  and  N_15
REMARK    9  A    between atoms: N_15  and  C_16
REMARK                            x       y       z     vdW  Elec       q    Type
REMARK                         _______ _______ _______ _____ _____    ______ ____
ROOT
ATOM      1  C   UNL     1      -0.017   1.373   0.010  0.00  0.00    +0.055 A 
ATOM      2  C   UNL     1       1.185   2.087   0.002  0.00  0.00    +0.055 A 
ATOM      3  C   UNL     1       2.401   1.399  -0.013  0.00  0.00    +0.037 A 
ATOM      4  C   UNL     1       2.411   0.021  -0.021  0.00  0.00    +0.058 A 
ATOM      5  C   UNL     1       1.214  -0.685  -0.014  0.00  0.00    +0.164 A 
ATOM      6  C   UNL     1       0.002  -0.004   0.002  0.00  0.00    +0.170 A 
ATOM      7  I   UNL     1       4.234  -1.012  -0.044  0.00  0.00    -0.040 I 
ENDROOT
BRANCH   6   8
ATOM      8  N   UNL     1      -1.270  -0.760   0.010  0.00  0.00    +0.060 N 
ATOM      9  O   UNL     1      -2.325  -0.169   0.023  0.00  0.00    -0.126 OA
ATOM     10  O   UNL     1      -1.255  -1.969   0.004  0.00  0.00    -0.126 OA
ENDBRANCH   6   8
BRANCH   2  11
ATOM     11  C   UNL     1       1.170   3.518   0.009  0.00  0.00    +0.099 C 
ATOM     12  N   UNL     1       1.158   4.654   0.015  0.00  0.00    -0.191 NA
ENDBRANCH   2  11
BRANCH   5  13
ATOM     13  O   UNL     1       1.227  -2.042  -0.022  0.00  0.00    -0.486 OA
BRANCH  13  14
ATOM     14  C   UNL     1       1.246  -2.699   1.247  0.00  0.00    +0.258 C 
BRANCH  14  15
ATOM     15  C   UNL     1       1.260  -4.214   1.037  0.00  0.00    +0.135 C 
BRANCH  15  16
ATOM     16  O   UNL     1       2.479  -4.595   0.397  0.00  0.00    -0.390 OA
ATOM     17  H   UNL     1       3.274  -4.370   0.898  0.00  0.00    +0.210 HD
ENDBRANCH  15  16
BRANCH  15  18
ATOM     18  C   UNL     1       1.154  -4.917   2.392  0.00  0.00    -0.047 C 
BRANCH  18  19
ATOM     19  N   UNL     1       1.167  -6.372   2.191  0.00  0.00    +0.383 N 
ATOM     20  H   UNL     1       0.385  -6.639   1.611  0.00  0.00    -0.085 HD
ATOM     21  H   UNL     1       2.027  -6.642   1.738  0.00  0.00    -0.085 HD
BRANCH  19  22
ATOM     22  C   UNL     1       1.065  -7.048   3.491  0.00  0.00    -0.072 C 
ATOM     23  C   UNL     1       2.249  -7.910   3.934  0.00  0.00    -0.017 C 
ATOM     24  C   UNL     1       0.944  -8.573   3.488  0.00  0.00    -0.017 C 
ENDBRANCH  19  22
ENDBRANCH  18  19
ENDBRANCH  15  18
ENDBRANCH  14  15
ENDBRANCH  13  14
ENDBRANCH   5  13
TORSDOF 9
