REMARK  Name = ZINC66610970
REMARK  6 active torsions:
REMARK  status: ('A' for Active; 'I' for Inactive)
REMARK    1  A    between atoms: C_1  and  O_2
REMARK    2  A    between atoms: O_2  and  C_3
REMARK    3  A    between atoms: C_3  and  C_5
REMARK    4  A    between atoms: C_19  and  C_21
REMARK    5  A    between atoms: C_27  and  O_29
REMARK    6  A    between atoms: O_29  and  C_30
REMARK                            x       y       z     vdW  Elec       q    Type
REMARK                         _______ _______ _______ _____ _____    ______ ____
ROOT
ATOM      1  C   UNL     1      -1.247  -2.106   0.003  0.00  0.00    +0.060 A 
ATOM      2  C   UNL     1      -0.060  -2.853  -0.007  0.00  0.00    +0.017 A 
ATOM      3  C   UNL     1      -0.098  -4.216  -0.014  0.00  0.00    +0.027 A 
ATOM      4  C   UNL     1      -1.320  -4.886  -0.012  0.00  0.00    +0.047 A 
ATOM      5  C   UNL     1      -2.521  -4.146  -0.002  0.00  0.00    +0.005 A 
ATOM      6  C   UNL     1      -2.479  -2.754   0.011  0.00  0.00    +0.025 A 
ATOM      7  C   UNL     1      -3.595  -5.135  -0.003  0.00  0.00    -0.002 A 
ATOM      8  C   UNL     1      -3.023  -6.353  -0.014  0.00  0.00    +0.023 A 
ATOM      9  N   UNL     1      -1.662  -6.217  -0.016  0.00  0.00    -0.358 N 
ATOM     10  H   UNL     1      -1.030  -6.953  -0.021  0.00  0.00    +0.166 HD
ATOM     11  C   UNL     1      -3.797  -7.651  -0.029  0.00  0.00    +0.072 C 
ATOM     12  C   UNL     1      -5.235  -7.377   0.429  0.00  0.00    +0.114 C 
ATOM     13  N   UNL     1      -5.742  -6.181  -0.261  0.00  0.00    -0.295 N 
ATOM     14  C   UNL     1      -5.083  -4.890   0.011  0.00  0.00    +0.145 C 
ATOM     15  C   UNL     1      -6.779  -6.263  -1.117  0.00  0.00    +0.237 C 
ATOM     16  O   UNL     1      -7.184  -5.266  -1.677  0.00  0.00    -0.274 OA
ENDROOT
BRANCH  15  17
ATOM     17  C   UNL     1      -7.436  -7.594  -1.380  0.00  0.00    +0.165 C 
ATOM     18  C   UNL     1      -8.419  -7.928  -0.238  0.00  0.00    +0.033 C 
ATOM     19  C   UNL     1      -9.607  -8.590  -0.985  0.00  0.00    +0.021 C 
ATOM     20  C   UNL     1      -9.635  -7.780  -2.305  0.00  0.00    +0.112 C 
ATOM     21  N   UNL     1      -8.214  -7.530  -2.626  0.00  0.00    -0.256 N 
ATOM     22  C   UNL     1      -7.715  -7.283  -3.852  0.00  0.00    +0.403 C 
ATOM     23  O   UNL     1      -6.524  -7.089  -3.995  0.00  0.00    -0.226 OA
BRANCH  22  24
ATOM     24  O   UNL     1      -8.535  -7.250  -4.920  0.00  0.00    -0.454 OA
ATOM     25  C   UNL     1      -7.937  -6.983  -6.190  0.00  0.00    +0.282 C 
ENDBRANCH  22  24
ENDBRANCH  15  17
BRANCH   1  26
ATOM     26  C   UNL     1      -1.190  -0.632   0.010  0.00  0.00    +0.339 C 
ATOM     27  O   UNL     1      -2.218   0.016   0.023  0.00  0.00    -0.245 OA
BRANCH  26  29
ATOM     28  C   UNL     1      -0.017   1.425   0.010  0.00  0.00    +0.280 C 
ATOM     29  O   UNL     1       0.002  -0.004   0.002  0.00  0.00    -0.464 OA
ENDBRANCH  26  29
ENDBRANCH   1  26
TORSDOF 4
