REMARK  Name = ZINC49937301
REMARK  4 active torsions:
REMARK  status: ('A' for Active; 'I' for Inactive)
REMARK    1  A    between atoms: C_7  and  C_26
REMARK    2  A    between atoms: N_17  and  C_20
REMARK    3  A    between atoms: C_29  and  S_32
REMARK    4  A    between atoms: S_32  and  C_33
REMARK                            x       y       z     vdW  Elec       q    Type
REMARK                         _______ _______ _______ _____ _____    ______ ____
ROOT
ATOM      1  C   UNL     1      -0.233   1.300  -0.266  0.00  0.00    +0.033 C 
ATOM      2  C   UNL     1      -0.146  -0.036  -0.183  0.00  0.00    +0.031 C 
ATOM      3  C   UNL     1      -1.355  -0.874  -0.091  0.00  0.00    +0.090 C 
ATOM      4  C   UNL     1      -1.228  -2.214  -0.213  0.00  0.00    +0.249 C 
ATOM      5  O   UNL     1      -2.328  -3.003  -0.165  0.00  0.00    -0.270 OA
ATOM      6  N   UNL     1       0.017  -2.782  -0.385  0.00  0.00    -0.215 N 
ATOM      7  C   UNL     1       0.181  -4.240  -0.334  0.00  0.00    +0.211 C 
ATOM      8  N   UNL     1       1.279  -4.634  -1.220  0.00  0.00    -0.335 N 
ATOM      9  C   UNL     1       2.231  -3.795  -1.525  0.00  0.00    +0.196 C 
ATOM     10  N   UNL     1       2.212  -2.516  -1.110  0.00  0.00    -0.186 NA
ATOM     11  C   UNL     1       1.129  -2.002  -0.569  0.00  0.00    +0.199 C 
ATOM     12  N   UNL     1       1.099  -0.686  -0.187  0.00  0.00    -0.287 N 
ATOM     13  N   UNL     1       3.288  -4.233  -2.297  0.00  0.00    -0.298 N 
ATOM     14  C   UNL     1       3.919  -3.339  -3.278  0.00  0.00    +0.127 C 
ATOM     15  C   UNL     1       5.422  -3.268  -2.981  0.00  0.00    +0.124 C 
ATOM     16  N   UNL     1       5.938  -4.637  -2.836  0.00  0.00    -0.327 N 
ATOM     17  C   UNL     1       5.307  -5.531  -1.855  0.00  0.00    +0.124 C 
ATOM     18  C   UNL     1       3.807  -5.600  -2.147  0.00  0.00    +0.127 C 
ATOM     19  H   UNL     1       1.910  -0.222   0.075  0.00  0.00    +0.155 HD
ATOM     20  H   UNL     1       1.300  -5.532  -1.585  0.00  0.00    +0.164 HD
ENDROOT
BRANCH  16  21
ATOM     21  C   UNL     1       7.007  -5.080  -3.617  0.00  0.00    +0.030 A 
ATOM     22  C   UNL     1       7.677  -4.192  -4.449  0.00  0.00    +0.023 A 
ATOM     23  C   UNL     1       8.734  -4.634  -5.219  0.00  0.00    +0.002 A 
ATOM     24  C   UNL     1       9.127  -5.959  -5.163  0.00  0.00    +0.000 A 
ATOM     25  C   UNL     1       8.463  -6.845  -4.336  0.00  0.00    +0.002 A 
ATOM     26  C   UNL     1       7.408  -6.409  -3.559  0.00  0.00    +0.023 A 
ENDBRANCH  16  21
BRANCH   7  27
ATOM     27  C   UNL     1       0.495  -4.662   1.078  0.00  0.00    -0.007 A 
ATOM     28  C   UNL     1       0.003  -3.929   2.143  0.00  0.00    +0.008 A 
ATOM     29  C   UNL     1       0.289  -4.313   3.438  0.00  0.00    +0.015 A 
ATOM     30  C   UNL     1       1.073  -5.437   3.671  0.00  0.00    +0.008 A 
ATOM     31  C   UNL     1       1.565  -6.171   2.598  0.00  0.00    +0.015 A 
ATOM     32  C   UNL     1       1.270  -5.784   1.306  0.00  0.00    +0.008 A 
BRANCH  30  33
ATOM     33  S   UNL     1       1.442  -5.929   5.322  0.00  0.00    -0.129 S 
ATOM     34  C   UNL     1       2.467  -7.412   5.119  0.00  0.00    +0.090 C 
ENDBRANCH  30  33
ENDBRANCH   7  27
TORSDOF 3
