REMARK  Name = ZINC39668270
REMARK  7 active torsions:
REMARK  status: ('A' for Active; 'I' for Inactive)
REMARK    1  A    between atoms: C_1  and  C_2
REMARK    2  A    between atoms: C_2  and  S_3
REMARK    3  A    between atoms: S_3  and  C_4
REMARK    4  A    between atoms: C_5  and  C_10
REMARK    5  A    between atoms: C_14  and  C_23
REMARK    6  A    between atoms: N_25  and  C_26
REMARK    7  A    between atoms: C_26  and  C_27
REMARK                            x       y       z     vdW  Elec       q    Type
REMARK                         _______ _______ _______ _____ _____    ______ ____
ROOT
ATOM      1  C   UNL     1       1.890  -2.660  -3.424  0.00  0.00    +0.249 C 
ATOM      2  O   UNL     1       1.894  -1.446  -3.502  0.00  0.00    -0.270 OA
ATOM      3  N   UNL     1       2.583  -3.395  -4.316  0.00  0.00    -0.296 N 
ATOM      4  C   UNL     1       2.616  -4.870  -4.447  0.00  0.00    +0.121 C 
ATOM      5  C   UNL     1       2.626  -5.126  -5.971  0.00  0.00    +0.100 C 
ATOM      6  C   UNL     1       3.200  -3.837  -6.582  0.00  0.00    -0.004 C 
ATOM      7  C   UNL     1       3.481  -2.909  -5.391  0.00  0.00    +0.115 C 
ATOM      8  C   UNL     1       2.178  -3.193  -7.514  0.00  0.00    -0.010 C 
ATOM      9  C   UNL     1       2.792  -1.944  -8.153  0.00  0.00    -0.082 C 
ATOM     10  N   UNL     1       3.999  -2.318  -8.900  0.00  0.00    +0.379 N 
ATOM     11  C   UNL     1       5.012  -2.851  -7.981  0.00  0.00    -0.082 C 
ATOM     12  C   UNL     1       4.492  -4.138  -7.335  0.00  0.00    -0.010 C 
ATOM     13  H   UNL     1       3.764  -3.021  -9.585  0.00  0.00    -0.086 HD
ATOM     14  H   UNL     1       4.367  -1.504  -9.370  0.00  0.00    -0.086 HD
ENDROOT
BRANCH   1  16
ATOM     15  C   UNL     1      -0.102  -2.802  -1.916  0.00  0.00    +0.109 A 
ATOM     16  C   UNL     1       1.127  -3.327  -2.353  0.00  0.00    +0.069 A 
ATOM     17  C   UNL     1       1.613  -4.495  -1.754  0.00  0.00    +0.017 A 
ATOM     18  C   UNL     1       0.859  -5.083  -0.754  0.00  0.00    +0.020 A 
ATOM     19  C   UNL     1      -0.342  -4.508  -0.377  0.00  0.00    +0.112 A 
ATOM     20  N   UNL     1      -0.780  -3.404  -0.950  0.00  0.00    -0.248 NA
BRANCH  15  21
ATOM     21  S   UNL     1      -0.739  -1.333  -2.650  0.00  0.00    -0.105 S 
BRANCH  21  23
ATOM     22  C   UNL     1      -2.969   0.217  -2.322  0.00  0.00    +0.015 C 
ATOM     23  C   UNL     1      -2.301  -1.046  -1.775  0.00  0.00    +0.072 C 
ENDBRANCH  21  23
ENDBRANCH  15  21
ENDBRANCH   1  16
BRANCH   5  24
ATOM     24  C   UNL     1       3.508  -6.303  -6.300  0.00  0.00    +0.218 C 
ATOM     25  O   UNL     1       4.474  -6.549  -5.608  0.00  0.00    -0.275 OA
ATOM     26  N   UNL     1       3.225  -7.082  -7.362  0.00  0.00    -0.311 N 
ATOM     27  H   UNL     1       2.452  -6.886  -7.915  0.00  0.00    +0.149 HD
BRANCH  26  28
ATOM     28  C   UNL     1       4.082  -8.226  -7.681  0.00  0.00    +0.139 C 
BRANCH  28  29
ATOM     29  C   UNL     1       3.551  -8.926  -8.905  0.00  0.00    -0.030 A 
ATOM     30  C   UNL     1       2.626  -9.946  -8.775  0.00  0.00    +0.009 A 
ATOM     31  C   UNL     1       2.133 -10.587  -9.892  0.00  0.00    +0.046 A 
ATOM     32  C   UNL     1       2.563 -10.213 -11.162  0.00  0.00    +0.124 A 
ATOM     33  C   UNL     1       3.498  -9.193 -11.281  0.00  0.00    -0.002 A 
ATOM     34  C   UNL     1       3.982  -8.548 -10.164  0.00  0.00    +0.012 A 
ATOM     35  C   UNL     1       3.789  -9.026 -12.759  0.00  0.00    +0.080 C 
ATOM     36  C   UNL     1       3.203 -10.330 -13.350  0.00  0.00    +0.234 C 
ATOM     37  O   UNL     1       2.204 -10.696 -12.383  0.00  0.00    -0.491 OA
ENDBRANCH  28  29
ENDBRANCH  26  28
ENDBRANCH   5  24
TORSDOF 6
