REMARK  Name = ZINC13725022
REMARK  4 active torsions:
REMARK  status: ('A' for Active; 'I' for Inactive)
REMARK    1  A    between atoms: C_1  and  C_2
REMARK    2  A    between atoms: C_3  and  C_13
REMARK    3  A    between atoms: C_5  and  C_7
REMARK    4  A    between atoms: C_13  and  N_15
REMARK                            x       y       z     vdW  Elec       q    Type
REMARK                         _______ _______ _______ _____ _____    ______ ____
ROOT
ATOM      1  C   UNL     1      -0.008  -0.254  -2.573  0.00  0.00    +0.278 C 
ATOM      2  O   UNL     1      -0.025   0.942  -2.810  0.00  0.00    -0.267 OA
ENDROOT
BRANCH   1   3
ATOM      3  N   UNL     1      -0.001  -1.137  -3.582  0.00  0.00    -0.152 NA
ATOM      4  C   UNL     1      -0.013  -0.709  -4.838  0.00  0.00    +0.164 A 
ATOM      5  N   UNL     1      -0.028   0.573  -5.304  0.00  0.00    -0.335 N 
ATOM      6  H   UNL     1      -0.030   1.314  -4.678  0.00  0.00    +0.168 HD
ATOM      7  C   UNL     1      -0.039   0.820  -6.665  0.00  0.00    +0.055 A 
ATOM      8  C   UNL     1      -0.055   2.070  -7.308  0.00  0.00    +0.027 A 
ATOM      9  C   UNL     1      -0.066   2.158  -8.679  0.00  0.00    +0.002 A 
ATOM     10  C   UNL     1      -0.061   1.022  -9.472  0.00  0.00    +0.001 A 
ATOM     11  C   UNL     1      -0.045  -0.222  -8.867  0.00  0.00    +0.017 A 
ATOM     12  C   UNL     1      -0.035  -0.310  -7.495  0.00  0.00    +0.039 A 
ATOM     13  S   UNL     1      -0.007  -1.665  -6.346  0.00  0.00    -0.052 S 
ENDBRANCH   1   3
BRANCH   1  16
ATOM     14  C   UNL     1      -0.018   1.503   0.010  0.00  0.00    +0.067 C 
ATOM     15  C   UNL     1       0.002  -0.004   0.002  0.00  0.00    +0.058 A 
ATOM     16  C   UNL     1       0.006  -0.729  -1.181  0.00  0.00    +0.099 A 
ATOM     17  S   UNL     1       0.032  -2.397  -0.545  0.00  0.00    -0.062 S 
ATOM     18  C   UNL     1       0.035  -2.021   1.095  0.00  0.00    +0.109 A 
ATOM     19  N   UNL     1       0.022  -0.699   1.110  0.00  0.00    -0.243 NA
BRANCH  18  20
ATOM     20  C   UNL     1       0.053  -2.948   2.246  0.00  0.00    +0.007 A 
ATOM     21  C   UNL     1       0.046  -2.448   3.550  0.00  0.00    +0.010 A 
ATOM     22  C   UNL     1       0.064  -3.319   4.619  0.00  0.00    +0.001 A 
ATOM     23  C   UNL     1       0.087  -4.685   4.403  0.00  0.00    +0.000 A 
ATOM     24  C   UNL     1       0.095  -5.187   3.114  0.00  0.00    +0.001 A 
ATOM     25  C   UNL     1       0.071  -4.328   2.035  0.00  0.00    +0.010 A 
ENDBRANCH  18  20
ENDBRANCH   1  16
TORSDOF 3
