REMARK  Name = ZINC08764790
REMARK  8 active torsions:
REMARK  status: ('A' for Active; 'I' for Inactive)
REMARK    1  A    between atoms: C_1  and  S_2
REMARK    2  A    between atoms: S_2  and  C_3
REMARK    3  A    between atoms: C_3  and  C_4
REMARK    4  A    between atoms: C_4  and  C_5
REMARK    5  A    between atoms: C_5  and  C_7
REMARK    6  A    between atoms: C_5  and  N_23
REMARK    7  A    between atoms: C_24  and  C_26
REMARK    8  A    between atoms: C_26  and  C_27
REMARK                            x       y       z     vdW  Elec       q    Type
REMARK                         _______ _______ _______ _____ _____    ______ ____
ROOT
ATOM      1  C   UNL     1      -0.069   0.096  -0.076  0.00  0.00    +0.236 C 
ATOM      2  O   UNL     1       1.021  -0.360   0.198  0.00  0.00    -0.274 OA
ATOM      3  N   UNL     1      -0.174   1.351  -0.555  0.00  0.00    -0.300 N 
ATOM      4  C   UNL     1      -1.471   1.876  -1.002  0.00  0.00    +0.107 C 
ATOM      5  C   UNL     1      -1.329   2.406  -2.427  0.00  0.00    +0.013 C 
ATOM      6  C   UNL     1      -0.186   3.420  -2.481  0.00  0.00    -0.020 C 
ATOM      7  C   UNL     1       1.125   2.744  -2.081  0.00  0.00    +0.013 C 
ATOM      8  C   UNL     1       1.009   2.218  -0.646  0.00  0.00    +0.107 C 
ATOM      9  C   UNL     1      -0.067   3.976  -3.877  0.00  0.00    +0.051 A 
ATOM     10  C   UNL     1      -0.516   5.203  -4.226  0.00  0.00    +0.035 A 
ATOM     11  N   UNL     1      -0.243   5.369  -5.546  0.00  0.00    -0.348 N 
ATOM     12  H   UNL     1      -0.452   6.175  -6.101  0.00  0.00    +0.166 HD
ATOM     13  C   UNL     1       0.366   4.237  -5.970  0.00  0.00    +0.196 A 
ATOM     14  N   UNL     1       0.466   3.410  -4.960  0.00  0.00    -0.242 NA
ATOM     15  C   UNL     1      -1.188   6.148  -3.263  0.00  0.00    +0.036 C 
ATOM     16  C   UNL     1      -1.604   5.341  -2.024  0.00  0.00    -0.075 C 
ATOM     17  N   UNL     1      -0.462   4.534  -1.547  0.00  0.00    +0.387 N 
ATOM     18  H   UNL     1       0.370   5.132  -1.480  0.00  0.00    -0.085 HD
ATOM     19  H   UNL     1      -0.684   4.150  -0.620  0.00  0.00    -0.085 HD
ENDROOT
BRANCH   1  20
ATOM     20  C   UNL     1      -1.307  -0.742   0.118  0.00  0.00    +0.160 C 
BRANCH  20  21
ATOM     21  N   UNL     1      -0.926  -2.149   0.265  0.00  0.00    -0.304 N 
ATOM     22  C   UNL     1      -1.805  -3.122  -0.049  0.00  0.00    +0.218 C 
ATOM     23  O   UNL     1      -2.911  -2.832  -0.452  0.00  0.00    -0.275 OA
ATOM     24  H   UNL     1      -0.041  -2.381   0.587  0.00  0.00    +0.149 HD
BRANCH  22  25
ATOM     25  C   UNL     1      -1.413  -4.569   0.102  0.00  0.00    +0.130 C 
BRANCH  25  26
ATOM     26  C   UNL     1      -2.566  -5.447  -0.312  0.00  0.00    -0.038 A 
ATOM     27  C   UNL     1      -3.500  -5.848   0.626  0.00  0.00    +0.007 A 
ATOM     28  C   UNL     1      -4.560  -6.649   0.247  0.00  0.00    +0.038 A 
ATOM     29  C   UNL     1      -4.681  -7.059  -1.070  0.00  0.00    +0.123 A 
ATOM     30  C   UNL     1      -3.743  -6.661  -2.007  0.00  0.00    +0.038 A 
ATOM     31  C   UNL     1      -2.686  -5.856  -1.627  0.00  0.00    +0.007 A 
ATOM     32  F   UNL     1      -5.715  -7.846  -1.441  0.00  0.00    -0.205 F 
ENDBRANCH  25  26
ENDBRANCH  22  25
ENDBRANCH  20  21
BRANCH  20  33
ATOM     33  C   UNL     1      -2.043  -0.280   1.377  0.00  0.00    +0.042 C 
BRANCH  33  34
ATOM     34  C   UNL     1      -3.372  -1.029   1.495  0.00  0.00    +0.071 C 
BRANCH  34  36
ATOM     35  C   UNL     1      -5.778  -1.450   2.981  0.00  0.00    +0.084 C 
ATOM     36  S   UNL     1      -4.245  -0.481   2.988  0.00  0.00    -0.164 S 
ENDBRANCH  34  36
ENDBRANCH  33  34
ENDBRANCH  20  33
ENDBRANCH   1  20
TORSDOF 7
