REMARK  Name = ZINC35270677
REMARK  10 active torsions:
REMARK  status: ('A' for Active; 'I' for Inactive)
REMARK    1  A    between atoms: C_1  and  C_2
REMARK    2  A    between atoms: C_6  and  C_33
REMARK    3  A    between atoms: C_7  and  C_32
REMARK    4  A    between atoms: C_13  and  C_17
REMARK    5  A    between atoms: C_18  and  C_31
REMARK    6  A    between atoms: C_23  and  C_29
REMARK    7  A    between atoms: C_23  and  C_30
REMARK    8  A    between atoms: C_25  and  O_28
REMARK    9  A    between atoms: C_33  and  O_35
REMARK   10  A    between atoms: O_35  and  C_36
REMARK                            x       y       z     vdW  Elec       q    Type
REMARK                         _______ _______ _______ _____ _____    ______ ____
ROOT
ATOM      1  C   UNL     1      -0.220   1.849  -0.097  0.00  0.00    +0.060 C 
ATOM      2  C   UNL     1      -0.173   0.317  -0.183  0.00  0.00    +0.240 C 
ATOM      3  C   UNL     1      -1.584  -0.228  -0.228  0.00  0.00    +0.192 C 
ATOM      4  O   UNL     1      -2.271  -0.045  -1.215  0.00  0.00    -0.292 OA
ATOM      5  C   UNL     1      -2.120  -0.973   0.973  0.00  0.00    +0.161 C 
ATOM      6  C   UNL     1      -3.450  -1.645   0.735  0.00  0.00    +0.062 C 
ATOM      7  C   UNL     1      -3.917  -2.459   1.926  0.00  0.00    +0.022 C 
ATOM      8  C   UNL     1      -2.865  -3.439   2.424  0.00  0.00    +0.037 C 
ATOM      9  C   UNL     1      -1.488  -2.816   2.526  0.00  0.00    -0.058 C 
ATOM     10  C   UNL     1      -0.726  -3.127   3.560  0.00  0.00    +0.009 C 
ATOM     11  C   UNL     1      -1.004  -1.915   1.437  0.00  0.00    +0.109 C 
ATOM     12  C   UNL     1       0.109  -0.968   1.852  0.00  0.00    +0.319 C 
ATOM     13  O   UNL     1       0.526  -0.875   2.980  0.00  0.00    -0.250 OA
ATOM     14  O   UNL     1       0.622  -0.204   0.864  0.00  0.00    -0.453 OA
ATOM     15  C   UNL     1      -0.441  -2.764   0.290  0.00  0.00    +0.029 C 
ATOM     16  C   UNL     1      -4.627  -1.743   3.035  0.00  0.00    +0.016 C 
ATOM     17  C   UNL     1      -3.858  -1.706   4.318  0.00  0.00    -0.012 C 
ATOM     18  C   UNL     1      -4.303  -0.968   5.332  0.00  0.00    +0.044 C 
ATOM     19  C   UNL     1      -5.522  -0.179   5.183  0.00  0.00    +0.166 C 
ATOM     20  O   UNL     1      -6.219   0.059   6.146  0.00  0.00    -0.292 OA
ATOM     21  C   UNL     1      -5.888   0.395   3.826  0.00  0.00    +0.053 C 
ATOM     22  C   UNL     1      -5.252  -0.424   2.721  0.00  0.00    -0.002 C 
ATOM     23  C   UNL     1      -5.239   0.073   1.481  0.00  0.00    +0.161 C 
ATOM     24  C   UNL     1      -4.499  -0.595   0.405  0.00  0.00    +0.205 C 
ATOM     25  O   UNL     1      -4.725  -0.315  -0.765  0.00  0.00    -0.288 OA
ATOM     26  C   UNL     1      -7.415   0.409   3.681  0.00  0.00    +0.024 C 
ATOM     27  C   UNL     1      -5.366   1.844   3.788  0.00  0.00    +0.024 C 
ATOM     28  C   UNL     1      -5.824  -2.666   3.343  0.00  0.00    +0.020 C 
ATOM     29  C   UNL     1      -3.401  -2.585  -0.493  0.00  0.00    +0.021 C 
ENDROOT
BRANCH  23  30
ATOM     30  O   UNL     1      -5.949   1.198   1.163  0.00  0.00    -0.503 OA
ATOM     31  H   UNL     1      -5.867   1.467   0.238  0.00  0.00    +0.292 HD
ENDBRANCH  23  30
BRANCH   5  32
ATOM     32  C   UNL     1      -2.291   0.074   2.068  0.00  0.00    +0.323 C 
ATOM     33  O   UNL     1      -2.919   1.083   1.848  0.00  0.00    -0.250 OA
BRANCH  32  34
ATOM     34  O   UNL     1      -1.743  -0.124   3.278  0.00  0.00    -0.467 OA
ATOM     35  C   UNL     1      -1.943   0.898   4.256  0.00  0.00    +0.280 C 
ENDBRANCH  32  34
ENDBRANCH   5  32
TORSDOF 3
