REMARK  Name = ZINC12126153
REMARK  11 active torsions:
REMARK  status: ('A' for Active; 'I' for Inactive)
REMARK    1  A    between atoms: C_1  and  O_2
REMARK    2  A    between atoms: O_2  and  C_3
REMARK    3  A    between atoms: C_6  and  C_9
REMARK    4  A    between atoms: C_9  and  N_10
REMARK    5  A    between atoms: C_18  and  C_21
REMARK    6  A    between atoms: C_21  and  N_57
REMARK    7  A    between atoms: C_22  and  C_23
REMARK    8  A    between atoms: C_22  and  N_57
REMARK    9  A    between atoms: C_23  and  C_25
REMARK   10  A    between atoms: C_23  and  O_27
REMARK   11  A    between atoms: C_25  and  O_26
REMARK                            x       y       z     vdW  Elec       q    Type
REMARK                         _______ _______ _______ _____ _____    ______ ____
ROOT
ATOM      1  N   UNL     1       0.677   5.612   0.027  0.00  0.00    -0.304 N 
ATOM      2  C   UNL     1       0.461   4.250   0.021  0.00  0.00    +0.053 A 
ATOM      3  C   UNL     1       1.524   3.355   0.005  0.00  0.00    +0.030 A 
ATOM      4  C   UNL     1       1.284   1.995   0.001  0.00  0.00    -0.042 A 
ATOM      5  C   UNL     1      -0.018   1.510   0.010  0.00  0.00    -0.043 A 
ATOM      6  C   UNL     1      -1.079   2.375   0.030  0.00  0.00    +0.014 A 
ATOM      7  C   UNL     1      -0.857   3.755   0.032  0.00  0.00    -0.001 A 
ATOM      8  C   UNL     1      -1.971   4.704   0.050  0.00  0.00    +0.017 A 
ATOM      9  C   UNL     1      -1.692   6.031   0.056  0.00  0.00    +0.001 A 
ATOM     10  C   UNL     1      -0.353   6.476   0.044  0.00  0.00    +0.253 A 
ATOM     11  O   UNL     1      -0.124   7.673   0.049  0.00  0.00    -0.267 OA
ATOM     12  C   UNL     1       0.002  -0.004   0.002  0.00  0.00    +0.036 C 
ATOM     13  C   UNL     1       1.433  -0.392   0.429  0.00  0.00    +0.009 C 
ATOM     14  C   UNL     1       2.257   0.835  -0.015  0.00  0.00    +0.036 C 
ENDROOT
BRANCH   1  15
ATOM     15  C   UNL     1       2.049   6.125   0.015  0.00  0.00    +0.160 C 
BRANCH  15  19
ATOM     16  C   UNL     1       3.338   6.649  -4.025  0.00  0.00    +0.120 A 
ATOM     17  C   UNL     1       2.708   7.688  -3.357  0.00  0.00    +0.046 A 
ATOM     18  C   UNL     1       2.293   7.516  -2.050  0.00  0.00    +0.009 A 
ATOM     19  C   UNL     1       2.504   6.309  -1.409  0.00  0.00    -0.027 A 
ATOM     20  C   UNL     1       3.137   5.274  -2.072  0.00  0.00    +0.009 A 
ATOM     21  C   UNL     1       3.549   5.439  -3.380  0.00  0.00    +0.046 A 
BRANCH  16  23
ATOM     22  C   UNL     1       4.390   5.702  -5.936  0.00  0.00    +0.277 C 
ATOM     23  O   UNL     1       3.748   6.815  -5.310  0.00  0.00    -0.495 OA
ENDBRANCH  16  23
ENDBRANCH  15  19
ENDBRANCH   1  15
BRANCH   9  24
ATOM     24  C   UNL     1      -2.817   7.034   0.075  0.00  0.00    -0.041 C 
BRANCH  24  25
ATOM     25  N   UNL     1      -3.081   7.437   1.469  0.00  0.00    +0.384 N 
ATOM     26  H   UNL     1      -2.233   7.857   1.867  0.00  0.00    -0.085 HD
ATOM     27  H   UNL     1      -3.343   6.610   2.017  0.00  0.00    -0.085 HD
BRANCH  25  28
ATOM     28  C   UNL     1      -4.179   8.421   1.518  0.00  0.00    -0.048 C 
BRANCH  28  29
ATOM     29  C   UNL     1      -4.430   8.820   2.973  0.00  0.00    +0.123 C 
BRANCH  29  30
ATOM     30  O   UNL     1      -3.284   9.502   3.485  0.00  0.00    -0.391 OA
ATOM     31  H   UNL     1      -3.058  10.309   3.003  0.00  0.00    +0.210 HD
ENDBRANCH  29  30
BRANCH  29  32
ATOM     32  C   UNL     1      -5.648   9.744   3.046  0.00  0.00    +0.185 C 
BRANCH  32  33
ATOM     33  O   UNL     1      -5.953  10.023   4.414  0.00  0.00    -0.393 OA
ATOM     34  H   UNL     1      -6.716  10.604   4.536  0.00  0.00    +0.210 HD
ENDBRANCH  32  33
ENDBRANCH  29  32
ENDBRANCH  28  29
ENDBRANCH  25  28
ENDBRANCH  24  25
ENDBRANCH   9  24
TORSDOF 10
