REMARK  Name = ZINC13616316
REMARK  3 active torsions:
REMARK  status: ('A' for Active; 'I' for Inactive)
REMARK    1  A    between atoms: C_4  and  N_7
REMARK    2  A    between atoms: C_8  and  C_9
REMARK    3  A    between atoms: C_12  and  C_14
REMARK                            x       y       z     vdW  Elec       q    Type
REMARK                         _______ _______ _______ _____ _____    ______ ____
ROOT
ATOM      1  C   UNL     1       5.070  -2.363   0.741  0.00  0.00    +0.170 A 
ATOM      2  C   UNL     1       5.414  -3.460   1.515  0.00  0.00    +0.366 A 
ATOM      3  O   UNL     1       6.674  -3.791   1.181  0.00  0.00    -0.399 OA
ATOM      4  C   UNL     1       7.100  -2.932   0.234  0.00  0.00    +0.267 A 
ATOM      5  N   UNL     1       6.145  -2.077  -0.041  0.00  0.00    -0.201 NA
ATOM      6  O   UNL     1       4.633  -4.078   2.431  0.00  0.00    -0.243 OA
ENDROOT
BRANCH   4   7
ATOM      7  C   UNL     1       8.427  -2.955  -0.398  0.00  0.00    +0.189 A 
ATOM      8  C   UNL     1       9.425  -3.845  -0.131  0.00  0.00    +0.055 A 
ATOM      9  C   UNL     1      10.509  -3.497  -0.959  0.00  0.00    +0.042 A 
ATOM     10  C   UNL     1      10.126  -2.425  -1.683  0.00  0.00    +0.196 A 
ATOM     11  O   UNL     1       8.867  -2.104  -1.346  0.00  0.00    -0.458 OA
ENDBRANCH   4   7
BRANCH   1  13
ATOM     12  N   UNL     1       3.600  -0.630  -0.036  0.00  0.00    -0.253 NA
ATOM     13  C   UNL     1       3.790  -1.652   0.758  0.00  0.00    +0.146 C 
BRANCH  12  17
ATOM     14  C   UNL     1      -0.017   1.379   0.010  0.00  0.00    +0.000 A 
ATOM     15  C   UNL     1       1.168   2.094   0.002  0.00  0.00    +0.002 A 
ATOM     16  C   UNL     1       2.377   1.431  -0.013  0.00  0.00    +0.028 A 
ATOM     17  C   UNL     1       2.404   0.034  -0.021  0.00  0.00    +0.064 A 
ATOM     18  C   UNL     1       1.204  -0.681  -0.013  0.00  0.00    +0.028 A 
ATOM     19  C   UNL     1       0.002  -0.004   0.002  0.00  0.00    +0.002 A 
ENDBRANCH  12  17
ENDBRANCH   1  13
TORSDOF 3
