REMARK  Name = ZINC15968164
REMARK  7 active torsions:
REMARK  status: ('A' for Active; 'I' for Inactive)
REMARK    1  A    between atoms: C_1  and  C_2
REMARK    2  A    between atoms: C_2  and  C_3
REMARK    3  A    between atoms: C_17  and  C_20
REMARK    4  A    between atoms: C_20  and  C_22
REMARK    5  A    between atoms: C_20  and  O_23
REMARK    6  A    between atoms: N_26  and  C_29
REMARK    7  A    between atoms: C_29  and  C_30
REMARK                            x       y       z     vdW  Elec       q    Type
REMARK                         _______ _______ _______ _____ _____    ______ ____
ROOT
ATOM      1  C   UNL     1       0.731  -0.503   1.223  0.00  0.00    -0.026 A 
ATOM      2  C   UNL     1       2.075  -0.807   1.145  0.00  0.00    +0.005 A 
ATOM      3  C   UNL     1       2.752  -1.265   2.260  0.00  0.00    +0.001 A 
ATOM      4  C   UNL     1       2.079  -1.419   3.460  0.00  0.00    +0.008 A 
ATOM      5  C   UNL     1       0.739  -1.117   3.542  0.00  0.00    +0.004 A 
ATOM      6  C   UNL     1       0.048  -0.651   2.427  0.00  0.00    +0.042 A 
ATOM      7  N   UNL     1      -1.290  -0.412   2.753  0.00  0.00    -0.283 N 
ATOM      8  C   UNL     1      -1.555  -0.689   4.044  0.00  0.00    +0.243 C 
ATOM      9  O   UNL     1      -2.626  -0.581   4.603  0.00  0.00    -0.273 OA
ATOM     10  C   UNL     1      -0.267  -1.168   4.657  0.00  0.00    +0.136 C 
ATOM     11  C   UNL     1      -0.397  -2.582   5.236  0.00  0.00    +0.123 C 
ATOM     12  C   UNL     1      -0.643  -2.361   6.755  0.00  0.00    +0.109 C 
ATOM     13  C   UNL     1      -0.637  -0.828   6.938  0.00  0.00    +0.096 C 
ATOM     14  N   UNL     1       0.129  -0.304   5.784  0.00  0.00    -0.293 NA
ATOM     15  C   UNL     1      -2.043  -2.894   6.961  0.00  0.00    +0.228 C 
ATOM     16  O   UNL     1      -2.636  -2.915   8.018  0.00  0.00    -0.275 OA
ATOM     17  N   UNL     1      -2.525  -3.341   5.796  0.00  0.00    -0.237 N 
ATOM     18  C   UNL     1      -1.678  -3.219   4.749  0.00  0.00    +0.229 C 
ATOM     19  O   UNL     1      -1.901  -3.559   3.607  0.00  0.00    -0.275 OA
ATOM     20  H   UNL     1      -1.950  -0.086   2.123  0.00  0.00    +0.155 HD
ATOM     21  H   UNL     1       1.121  -0.371   5.961  0.00  0.00    +0.124 HD
ENDROOT
BRANCH   1  23
ATOM     22  C   UNL     1      -0.019   1.526   0.010  0.00  0.00    +0.009 C 
ATOM     23  C   UNL     1       0.002  -0.004   0.002  0.00  0.00    +0.033 C 
ENDBRANCH   1  23
BRANCH  13  24
ATOM     24  C   UNL     1       0.034  -0.453   8.261  0.00  0.00    +0.129 C 
ATOM     25  C   UNL     1       0.029   1.069   8.421  0.00  0.00    +0.039 C 
BRANCH  24  26
ATOM     26  O   UNL     1      -0.683  -1.048   9.344  0.00  0.00    -0.390 OA
ATOM     27  H   UNL     1      -0.313  -0.852  10.216  0.00  0.00    +0.210 HD
ENDBRANCH  24  26
ENDBRANCH  13  24
BRANCH  17  28
ATOM     28  C   UNL     1      -3.864  -3.922   5.663  0.00  0.00    +0.151 C 
BRANCH  28  29
ATOM     29  C   UNL     1      -4.855  -2.832   5.344  0.00  0.00    -0.026 A 
ATOM     30  C   UNL     1      -5.494  -2.160   6.369  0.00  0.00    +0.009 A 
ATOM     31  C   UNL     1      -6.404  -1.159   6.081  0.00  0.00    +0.050 A 
ATOM     32  C   UNL     1      -6.677  -0.829   4.764  0.00  0.00    +0.166 A 
ATOM     33  C   UNL     1      -6.033  -1.506   3.731  0.00  0.00    +0.167 A 
ATOM     34  C   UNL     1      -5.119  -2.503   4.027  0.00  0.00    +0.054 A 
ATOM     35  O   UNL     1      -6.469  -1.001   2.540  0.00  0.00    -0.453 OA
ATOM     36  C   UNL     1      -7.684  -0.292   2.844  0.00  0.00    +0.466 C 
ATOM     37  O   UNL     1      -7.516   0.100   4.219  0.00  0.00    -0.453 OA
ENDBRANCH  28  29
ENDBRANCH  17  28
TORSDOF 5
