REMARK  Name = ZINC04866068
REMARK  7 active torsions:
REMARK  status: ('A' for Active; 'I' for Inactive)
REMARK    1  A    between atoms: C_1  and  C_2
REMARK    2  A    between atoms: C_4  and  C_22
REMARK    3  A    between atoms: C_6  and  C_16
REMARK    4  A    between atoms: C_8  and  C_15
REMARK    5  A    between atoms: C_10  and  C_11
REMARK    6  A    between atoms: C_10  and  O_14
REMARK    7  A    between atoms: C_11  and  C_12
REMARK                            x       y       z     vdW  Elec       q    Type
REMARK                         _______ _______ _______ _____ _____    ______ ____
ROOT
ATOM      1  C   UNL     1       1.262  -3.320   0.003  0.00  0.00    +0.009 C 
ATOM      2  C   UNL     1      -0.173  -2.849   0.249  0.00  0.00    +0.008 C 
ATOM      3  C   UNL     1      -0.722  -2.195  -1.021  0.00  0.00    -0.034 C 
ATOM      4  C   UNL     1      -2.123  -0.707   0.282  0.00  0.00    -0.034 C 
ATOM      5  C   UNL     1      -1.616  -1.317   1.591  0.00  0.00    +0.008 C 
ATOM      6  C   UNL     1      -0.187  -1.828   1.390  0.00  0.00    +0.072 C 
ATOM      7  C   UNL     1      -1.629  -0.252   2.689  0.00  0.00    +0.009 C 
ATOM      8  N   UNL     1      -2.101  -1.727  -0.784  0.00  0.00    +0.389 N 
ATOM      9  H   UNL     1      -2.684  -2.524  -0.501  0.00  0.00    -0.084 HD
ATOM     10  H   UNL     1      -2.473  -1.320  -1.650  0.00  0.00    -0.084 HD
ENDROOT
BRANCH   4  11
ATOM     11  C   UNL     1      -1.241   0.451  -0.107  0.00  0.00    -0.061 A 
ATOM     12  C   UNL     1      -1.078   1.516   0.759  0.00  0.00    +0.002 A 
ATOM     13  C   UNL     1      -0.268   2.579   0.403  0.00  0.00    +0.000 A 
ATOM     14  C   UNL     1       0.376   2.577  -0.820  0.00  0.00    +0.000 A 
ATOM     15  C   UNL     1       0.214   1.511  -1.685  0.00  0.00    +0.000 A 
ATOM     16  C   UNL     1      -0.595   0.449  -1.329  0.00  0.00    +0.002 A 
ENDBRANCH   4  11
BRANCH   3  17
ATOM     17  C   UNL     1      -0.728  -3.202  -2.142  0.00  0.00    -0.061 A 
ATOM     18  C   UNL     1      -1.742  -4.138  -2.223  0.00  0.00    +0.002 A 
ATOM     19  C   UNL     1      -1.750  -5.060  -3.254  0.00  0.00    +0.000 A 
ATOM     20  C   UNL     1      -0.741  -5.050  -4.198  0.00  0.00    +0.000 A 
ATOM     21  C   UNL     1       0.275  -4.116  -4.114  0.00  0.00    +0.000 A 
ATOM     22  C   UNL     1       0.282  -3.192  -3.086  0.00  0.00    +0.002 A 
ENDBRANCH   3  17
BRANCH   6  23
ATOM     23  O   UNL     1       0.670  -0.733   1.062  0.00  0.00    -0.388 OA
ATOM     24  H   UNL     1       0.710  -0.046   1.742  0.00  0.00    +0.210 HD
ENDBRANCH   6  23
BRANCH   6  25
ATOM     25  C   UNL     1       0.304  -2.494   2.678  0.00  0.00    +0.061 C 
BRANCH  25  26
ATOM     26  C   UNL     1      -0.569  -3.681   2.993  0.00  0.00    -0.032 C 
ATOM     27  C   UNL     1      -0.029  -4.861   3.176  0.00  0.00    +0.004 C 
ENDBRANCH  25  26
ENDBRANCH   6  25
TORSDOF 5
