REMARK  Name = ZINC11545346
REMARK  6 active torsions:
REMARK  status: ('A' for Active; 'I' for Inactive)
REMARK    1  A    between atoms: C_9  and  C_10
REMARK    2  A    between atoms: C_10  and  C_11
REMARK    3  A    between atoms: C_11  and  N_12
REMARK    4  A    between atoms: C_13  and  C_15
REMARK    5  A    between atoms: C_15  and  C_16
REMARK    6  A    between atoms: C_16  and  C_17
REMARK                            x       y       z     vdW  Elec       q    Type
REMARK                         _______ _______ _______ _____ _____    ______ ____
ROOT
ATOM      1  C   UNL     1      -1.135  -2.201   0.001  0.00  0.00    +0.103 C 
ENDROOT
BRANCH   1   3
ATOM      2  N   UNL     1       0.002  -0.004   0.002  0.00  0.00    -0.315 N 
ATOM      3  C   UNL     1      -1.156  -0.694   0.009  0.00  0.00    +0.213 C 
ATOM      4  O   UNL     1      -2.214  -0.102   0.023  0.00  0.00    -0.276 OA
ATOM      5  H   UNL     1       0.849  -0.478  -0.009  0.00  0.00    +0.149 HD
BRANCH   2   6
ATOM      6  C   UNL     1      -0.018   1.461   0.010  0.00  0.00    +0.112 C 
BRANCH   6   7
ATOM      7  C   UNL     1       1.418   1.990  -0.001  0.00  0.00    +0.095 C 
BRANCH   7  16
ATOM      8  C   UNL     1       1.331   6.431  -2.836  0.00  0.00    +0.005 A 
ATOM      9  C   UNL     1       1.345   5.105  -3.302  0.00  0.00    +0.018 A 
ATOM     10  C   UNL     1       1.366   4.076  -2.429  0.00  0.00    +0.094 A 
ATOM     11  N   UNL     1       1.381   4.308  -1.085  0.00  0.00    -0.286 N 
ATOM     12  C   UNL     1       1.363   5.592  -0.600  0.00  0.00    +0.161 A 
ATOM     13  C   UNL     1       1.341   6.677  -1.498  0.00  0.00    +0.048 A 
ATOM     14  N   UNL     1       1.377   5.504   0.720  0.00  0.00    -0.129 NA
ATOM     15  N   UNL     1       1.397   4.265   1.067  0.00  0.00    -0.134 NA
ATOM     16  C   UNL     1       1.397   3.497   0.007  0.00  0.00    +0.139 A 
ENDBRANCH   7  16
ENDBRANCH   6   7
ENDBRANCH   2   6
ENDBRANCH   1   3
BRANCH   1  17
ATOM     17  C   UNL     1      -2.571  -2.730   0.012  0.00  0.00    +0.083 C 
BRANCH  17  18
ATOM     18  C   UNL     1      -2.550  -4.237   0.004  0.00  0.00    +0.111 A 
ATOM     19  N   UNL     1      -3.724  -4.920   0.011  0.00  0.00    -0.310 N 
ATOM     20  H   UNL     1      -4.560  -4.428   0.022  0.00  0.00    +0.170 HD
ATOM     21  C   UNL     1      -3.751  -6.266   0.004  0.00  0.00    +0.260 A 
ATOM     22  O   UNL     1      -4.813  -6.864   0.011  0.00  0.00    -0.267 OA
ATOM     23  C   UNL     1      -2.510  -6.983  -0.012  0.00  0.00    +0.075 A 
ATOM     24  C   UNL     1      -2.298  -8.430  -0.021  0.00  0.00    -0.023 A 
ATOM     25  C   UNL     1      -1.019  -8.861  -0.036  0.00  0.00    -0.004 A 
ATOM     26  S   UNL     1      -0.037  -7.385  -0.038  0.00  0.00    -0.073 S 
ATOM     27  C   UNL     1      -1.351  -6.192  -0.019  0.00  0.00    +0.116 A 
ATOM     28  N   UNL     1      -1.404  -4.863  -0.016  0.00  0.00    -0.227 NA
ATOM     29  C   UNL     1      -0.540 -10.281  -0.047  0.00  0.00    +0.043 C 
ATOM     30  C   UNL     1      -1.716 -11.192   0.335  0.00  0.00    +0.005 C 
ATOM     31  C   UNL     1      -2.941 -10.784  -0.489  0.00  0.00    +0.005 C 
ATOM     32  C   UNL     1      -3.456  -9.424  -0.015  0.00  0.00    +0.037 C 
ENDBRANCH  17  18
ENDBRANCH   1  17
TORSDOF 6
