REMARK  Name = ZINC20331942
REMARK  8 active torsions:
REMARK  status: ('A' for Active; 'I' for Inactive)
REMARK    1  A    between atoms: C_1  and  C_2
REMARK    2  A    between atoms: C_8  and  C_12
REMARK    3  A    between atoms: C_12  and  O_13
REMARK    4  A    between atoms: O_13  and  C_14
REMARK    5  A    between atoms: C_17  and  C_20
REMARK    6  A    between atoms: C_21  and  C_22
REMARK    7  A    between atoms: C_21  and  C_24
REMARK    8  A    between atoms: N_26  and  C_27
REMARK                            x       y       z     vdW  Elec       q    Type
REMARK                         _______ _______ _______ _____ _____    ______ ____
ROOT
ATOM      1  C   UNL     1       5.122   6.167  -1.308  0.00  0.00    +0.121 A 
ATOM      2  C   UNL     1       5.923   6.658  -0.282  0.00  0.00    +0.046 A 
ATOM      3  C   UNL     1       6.656   7.795  -0.469  0.00  0.00    +0.011 A 
ATOM      4  C   UNL     1       6.592   8.473  -1.695  0.00  0.00    -0.023 A 
ATOM      5  C   UNL     1       5.779   7.976  -2.724  0.00  0.00    +0.011 A 
ATOM      6  C   UNL     1       5.054   6.835  -2.526  0.00  0.00    +0.046 A 
ENDROOT
BRANCH   4   7
ATOM      7  C   UNL     1       7.372   9.696  -1.900  0.00  0.00    +0.032 C 
ATOM      8  C   UNL     1       8.566   9.872  -1.233  0.00  0.00    +0.118 C 
BRANCH   8   9
ATOM      9  C   UNL     1       9.274  11.157  -1.321  0.00  0.00    +0.290 C 
ATOM     10  O   UNL     1       8.808  12.065  -1.983  0.00  0.00    -0.264 OA
ATOM     11  N   UNL     1      10.441  11.329  -0.669  0.00  0.00    -0.182 NA
BRANCH  11  12
ATOM     12  C   UNL     1      11.108  12.539  -0.752  0.00  0.00    +0.197 A 
ATOM     13  N   UNL     1      12.243  12.894  -0.195  0.00  0.00    -0.221 NA
ATOM     14  C   UNL     1      12.783  14.120  -0.364  0.00  0.00    +0.081 A 
ATOM     15  C   UNL     1      13.989  14.626   0.175  0.00  0.00    +0.029 A 
ATOM     16  C   UNL     1      14.396  15.905  -0.099  0.00  0.00    +0.002 A 
ATOM     17  C   UNL     1      13.648  16.746  -0.909  0.00  0.00    +0.001 A 
ATOM     18  C   UNL     1      12.463  16.285  -1.453  0.00  0.00    +0.017 A 
ATOM     19  C   UNL     1      12.047  15.005  -1.184  0.00  0.00    +0.041 A 
ATOM     20  S   UNL     1      10.649  14.014  -1.652  0.00  0.00    -0.048 S 
ENDBRANCH  11  12
ENDBRANCH   8   9
BRANCH   8  21
ATOM     21  C   UNL     1       9.115   8.803  -0.454  0.00  0.00    +0.105 C 
ATOM     22  N   UNL     1       9.551   7.955   0.163  0.00  0.00    -0.191 NA
ENDBRANCH   8  21
ENDBRANCH   4   7
BRANCH   1  23
ATOM     23  O   UNL     1       4.399   5.034  -1.119  0.00  0.00    -0.486 OA
BRANCH  23  24
ATOM     24  C   UNL     1       4.515   4.397   0.155  0.00  0.00    +0.284 C 
BRANCH  24  32
ATOM     25  C   UNL     1      -1.348  -0.790   0.125  0.00  0.00    +0.075 C 
ATOM     26  C   UNL     1      -0.185   0.168   0.136  0.00  0.00    +0.099 A 
ATOM     27  N   UNL     1       1.084  -0.090   0.231  0.00  0.00    -0.159 NA
ATOM     28  N   UNL     1       2.038   0.924   0.225  0.00  0.00    -0.171 N 
ATOM     29  C   UNL     1       3.393   0.783   0.318  0.00  0.00    +0.275 A 
ATOM     30  O   UNL     1       3.887  -0.329   0.421  0.00  0.00    -0.266 OA
ATOM     31  C   UNL     1       4.212   1.912   0.297  0.00  0.00    +0.099 A 
ATOM     32  C   UNL     1       3.648   3.165   0.181  0.00  0.00    +0.087 A 
ATOM     33  N   UNL     1       2.324   3.266   0.092  0.00  0.00    -0.223 NA
ATOM     34  C   UNL     1       1.563   2.201   0.113  0.00  0.00    +0.199 A 
ATOM     35  S   UNL     1      -0.197   1.950   0.020  0.00  0.00    -0.033 S 
ENDBRANCH  24  32
ENDBRANCH  23  24
ENDBRANCH   1  23
TORSDOF 7
