REMARK  Name = ZINC58929023
REMARK  2 active torsions:
REMARK  status: ('A' for Active; 'I' for Inactive)
REMARK    1  A    between atoms: C_6  and  C_7
REMARK    2  A    between atoms: C_17  and  N_24
REMARK                            x       y       z     vdW  Elec       q    Type
REMARK                         _______ _______ _______ _____ _____    ______ ____
ROOT
ATOM      1  C   UNL     1      -1.293  -0.775   0.010  0.00  0.00    +0.105 C 
ATOM      2  C   UNL     1      -1.594  -1.194   1.434  0.00  0.00    +0.029 C 
ATOM      3  C   UNL     1      -2.409  -0.056   2.110  0.00  0.00    +0.033 C 
ATOM      4  C   UNL     1      -3.853  -0.445   1.878  0.00  0.00    -0.030 C 
ATOM      5  C   UNL     1      -3.951  -1.711   1.560  0.00  0.00    -0.023 C 
ATOM      6  C   UNL     1      -2.571  -2.363   1.539  0.00  0.00    +0.051 C 
ATOM      7  C   UNL     1      -2.431  -3.386   0.463  0.00  0.00    +0.012 A 
ATOM      8  C   UNL     1      -3.020  -4.631   0.635  0.00  0.00    +0.132 A 
ATOM      9  C   UNL     1      -2.898  -5.606  -0.334  0.00  0.00    +0.034 A 
ATOM     10  C   UNL     1      -2.183  -5.351  -1.491  0.00  0.00    +0.024 A 
ATOM     11  C   UNL     1      -1.597  -4.115  -1.675  0.00  0.00    +0.062 A 
ATOM     12  C   UNL     1      -1.726  -3.128  -0.702  0.00  0.00    +0.052 A 
ATOM     13  N   UNL     1      -1.178  -1.877  -0.919  0.00  0.00    -0.335 N 
ATOM     14 CL   UNL     1      -0.697  -3.790  -3.124  0.00  0.00    -0.082 Cl
ATOM     15  H   UNL     1      -0.671  -1.740  -1.735  0.00  0.00    +0.147 HD
ENDROOT
BRANCH   1  21
ATOM     16  C   UNL     1      -0.017   1.378   0.010  0.00  0.00    +0.008 A 
ATOM     17  C   UNL     1       1.170   2.086   0.002  0.00  0.00    +0.038 A 
ATOM     18  C   UNL     1       2.379   1.410  -0.013  0.00  0.00    +0.123 A 
ATOM     19  C   UNL     1       2.396   0.026  -0.021  0.00  0.00    +0.038 A 
ATOM     20  C   UNL     1       1.208  -0.680  -0.013  0.00  0.00    +0.008 A 
ATOM     21  C   UNL     1       0.002  -0.004   0.002  0.00  0.00    -0.027 A 
ATOM     22  F   UNL     1       3.540   2.101  -0.021  0.00  0.00    -0.205 F 
ENDBRANCH   1  21
BRANCH   8  23
ATOM     23  N   UNL     1      -3.786  -4.916   1.869  0.00  0.00    +0.057 N 
ATOM     24  O   UNL     1      -4.302  -5.998   2.025  0.00  0.00    -0.126 OA
ATOM     25  O   UNL     1      -3.896  -4.066   2.722  0.00  0.00    -0.126 OA
ENDBRANCH   8  23
TORSDOF 2
