REMARK  Name = ZINC35664974
REMARK  3 active torsions:
REMARK  status: ('A' for Active; 'I' for Inactive)
REMARK    1  A    between atoms: C_6  and  C_7
REMARK    2  A    between atoms: C_7  and  N_8
REMARK    3  A    between atoms: C_19  and  C_21
REMARK                            x       y       z     vdW  Elec       q    Type
REMARK                         _______ _______ _______ _____ _____    ______ ____
ROOT
ATOM      1  N   UNL     1      -1.760  -1.258  -2.007  0.00  0.00    -0.310 N 
ATOM      2  C   UNL     1      -2.453  -0.492  -2.875  0.00  0.00    +0.198 C 
ATOM      3  O   UNL     1      -2.936   0.594  -2.634  0.00  0.00    -0.278 OA
ATOM      4  C   UNL     1      -2.525  -1.216  -4.202  0.00  0.00    +0.018 C 
ATOM      5  N   UNL     1      -1.471  -2.257  -4.123  0.00  0.00    +0.399 N 
ATOM      6  C   UNL     1      -1.341  -2.495  -2.672  0.00  0.00    +0.006 C 
ATOM      7  C   UNL     1      -2.251  -3.651  -2.259  0.00  0.00    +0.025 C 
ATOM      8  C   UNL     1      -2.141  -3.870  -0.747  0.00  0.00    +0.108 C 
ATOM      9  N   UNL     1      -0.726  -4.050  -0.397  0.00  0.00    -0.298 N 
ATOM     10  C   UNL     1       0.242  -3.027  -0.815  0.00  0.00    +0.108 C 
ATOM     11  C   UNL     1       0.112  -2.814  -2.327  0.00  0.00    +0.025 C 
ATOM     12  C   UNL     1      -0.323  -5.134   0.295  0.00  0.00    +0.247 C 
ATOM     13  O   UNL     1       0.844  -5.249   0.619  0.00  0.00    -0.270 OA
ATOM     14  H   UNL     1      -1.764  -3.097  -4.599  0.00  0.00    -0.082 HD
ATOM     15  H   UNL     1      -0.602  -1.914  -4.503  0.00  0.00    -0.082 HD
ENDROOT
BRANCH  12  16
ATOM     16  C   UNL     1      -1.296  -6.182   0.659  0.00  0.00    +0.041 A 
ATOM     17  C   UNL     1      -2.543  -5.828   1.180  0.00  0.00    +0.017 A 
ATOM     18  C   UNL     1      -3.452  -6.807   1.518  0.00  0.00    +0.050 A 
ATOM     19  C   UNL     1      -3.132  -8.147   1.343  0.00  0.00    +0.166 A 
ATOM     20  C   UNL     1      -1.888  -8.507   0.824  0.00  0.00    +0.167 A 
ATOM     21  C   UNL     1      -0.976  -7.530   0.477  0.00  0.00    +0.062 A 
ATOM     22  O   UNL     1      -1.824  -9.869   0.752  0.00  0.00    -0.453 OA
ATOM     23  C   UNL     1      -2.875 -10.348   1.611  0.00  0.00    +0.466 C 
ATOM     24  O   UNL     1      -3.843  -9.283   1.595  0.00  0.00    -0.453 OA
ENDBRANCH  12  16
BRANCH   1  25
ATOM     25  C   UNL     1      -1.467  -0.904  -0.616  0.00  0.00    +0.141 C 
BRANCH  25  31
ATOM     26  C   UNL     1      -0.212   1.032  -1.584  0.00  0.00    +0.008 A 
ATOM     27  C   UNL     1       0.824   1.947  -1.551  0.00  0.00    +0.038 A 
ATOM     28  C   UNL     1       1.736   1.922  -0.510  0.00  0.00    +0.123 A 
ATOM     29  C   UNL     1       1.609   0.980   0.497  0.00  0.00    +0.038 A 
ATOM     30  C   UNL     1       0.573   0.066   0.462  0.00  0.00    +0.008 A 
ATOM     31  C   UNL     1      -0.337   0.092  -0.578  0.00  0.00    -0.030 A 
ATOM     32  F   UNL     1       2.749   2.815  -0.476  0.00  0.00    -0.205 F 
ENDBRANCH  25  31
ENDBRANCH   1  25
TORSDOF 3
