REMARK  Name = ZINC22148486
REMARK  8 active torsions:
REMARK  status: ('A' for Active; 'I' for Inactive)
REMARK    1  A    between atoms: C_1  and  C_2
REMARK    2  A    between atoms: C_2  and  N_3
REMARK    3  A    between atoms: C_7  and  C_9
REMARK    4  A    between atoms: C_9  and  N_10
REMARK    5  A    between atoms: N_10  and  S_11
REMARK    6  A    between atoms: S_11  and  C_14
REMARK    7  A    between atoms: C_17  and  C_20
REMARK    8  A    between atoms: C_20  and  N_22
REMARK                            x       y       z     vdW  Elec       q    Type
REMARK                         _______ _______ _______ _____ _____    ______ ____
ROOT
ATOM      1  S   UNL     1      -4.969  -3.051   0.219  0.00  0.00    +0.058 S 
ATOM      2  O   UNL     1      -5.646  -2.735  -0.990  0.00  0.00    -0.153 OA
ATOM      3  O   UNL     1      -4.575  -4.376   0.548  0.00  0.00    -0.153 OA
ENDROOT
BRANCH   1   4
ATOM      4  C   UNL     1      -3.506  -2.069   0.248  0.00  0.00    +0.105 A 
ATOM      5  C   UNL     1      -2.418  -2.476   1.001  0.00  0.00    +0.029 A 
ATOM      6  C   UNL     1      -1.270  -1.712   1.028  0.00  0.00    +0.012 A 
ATOM      7  C   UNL     1      -1.206  -0.526   0.294  0.00  0.00    +0.003 A 
ATOM      8  C   UNL     1      -2.310  -0.119  -0.459  0.00  0.00    +0.012 A 
ATOM      9  C   UNL     1      -3.450  -0.895  -0.482  0.00  0.00    +0.029 A 
BRANCH   7  10
ATOM     10  C   UNL     1       0.019   0.297   0.318  0.00  0.00    +0.077 C 
ATOM     11  S   UNL     1       1.554  -0.456   0.414  0.00  0.00    -0.035 S 
BRANCH  10  12
ATOM     12  N   UNL     1      -0.070   1.641   0.265  0.00  0.00    -0.352 N 
ATOM     13  H   UNL     1       0.843   2.253   0.283  0.00  0.00    +0.143 HD
ATOM     14  H   UNL     1      -1.056   2.124   0.204  0.00  0.00    +0.143 HD
ENDBRANCH  10  12
ENDBRANCH   7  10
ENDBRANCH   1   4
BRANCH   1  15
ATOM     15  N   UNL     1      -5.937  -2.524   1.455  0.00  0.00    -0.191 NA
ATOM     16  H   UNL     1      -6.024  -3.134   2.366  0.00  0.00    +0.148 HD
BRANCH  15  17
ATOM     17  C   UNL     1      -6.490  -1.168   1.425  0.00  0.00    +0.090 C 
BRANCH  17  22
ATOM     18  N   UNL     1      -8.154   0.316   2.464  0.00  0.00    +0.382 N 
ATOM     19  C   UNL     1      -9.565   0.322   2.023  0.00  0.00    -0.078 C 
ATOM     20  C   UNL     1     -10.072  -1.116   2.298  0.00  0.00    -0.020 C 
ATOM     21  C   UNL     1      -8.819  -1.965   1.946  0.00  0.00    -0.016 C 
ATOM     22  C   UNL     1      -7.653  -1.070   2.415  0.00  0.00    -0.053 C 
ATOM     23  H   UNL     1      -8.082   0.699   3.492  0.00  0.00    -0.081 HD
BRANCH  18  25
ATOM     24  C   UNL     1      -7.947   2.604   1.616  0.00  0.00    -0.017 C 
ATOM     25  C   UNL     1      -7.337   1.202   1.623  0.00  0.00    -0.082 C 
ENDBRANCH  18  25
ENDBRANCH  17  22
ENDBRANCH  15  17
ENDBRANCH   1  15
TORSDOF 7
