REMARK  Name = ZINC51999213
REMARK  7 active torsions:
REMARK  status: ('A' for Active; 'I' for Inactive)
REMARK    1  A    between atoms: C_1  and  C_2
REMARK    2  A    between atoms: C_2  and  O_3
REMARK    3  A    between atoms: O_3  and  C_4
REMARK    4  A    between atoms: C_5  and  C_12
REMARK    5  A    between atoms: C_12  and  N_13
REMARK    6  A    between atoms: N_13  and  C_14
REMARK    7  A    between atoms: C_20  and  O_22
REMARK                            x       y       z     vdW  Elec       q    Type
REMARK                         _______ _______ _______ _____ _____    ______ ____
ROOT
ATOM      1  C   UNL     1       2.808  -1.939  -0.060  0.00  0.00    -0.043 C 
ENDROOT
BRANCH   1   3
ATOM      2  C   UNL     1       0.677  -1.404  -1.268  0.00  0.00    +0.136 A 
ATOM      3  C   UNL     1       1.630  -2.345  -0.908  0.00  0.00    -0.021 A 
ATOM      4  C   UNL     1       1.501  -3.655  -1.329  0.00  0.00    +0.020 A 
ATOM      5  C   UNL     1       0.420  -4.029  -2.108  0.00  0.00    +0.019 A 
ATOM      6  C   UNL     1      -0.532  -3.092  -2.469  0.00  0.00    +0.034 A 
ATOM      7  C   UNL     1      -0.409  -1.782  -2.046  0.00  0.00    +0.061 A 
ATOM      8 BR   UNL     1      -1.716  -0.504  -2.531  0.00  0.00    -0.046 Br
ATOM      9 BR   UNL     1       0.246  -5.822  -2.682  0.00  0.00    -0.050 Br
BRANCH   2  10
ATOM     10  O   UNL     1       0.802  -0.116  -0.855  0.00  0.00    -0.491 OA
BRANCH  10  12
ATOM     11  C   UNL     1       1.435   2.198  -1.155  0.00  0.00    +0.048 C 
ATOM     12  C   UNL     1       1.500   0.779  -1.724  0.00  0.00    +0.226 C 
ENDBRANCH  10  12
ENDBRANCH   2  10
ENDBRANCH   1   3
BRANCH   1  13
ATOM     13  N   UNL     1       2.381  -1.810   1.340  0.00  0.00    +0.385 N 
ATOM     14  H   UNL     1       1.601  -1.173   1.396  0.00  0.00    -0.085 HD
ATOM     15  H   UNL     1       2.103  -2.714   1.691  0.00  0.00    -0.085 HD
BRANCH  13  16
ATOM     16  C   UNL     1       3.495  -1.292   2.145  0.00  0.00    -0.042 C 
ATOM     17  C   UNL     1       4.632  -2.317   2.161  0.00  0.00    -0.013 C 
ATOM     18  C   UNL     1       5.792  -1.778   3.000  0.00  0.00    -0.001 C 
ATOM     19  C   UNL     1       5.313  -1.525   4.431  0.00  0.00    +0.002 C 
ATOM     20  C   UNL     1       4.176  -0.501   4.415  0.00  0.00    +0.030 C 
ATOM     21  C   UNL     1       3.016  -1.040   3.576  0.00  0.00    +0.101 C 
BRANCH  21  22
ATOM     22  O   UNL     1       1.954  -0.084   3.561  0.00  0.00    -0.393 OA
ATOM     23  H   UNL     1       1.601   0.125   4.437  0.00  0.00    +0.210 HD
ENDBRANCH  21  22
ENDBRANCH  13  16
ENDBRANCH   1  13
TORSDOF 6
