REMARK  Name = ZINC18321264
REMARK  4 active torsions:
REMARK  status: ('A' for Active; 'I' for Inactive)
REMARK    1  A    between atoms: C_4  and  N_7
REMARK    2  A    between atoms: C_8  and  S_12
REMARK    3  A    between atoms: S_12  and  C_13
REMARK    4  A    between atoms: C_13  and  C_14
REMARK                            x       y       z     vdW  Elec       q    Type
REMARK                         _______ _______ _______ _____ _____    ______ ____
ROOT
ATOM      1  C   UNL     1       2.850  -5.062   2.869  0.00  0.00    +0.143 A 
ATOM      2  N   UNL     1       2.827  -4.894   4.179  0.00  0.00    -0.216 NA
ATOM      3  C   UNL     1       2.273  -5.777   4.994  0.00  0.00    +0.128 A 
ATOM      4  C   UNL     1       1.682  -6.949   4.445  0.00  0.00    +0.051 A 
ATOM      5  C   UNL     1       1.019  -8.054   5.141  0.00  0.00    -0.025 A 
ATOM      6  C   UNL     1       0.538  -9.056   4.378  0.00  0.00    -0.004 A 
ATOM      7  S   UNL     1       0.930  -8.599   2.711  0.00  0.00    -0.073 S 
ATOM      8  C   UNL     1       1.744  -7.058   3.041  0.00  0.00    +0.114 A 
ATOM      9  N   UNL     1       2.313  -6.125   2.302  0.00  0.00    -0.224 NA
ATOM     10  C   UNL     1      -0.174 -10.290   4.844  0.00  0.00    +0.043 C 
ATOM     11  C   UNL     1       0.048 -10.435   6.357  0.00  0.00    +0.005 C 
ATOM     12  C   UNL     1      -0.230  -9.085   7.025  0.00  0.00    +0.005 C 
ATOM     13  C   UNL     1       0.870  -8.089   6.660  0.00  0.00    +0.037 C 
ATOM     14  N   UNL     1       2.270  -5.565   6.360  0.00  0.00    -0.343 N 
ATOM     15  H   UNL     1       2.459  -4.682   6.714  0.00  0.00    +0.144 HD
ATOM     16  H   UNL     1       2.078  -6.298   6.965  0.00  0.00    +0.144 HD
ENDROOT
BRANCH   1  17
ATOM     17  C   UNL     1       3.499  -4.014   2.002  0.00  0.00    +0.153 C 
BRANCH  17  18
ATOM     18  S   UNL     1       2.265  -2.771   1.530  0.00  0.00    -0.076 S 
BRANCH  18  20
ATOM     19  N   UNL     1       2.677  -0.515  -0.061  0.00  0.00    -0.187 N 
ATOM     20  C   UNL     1       3.168  -1.632   0.534  0.00  0.00    +0.214 A 
ATOM     21  N   UNL     1       4.445  -1.702   0.227  0.00  0.00    -0.101 NA
ATOM     22  N   UNL     1       4.785  -0.711  -0.516  0.00  0.00    -0.022 NA
ATOM     23  N   UNL     1       3.770   0.051  -0.741  0.00  0.00    -0.038 NA
BRANCH  19  27
ATOM     24  C   UNL     1      -1.236   0.917   0.078  0.00  0.00    +0.000 A 
ATOM     25  C   UNL     1      -0.177   1.805   0.043  0.00  0.00    +0.002 A 
ATOM     26  C   UNL     1       1.121   1.334  -0.003  0.00  0.00    +0.028 A 
ATOM     27  C   UNL     1       1.361  -0.034  -0.014  0.00  0.00    +0.070 A 
ATOM     28  C   UNL     1       0.295  -0.923   0.022  0.00  0.00    +0.028 A 
ATOM     29  C   UNL     1      -1.000  -0.445   0.068  0.00  0.00    +0.002 A 
ENDBRANCH  19  27
ENDBRANCH  18  20
ENDBRANCH  17  18
ENDBRANCH   1  17
TORSDOF 4
