REMARK  Name = ZINC12727511
REMARK  7 active torsions:
REMARK  status: ('A' for Active; 'I' for Inactive)
REMARK    1  A    between atoms: C_1  and  C_2
REMARK    2  A    between atoms: C_2  and  C_4
REMARK    3  A    between atoms: C_2  and  O_19
REMARK    4  A    between atoms: C_16  and  C_17
REMARK    5  A    between atoms: C_16  and  C_18
REMARK    6  A    between atoms: O_19  and  C_20
REMARK    7  A    between atoms: C_20  and  C_22
REMARK                            x       y       z     vdW  Elec       q    Type
REMARK                         _______ _______ _______ _____ _____    ______ ____
ROOT
ATOM      1  C   UNL     1      -2.348  -2.804  -0.474  0.00  0.00    +0.261 C 
ATOM      2  O   UNL     1      -3.100  -2.015  -1.006  0.00  0.00    -0.271 OA
ATOM      3  N   UNL     1      -2.401  -4.111  -0.802  0.00  0.00    -0.252 N 
ATOM      4  C   UNL     1      -1.456  -5.021  -0.304  0.00  0.00    +0.059 A 
ATOM      5  C   UNL     1      -0.169  -4.619   0.001  0.00  0.00    +0.025 A 
ATOM      6  C   UNL     1       0.742  -5.541   0.486  0.00  0.00    +0.002 A 
ATOM      7  C   UNL     1       0.366  -6.860   0.665  0.00  0.00    +0.002 A 
ATOM      8  C   UNL     1      -0.928  -7.270   0.370  0.00  0.00    +0.025 A 
ATOM      9  C   UNL     1      -1.844  -6.352  -0.118  0.00  0.00    +0.055 A 
ATOM     10  N   UNL     1      -3.151  -6.742  -0.431  0.00  0.00    -0.282 N 
ATOM     11  C   UNL     1      -3.953  -5.940  -1.157  0.00  0.00    +0.241 C 
ATOM     12  O   UNL     1      -5.096  -6.279  -1.379  0.00  0.00    -0.273 OA
ATOM     13  C   UNL     1      -3.448  -4.627  -1.697  0.00  0.00    +0.113 C 
ATOM     14  C   UNL     1      -4.602  -3.624  -1.767  0.00  0.00    +0.042 C 
ATOM     15  C   UNL     1      -2.866  -4.838  -3.096  0.00  0.00    +0.042 C 
ATOM     16  H   UNL     1      -3.483  -7.599  -0.121  0.00  0.00    +0.155 HD
ENDROOT
BRANCH   1  18
ATOM     17  C   UNL     1      -1.489  -3.167   1.823  0.00  0.00    +0.062 C 
ATOM     18  C   UNL     1      -1.355  -2.325   0.553  0.00  0.00    +0.259 C 
BRANCH  18  19
ATOM     19  O   UNL     1      -1.617  -0.932   0.866  0.00  0.00    -0.447 OA
BRANCH  19  20
ATOM     20  C   UNL     1      -0.561  -0.177   1.232  0.00  0.00    +0.376 C 
ATOM     21  O   UNL     1       0.549  -0.671   1.287  0.00  0.00    -0.241 OA
BRANCH  20  22
ATOM     22  C   UNL     1      -0.750   1.237   1.562  0.00  0.00    +0.211 A 
ATOM     23  C   UNL     1       0.228   2.111   1.945  0.00  0.00    +0.056 A 
ATOM     24  C   UNL     1      -0.397   3.349   2.159  0.00  0.00    +0.042 A 
ATOM     25  C   UNL     1      -1.713   3.180   1.900  0.00  0.00    +0.196 A 
ATOM     26  O   UNL     1      -1.921   1.908   1.536  0.00  0.00    -0.456 OA
ENDBRANCH  20  22
ENDBRANCH  19  20
ENDBRANCH  18  19
ENDBRANCH   1  18
TORSDOF 4
