REMARK  Name = ZINC39668839
REMARK  4 active torsions:
REMARK  status: ('A' for Active; 'I' for Inactive)
REMARK    1  A    between atoms: C_10  and  C_12
REMARK    2  A    between atoms: C_12  and  N_13
REMARK    3  A    between atoms: C_14  and  C_16
REMARK    4  A    between atoms: C_27  and  C_29
REMARK                            x       y       z     vdW  Elec       q    Type
REMARK                         _______ _______ _______ _____ _____    ______ ____
ROOT
ATOM      1  C   UNL     1       8.270  -0.948  -1.848  0.00  0.00    +0.100 C 
ATOM      2  C   UNL     1       8.098  -2.438  -2.217  0.00  0.00    +0.121 C 
ATOM      3  N   UNL     1       8.332  -2.491  -3.680  0.00  0.00    -0.296 N 
ATOM      4  C   UNL     1       9.450  -1.544  -3.909  0.00  0.00    +0.115 C 
ATOM      5  C   UNL     1       9.161  -0.365  -2.959  0.00  0.00    -0.004 C 
ATOM      6  C   UNL     1      10.462   0.168  -2.368  0.00  0.00    -0.010 C 
ATOM      7  C   UNL     1      11.305   0.794  -3.482  0.00  0.00    -0.082 C 
ATOM      8  N   UNL     1      10.550   1.881  -4.117  0.00  0.00    +0.379 N 
ATOM      9  C   UNL     1       9.347   1.345  -4.764  0.00  0.00    -0.082 C 
ATOM     10  C   UNL     1       8.421   0.742  -3.703  0.00  0.00    -0.010 C 
ATOM     11  C   UNL     1       7.676  -3.232  -4.595  0.00  0.00    +0.248 C 
ATOM     12  O   UNL     1       6.711  -3.893  -4.263  0.00  0.00    -0.270 OA
ATOM     13  H   UNL     1      10.282   2.556  -3.417  0.00  0.00    -0.086 HD
ATOM     14  H   UNL     1      11.130   2.332  -4.809  0.00  0.00    -0.086 HD
ENDROOT
BRANCH  11  15
ATOM     15  C   UNL     1       8.129  -3.241  -6.001  0.00  0.00    +0.055 A 
ATOM     16  C   UNL     1       9.492  -3.161  -6.298  0.00  0.00    +0.016 A 
ATOM     17  C   UNL     1       9.909  -3.170  -7.612  0.00  0.00    +0.021 A 
ATOM     18  C   UNL     1       8.981  -3.258  -8.637  0.00  0.00    +0.042 A 
ATOM     19  C   UNL     1       7.629  -3.338  -8.350  0.00  0.00    +0.040 A 
ATOM     20  C   UNL     1       7.198  -3.336  -7.038  0.00  0.00    +0.054 A 
ATOM     21 CL   UNL     1       5.503  -3.444  -6.678  0.00  0.00    -0.083 Cl
ATOM     22 CL   UNL     1       9.515  -3.268 -10.289  0.00  0.00    -0.083 Cl
ENDBRANCH  11  15
BRANCH   1  24
ATOM     23  N   UNL     1       6.723   0.786  -0.999  0.00  0.00    -0.312 N 
ATOM     24  C   UNL     1       6.932  -0.254  -1.831  0.00  0.00    +0.218 C 
ATOM     25  O   UNL     1       6.044  -0.631  -2.565  0.00  0.00    -0.275 OA
ATOM     26  H   UNL     1       7.434   1.087  -0.411  0.00  0.00    +0.149 HD
BRANCH  23  27
ATOM     27  C   UNL     1       5.423   1.460  -0.982  0.00  0.00    +0.140 C 
BRANCH  27  37
ATOM     28  C   UNL     1       1.657   4.567   0.010  0.00  0.00    +0.000 A 
ATOM     29  C   UNL     1       2.271   4.209  -1.175  0.00  0.00    +0.000 A 
ATOM     30  C   UNL     1       3.496   3.572  -1.151  0.00  0.00    +0.006 A 
ATOM     31  C   UNL     1       4.112   3.288   0.058  0.00  0.00    -0.014 A 
ATOM     32  C   UNL     1       3.497   3.641   1.240  0.00  0.00    -0.040 A 
ATOM     33  C   UNL     1       2.270   4.284   1.215  0.00  0.00    +0.004 A 
ATOM     34  C   UNL     1       4.130   3.338   2.575  0.00  0.00    +0.063 C 
ATOM     35  C   UNL     1       5.615   3.026   2.384  0.00  0.00    +0.165 C 
ATOM     36  O   UNL     1       5.746   2.062   1.333  0.00  0.00    -0.370 OA
ATOM     37  C   UNL     1       5.451   2.596   0.043  0.00  0.00    +0.165 C 
ENDBRANCH  27  37
ENDBRANCH  23  27
ENDBRANCH   1  24
TORSDOF 4
