REMARK  Name = ZINC66947387
REMARK  8 active torsions:
REMARK  status: ('A' for Active; 'I' for Inactive)
REMARK    1  A    between atoms: C_1  and  C_2
REMARK    2  A    between atoms: C_2  and  C_3
REMARK    3  A    between atoms: N_11  and  C_15
REMARK    4  A    between atoms: C_15  and  C_16
REMARK    5  A    between atoms: C_23  and  C_25
REMARK    6  A    between atoms: C_25  and  N_26
REMARK    7  A    between atoms: N_26  and  C_27
REMARK    8  A    between atoms: N_26  and  C_28
REMARK                            x       y       z     vdW  Elec       q    Type
REMARK                         _______ _______ _______ _____ _____    ______ ____
ROOT
ATOM      1  C   UNL     1       0.364  -0.783   0.881  0.00  0.00    -0.011 C 
ATOM      2  C   UNL     1      -0.489  -0.316   2.063  0.00  0.00    +0.006 C 
ATOM      3  C   UNL     1      -1.971  -0.485   1.720  0.00  0.00    +0.035 C 
ATOM      4  C   UNL     1      -2.260  -1.950   1.411  0.00  0.00    +0.113 C 
ATOM      5  C   UNL     1      -1.399  -2.438   0.251  0.00  0.00    +0.035 C 
ATOM      6  C   UNL     1       0.081  -2.260   0.600  0.00  0.00    +0.006 C 
ATOM      7  C   UNL     1      -2.028  -2.804   2.636  0.00  0.00    +0.247 C 
ATOM      8  O   UNL     1      -0.987  -2.954   3.240  0.00  0.00    -0.273 OA
ATOM      9  N   UNL     1      -3.222  -3.365   2.916  0.00  0.00    -0.215 N 
ATOM     10  C   UNL     1      -4.163  -2.984   2.043  0.00  0.00    +0.310 C 
ATOM     11  O   UNL     1      -5.319  -3.357   2.089  0.00  0.00    -0.252 OA
ATOM     12  N   UNL     1      -3.684  -2.140   1.108  0.00  0.00    -0.285 N 
ATOM     13  H   UNL     1      -4.182  -1.738   0.380  0.00  0.00    +0.151 HD
ENDROOT
BRANCH   1  15
ATOM     14  C   UNL     1       2.155   0.887   1.377  0.00  0.00    +0.004 C 
ATOM     15  C   UNL     1       1.845  -0.603   1.218  0.00  0.00    -0.000 C 
ENDBRANCH   1  15
BRANCH   9  16
ATOM     16  C   UNL     1      -3.461  -4.279   4.036  0.00  0.00    +0.213 C 
BRANCH  16  17
ATOM     17  C   UNL     1      -3.866  -3.487   5.253  0.00  0.00    +0.234 C 
ATOM     18  O   UNL     1      -3.948  -2.278   5.190  0.00  0.00    -0.274 OA
ATOM     19  N   UNL     1      -4.138  -4.122   6.410  0.00  0.00    -0.299 N 
ATOM     20  C   UNL     1      -4.157  -5.589   6.472  0.00  0.00    +0.108 C 
ATOM     21  C   UNL     1      -3.221  -6.048   7.595  0.00  0.00    +0.019 C 
ATOM     22  C   UNL     1      -3.622  -5.358   8.901  0.00  0.00    +0.003 C 
ATOM     23  C   UNL     1      -3.481  -3.842   8.744  0.00  0.00    +0.021 C 
ATOM     24  C   UNL     1      -4.414  -3.359   7.635  0.00  0.00    +0.059 C 
BRANCH  24  25
ATOM     25  C   UNL     1      -4.173  -1.870   7.378  0.00  0.00    -0.057 C 
BRANCH  25  26
ATOM     26  N   UNL     1      -4.390  -1.117   8.620  0.00  0.00    +0.377 N 
ATOM     27  C   UNL     1      -3.135  -1.058   9.382  0.00  0.00    -0.097 C 
ATOM     28  C   UNL     1      -4.830   0.246   8.296  0.00  0.00    -0.097 C 
ATOM     29  H   UNL     1      -5.098  -1.577   9.173  0.00  0.00    -0.083 HD
ENDBRANCH  25  26
ENDBRANCH  24  25
ENDBRANCH  16  17
ENDBRANCH   9  16
TORSDOF 5
