REMARK  Name = ZINC22598848
REMARK  12 active torsions:
REMARK  status: ('A' for Active; 'I' for Inactive)
REMARK    1  A    between atoms: C_1  and  C_2
REMARK    2  A    between atoms: C_2  and  C_3
REMARK    3  A    between atoms: C_2  and  C_4
REMARK    4  A    between atoms: C_4  and  C_6
REMARK    5  A    between atoms: C_4  and  N_25
REMARK    6  A    between atoms: N_11  and  C_14
REMARK    7  A    between atoms: C_14  and  C_15
REMARK    8  A    between atoms: N_17  and  C_18
REMARK    9  A    between atoms: C_18  and  C_19
REMARK   10  A    between atoms: C_26  and  O_28
REMARK   11  A    between atoms: O_28  and  C_29
REMARK   12  A    between atoms: C_29  and  C_30
REMARK                            x       y       z     vdW  Elec       q    Type
REMARK                         _______ _______ _______ _____ _____    ______ ____
ROOT
ATOM      1  C   UNL     1      -1.019   0.921   2.209  0.00  0.00    +0.236 C 
ATOM      2  O   UNL     1      -0.484  -0.166   2.262  0.00  0.00    -0.274 OA
ATOM      3  N   UNL     1      -0.876   1.690   1.111  0.00  0.00    -0.303 N 
ATOM      4  C   UNL     1      -0.184   1.180  -0.083  0.00  0.00    +0.089 C 
ATOM      5  C   UNL     1      -1.078   1.414  -1.305  0.00  0.00    -0.059 C 
ATOM      6  N   UNL     1      -1.458   2.831  -1.366  0.00  0.00    +0.387 N 
ATOM      7  C   UNL     1      -2.258   3.219  -0.196  0.00  0.00    -0.059 C 
ATOM      8  C   UNL     1      -1.413   3.059   1.072  0.00  0.00    +0.089 C 
ATOM      9  H   UNL     1      -0.533   3.427  -1.351  0.00  0.00    -0.081 HD
ENDROOT
BRANCH   1  10
ATOM     10  C   UNL     1      -1.844   1.412   3.370  0.00  0.00    +0.165 C 
BRANCH  10  11
ATOM     11  N   UNL     1      -1.988   0.338   4.356  0.00  0.00    -0.270 N 
ATOM     12  C   UNL     1      -3.041   0.330   5.196  0.00  0.00    +0.401 C 
ATOM     13  O   UNL     1      -3.873   1.215   5.136  0.00  0.00    -0.226 OA
ATOM     14  H   UNL     1      -1.235  -0.463   4.411  0.00  0.00    +0.153 HD
BRANCH  12  15
ATOM     15  O   UNL     1      -3.173  -0.657   6.102  0.00  0.00    -0.446 OA
BRANCH  15  16
ATOM     16  C   UNL     1      -4.333  -0.601   6.974  0.00  0.00    +0.269 C 
BRANCH  16  17
ATOM     17  C   UNL     1      -4.312  -1.778   7.914  0.00  0.00    -0.010 A 
ATOM     18  C   UNL     1      -4.934  -2.960   7.555  0.00  0.00    +0.007 A 
ATOM     19  C   UNL     1      -4.911  -4.042   8.415  0.00  0.00    +0.000 A 
ATOM     20  C   UNL     1      -4.275  -3.939   9.638  0.00  0.00    +0.000 A 
ATOM     21  C   UNL     1      -3.658  -2.756   9.999  0.00  0.00    +0.000 A 
ATOM     22  C   UNL     1      -3.676  -1.676   9.137  0.00  0.00    +0.007 A 
ENDBRANCH  16  17
ENDBRANCH  15  16
ENDBRANCH  12  15
ENDBRANCH  10  11
BRANCH  10  24
ATOM     23  C   UNL     1      -2.049   3.194   5.110  0.00  0.00    +0.009 C 
ATOM     24  C   UNL     1      -1.148   2.610   4.019  0.00  0.00    +0.012 C 
ATOM     25  C   UNL     1       0.175   2.157   4.640  0.00  0.00    +0.009 C 
ENDBRANCH  10  24
ENDBRANCH   1  10
BRANCH   6  26
ATOM     26  C   UNL     1      -2.172   3.132  -2.615  0.00  0.00    +0.019 C 
BRANCH  26  27
ATOM     27  C   UNL     1      -3.459   2.350  -2.658  0.00  0.00    +0.197 C 
ATOM     28  O   UNL     1      -3.787   1.668  -1.710  0.00  0.00    -0.278 OA
ATOM     29  N   UNL     1      -4.247   2.409  -3.750  0.00  0.00    -0.313 N 
ATOM     30  H   UNL     1      -3.949   3.027  -4.610  0.00  0.00    +0.149 HD
BRANCH  29  31
ATOM     31  C   UNL     1      -5.498   1.649  -3.793  0.00  0.00    +0.139 C 
BRANCH  31  32
ATOM     32  C   UNL     1      -6.185   1.885  -5.113  0.00  0.00    -0.030 A 
ATOM     33  C   UNL     1      -7.087   2.924  -5.247  0.00  0.00    +0.005 A 
ATOM     34  C   UNL     1      -7.713   3.144  -6.460  0.00  0.00    +0.000 A 
ATOM     35  C   UNL     1      -7.445   2.319  -7.536  0.00  0.00    +0.000 A 
ATOM     36  C   UNL     1      -6.547   1.276  -7.400  0.00  0.00    +0.000 A 
ATOM     37  C   UNL     1      -5.917   1.060  -6.189  0.00  0.00    +0.005 A 
ENDBRANCH  31  32
ENDBRANCH  29  31
ENDBRANCH  26  27
ENDBRANCH   6  26
TORSDOF 10
