REMARK  Name = ZINC36693002
REMARK  4 active torsions:
REMARK  status: ('A' for Active; 'I' for Inactive)
REMARK    1  A    between atoms: C_1  and  C_2
REMARK    2  A    between atoms: N_10  and  C_14
REMARK    3  A    between atoms: C_14  and  C_15
REMARK    4  A    between atoms: C_21  and  C_23
REMARK                            x       y       z     vdW  Elec       q    Type
REMARK                         _______ _______ _______ _____ _____    ______ ____
ROOT
ATOM      1  C   UNL     1       3.488  -6.201  -1.487  0.00  0.00    +0.237 C 
ATOM      2  O   UNL     1       3.200  -5.459  -2.403  0.00  0.00    -0.274 OA
ATOM      3  N   UNL     1       3.954  -7.439  -1.744  0.00  0.00    -0.262 N 
ATOM      4  C   UNL     1       4.104  -7.866  -3.059  0.00  0.00    +0.188 A 
ATOM      5  N   UNL     1       3.855  -7.216  -4.178  0.00  0.00    -0.126 NA
ATOM      6  N   UNL     1       4.043  -7.741  -5.312  0.00  0.00    -0.144 NA
ATOM      7  C   UNL     1       4.502  -8.975  -5.379  0.00  0.00    +0.110 A 
ATOM      8  S   UNL     1       4.660  -9.349  -3.638  0.00  0.00    -0.035 S 
ATOM      9  H   UNL     1       4.185  -8.032  -1.012  0.00  0.00    +0.157 HD
ENDROOT
BRANCH   7  10
ATOM     10  C   UNL     1       4.811  -9.828  -6.583  0.00  0.00    +0.022 C 
ATOM     11  C   UNL     1       3.541 -10.012  -7.417  0.00  0.00    +0.017 C 
ATOM     12  C   UNL     1       3.855 -10.878  -8.639  0.00  0.00    -0.010 C 
ATOM     13  C   UNL     1       4.927 -10.192  -9.487  0.00  0.00    +0.007 C 
ATOM     14  C   UNL     1       6.197 -10.007  -8.654  0.00  0.00    -0.010 C 
ATOM     15  C   UNL     1       5.883  -9.142  -7.432  0.00  0.00    +0.017 C 
ATOM     16  C   UNL     1       6.708 -11.374  -8.193  0.00  0.00    +0.007 C 
ATOM     17  C   UNL     1       5.636 -12.060  -7.344  0.00  0.00    -0.010 C 
ATOM     18  C   UNL     1       4.366 -12.244  -8.178  0.00  0.00    +0.007 C 
ATOM     19  C   UNL     1       5.322 -11.194  -6.122  0.00  0.00    +0.017 C 
ENDBRANCH   7  10
BRANCH   1  20
ATOM     20  C   UNL     1       3.325  -5.738  -0.062  0.00  0.00    +0.214 C 
BRANCH  20  30
ATOM     21  C   UNL     1      -0.019   1.526   0.010  0.00  0.00    +0.007 C 
ATOM     22  C   UNL     1       0.002  -0.004   0.002  0.00  0.00    -0.014 C 
ATOM     23  C   UNL     1       0.716  -0.497  -1.258  0.00  0.00    +0.006 C 
ATOM     24  C   UNL     1       0.727  -2.028  -1.271  0.00  0.00    +0.035 C 
ATOM     25  C   UNL     1       1.442  -2.543  -0.027  0.00  0.00    +0.113 C 
ATOM     26  C   UNL     1       0.753  -2.041   1.238  0.00  0.00    +0.035 C 
ATOM     27  C   UNL     1       0.742  -0.510   1.242  0.00  0.00    +0.006 C 
ATOM     28  C   UNL     1       1.495  -4.053  -0.035  0.00  0.00    +0.247 C 
ATOM     29  O   UNL     1       0.556  -4.821  -0.030  0.00  0.00    -0.273 OA
ATOM     30  N   UNL     1       2.807  -4.367  -0.051  0.00  0.00    -0.215 N 
ATOM     31  C   UNL     1       3.576  -3.272  -0.053  0.00  0.00    +0.310 C 
ATOM     32  O   UNL     1       4.791  -3.300  -0.065  0.00  0.00    -0.252 OA
ATOM     33  N   UNL     1       2.853  -2.136  -0.039  0.00  0.00    -0.285 N 
ATOM     34  H   UNL     1       3.196  -1.229  -0.038  0.00  0.00    +0.151 HD
ENDBRANCH  20  30
ENDBRANCH   1  20
TORSDOF 3
