REMARK  Name = ZINC04746131
REMARK  9 active torsions:
REMARK  status: ('A' for Active; 'I' for Inactive)
REMARK    1  A    between atoms: C_1  and  C_2
REMARK    2  A    between atoms: C_2  and  C_3
REMARK    3  A    between atoms: C_8  and  C_19
REMARK    4  A    between atoms: C_9  and  C_18
REMARK    5  A    between atoms: C_12  and  C_15
REMARK    6  A    between atoms: C_13  and  O_14
REMARK    7  A    between atoms: C_15  and  N_51
REMARK    8  A    between atoms: C_16  and  N_51
REMARK    9  A    between atoms: C_17  and  N_51
REMARK                            x       y       z     vdW  Elec       q    Type
REMARK                         _______ _______ _______ _____ _____    ______ ____
ROOT
ATOM      1  C   UNL     1       1.160   2.085   0.002  0.00  0.00    -0.005 A 
ATOM      2  C   UNL     1      -0.017   1.391   0.010  0.00  0.00    +0.022 A 
ATOM      3  C   UNL     1       0.002  -0.004   0.002  0.00  0.00    +0.065 A 
ATOM      4  C   UNL     1      -1.248  -0.786   0.010  0.00  0.00    +0.200 A 
ATOM      5  O   UNL     1      -2.340  -0.245   0.024  0.00  0.00    -0.286 OA
ATOM      6  C   UNL     1      -1.113  -2.252   0.002  0.00  0.00    +0.067 A 
ATOM      7  C   UNL     1       0.133  -2.793  -0.013  0.00  0.00    +0.114 A 
ATOM      8  O   UNL     1       1.241  -2.046  -0.020  0.00  0.00    -0.459 OA
ATOM      9  C   UNL     1       1.224  -0.699  -0.013  0.00  0.00    +0.144 A 
ATOM     10  C   UNL     1       2.411   0.022  -0.021  0.00  0.00    +0.021 A 
ATOM     11  C   UNL     1       2.376   1.406  -0.014  0.00  0.00    +0.125 A 
ATOM     12  C   UNL     1       0.271  -4.294  -0.022  0.00  0.00    +0.087 C 
ENDROOT
BRANCH   6  13
ATOM     13  C   UNL     1      -2.314  -3.122   0.009  0.00  0.00    -0.007 A 
ATOM     14  C   UNL     1      -2.567  -3.954   1.099  0.00  0.00    +0.012 A 
ATOM     15  C   UNL     1      -3.687  -4.760   1.107  0.00  0.00    +0.050 A 
ATOM     16  C   UNL     1      -4.559  -4.752   0.029  0.00  0.00    +0.166 A 
ATOM     17  C   UNL     1      -4.309  -3.926  -1.065  0.00  0.00    +0.167 A 
ATOM     18  C   UNL     1      -3.189  -3.113  -1.075  0.00  0.00    +0.058 A 
ATOM     19  O   UNL     1      -5.305  -4.103  -1.982  0.00  0.00    -0.453 OA
ATOM     20  C   UNL     1      -6.380  -4.737  -1.264  0.00  0.00    +0.466 C 
ATOM     21  O   UNL     1      -5.713  -5.446  -0.204  0.00  0.00    -0.453 OA
ENDBRANCH   6  13
BRANCH   1  23
ATOM     22  C   UNL     1       1.248   4.111  -1.425  0.00  0.00    +0.009 C 
ATOM     23  C   UNL     1       1.142   3.592   0.010  0.00  0.00    +0.035 C 
ENDBRANCH   1  23
BRANCH  11  24
ATOM     24  O   UNL     1       3.538   2.108  -0.022  0.00  0.00    -0.506 OA
ATOM     25  H   UNL     1       3.866   2.316  -0.908  0.00  0.00    +0.292 HD
ENDBRANCH  11  24
BRANCH  10  26
ATOM     26  C   UNL     1       3.734  -0.701  -0.037  0.00  0.00    -0.036 C 
BRANCH  26  29
ATOM     27  C   UNL     1       5.535  -1.414  -1.489  0.00  0.00    -0.096 C 
ATOM     28  C   UNL     1       3.236  -1.858  -2.105  0.00  0.00    -0.096 C 
ATOM     29  N   UNL     1       4.149  -0.903  -1.441  0.00  0.00    +0.379 N 
ATOM     30  H   UNL     1       4.107  -0.004  -1.935  0.00  0.00    -0.082 HD
ENDBRANCH  26  29
ENDBRANCH  10  26
TORSDOF 5
