REMARK  Name = ZINC39377176
REMARK  4 active torsions:
REMARK  status: ('A' for Active; 'I' for Inactive)
REMARK    1  A    between atoms: C_1  and  C_2
REMARK    2  A    between atoms: N_6  and  N_19
REMARK    3  A    between atoms: C_7  and  C_10
REMARK    4  A    between atoms: N_19  and  C_20
REMARK                            x       y       z     vdW  Elec       q    Type
REMARK                         _______ _______ _______ _____ _____    ______ ____
ROOT
ATOM      1  C   UNL     1      -0.019   1.526   0.010  0.00  0.00    +0.029 C 
ATOM      2  C   UNL     1       0.002  -0.004   0.002  0.00  0.00    +0.133 C 
ATOM      3  C   UNL     1      -1.404  -0.574   0.104  0.00  0.00    +0.246 C 
ATOM      4  O   UNL     1      -2.302  -0.160  -0.597  0.00  0.00    -0.273 OA
ATOM      5  N   UNL     1      -1.612  -1.540   0.989  0.00  0.00    -0.204 N 
ATOM      6  C   UNL     1      -0.486  -2.015   1.816  0.00  0.00    +0.185 C 
ATOM      7  S   UNL     1       0.750  -0.670   1.552  0.00  0.00    -0.119 S 
ENDROOT
BRANCH   6   8
ATOM      8  C   UNL     1      -0.883  -2.111   3.266  0.00  0.00    -0.012 A 
ATOM      9  C   UNL     1      -1.846  -1.261   3.776  0.00  0.00    +0.010 A 
ATOM     10  C   UNL     1      -2.213  -1.345   5.106  0.00  0.00    +0.050 A 
ATOM     11  C   UNL     1      -1.616  -2.284   5.932  0.00  0.00    +0.166 A 
ATOM     12  C   UNL     1      -0.646  -3.141   5.418  0.00  0.00    +0.167 A 
ATOM     13  C   UNL     1      -0.286  -3.054   4.083  0.00  0.00    +0.056 A 
ATOM     14  O   UNL     1      -0.215  -3.963   6.420  0.00  0.00    -0.453 OA
ATOM     15  C   UNL     1      -0.635  -3.330   7.643  0.00  0.00    +0.466 C 
ATOM     16  O   UNL     1      -1.794  -2.569   7.255  0.00  0.00    -0.453 OA
ENDBRANCH   6   8
BRANCH   5  17
ATOM     17  N   UNL     1      -2.886  -2.104   1.137  0.00  0.00    -0.261 N 
ATOM     18  H   UNL     1      -3.431  -1.876   1.906  0.00  0.00    +0.170 HD
BRANCH  17  19
ATOM     19  C   UNL     1      -3.372  -2.993   0.175  0.00  0.00    +0.045 A 
ATOM     20  C   UNL     1      -2.591  -3.325  -0.924  0.00  0.00    +0.024 A 
ATOM     21  C   UNL     1      -3.075  -4.205  -1.872  0.00  0.00    +0.002 A 
ATOM     22  C   UNL     1      -4.335  -4.755  -1.728  0.00  0.00    +0.000 A 
ATOM     23  C   UNL     1      -5.115  -4.427  -0.635  0.00  0.00    +0.002 A 
ATOM     24  C   UNL     1      -4.636  -3.552   0.320  0.00  0.00    +0.024 A 
ENDBRANCH  17  19
ENDBRANCH   5  17
TORSDOF 3
