REMARK  Name = ZINC01102340
REMARK  6 active torsions:
REMARK  status: ('A' for Active; 'I' for Inactive)
REMARK    1  A    between atoms: C_1  and  C_2
REMARK    2  A    between atoms: C_2  and  C_3
REMARK    3  A    between atoms: C_2  and  C_4
REMARK    4  A    between atoms: C_2  and  N_5
REMARK    5  A    between atoms: C_20  and  C_21
REMARK    6  A    between atoms: C_33  and  C_34
REMARK                            x       y       z     vdW  Elec       q    Type
REMARK                         _______ _______ _______ _____ _____    ______ ____
ROOT
ATOM      1  N   UNL     1      -2.654   0.811   2.636  0.00  0.00    -0.309 N 
ATOM      2  C   UNL     1      -3.022  -0.470   2.279  0.00  0.00    +0.222 A 
ATOM      3  N   UNL     1      -2.138  -1.461   2.352  0.00  0.00    -0.178 NA
ATOM      4  C   UNL     1      -2.494  -2.694   2.012  0.00  0.00    +0.243 A 
ATOM      5  N   UNL     1      -3.730  -2.937   1.591  0.00  0.00    -0.175 NA
ATOM      6  C   UNL     1      -4.612  -1.947   1.513  0.00  0.00    +0.243 A 
ATOM      7  N   UNL     1      -4.259  -0.714   1.857  0.00  0.00    -0.178 NA
ATOM      8  N   UNL     1      -5.905  -2.202   1.073  0.00  0.00    -0.257 N 
ATOM      9  C   UNL     1      -6.955  -1.301   1.043  0.00  0.00    +0.077 A 
ATOM     10  C   UNL     1      -7.092   0.033   1.399  0.00  0.00    +0.028 A 
ATOM     11  C   UNL     1      -8.308   0.664   1.242  0.00  0.00    +0.002 A 
ATOM     12  C   UNL     1      -9.397  -0.027   0.729  0.00  0.00    +0.002 A 
ATOM     13  C   UNL     1      -9.280  -1.351   0.370  0.00  0.00    +0.030 A 
ATOM     14  C   UNL     1      -8.054  -2.005   0.524  0.00  0.00    +0.090 A 
ATOM     15  N   UNL     1      -7.631  -3.270   0.268  0.00  0.00    -0.224 NA
ATOM     16  C   UNL     1      -6.375  -3.386   0.583  0.00  0.00    +0.223 A 
ATOM     17  N   UNL     1      -1.571  -3.730   2.093  0.00  0.00    -0.257 N 
ATOM     18  C   UNL     1      -1.757  -4.948   2.725  0.00  0.00    +0.077 A 
ATOM     19  C   UNL     1      -2.807  -5.519   3.429  0.00  0.00    +0.028 A 
ATOM     20  C   UNL     1      -2.674  -6.789   3.949  0.00  0.00    +0.002 A 
ATOM     21  C   UNL     1      -1.496  -7.501   3.773  0.00  0.00    +0.002 A 
ATOM     22  C   UNL     1      -0.444  -6.950   3.078  0.00  0.00    +0.030 A 
ATOM     23  C   UNL     1      -0.562  -5.664   2.544  0.00  0.00    +0.090 A 
ATOM     24  N   UNL     1       0.275  -4.868   1.829  0.00  0.00    -0.224 NA
ATOM     25  C   UNL     1      -0.315  -3.740   1.559  0.00  0.00    +0.223 A 
ATOM     26  H   UNL     1      -3.407   1.612   2.663  0.00  0.00    +0.149 HD
ENDROOT
BRANCH   1  28
ATOM     27  C   UNL     1      -0.381   0.924   1.738  0.00  0.00    +0.031 C 
ATOM     28  C   UNL     1      -1.260   1.104   2.978  0.00  0.00    +0.026 C 
ATOM     29  C   UNL     1      -0.793   0.148   4.077  0.00  0.00    +0.031 C 
ATOM     30  C   UNL     1      -1.150   2.547   3.476  0.00  0.00    +0.031 C 
ENDBRANCH   1  28
BRANCH  16  31
ATOM     31  C   UNL     1      -5.559  -4.644   0.433  0.00  0.00    +0.451 C 
ATOM     32  F   UNL     1      -6.250  -5.554  -0.375  0.00  0.00    -0.163 F 
ATOM     33  F   UNL     1      -4.330  -4.334  -0.160  0.00  0.00    -0.163 F 
ATOM     34  F   UNL     1      -5.340  -5.211   1.692  0.00  0.00    -0.163 F 
ENDBRANCH  16  31
BRANCH  25  35
ATOM     35  C   UNL     1       0.300  -2.609   0.776  0.00  0.00    +0.451 C 
ATOM     36  F   UNL     1       1.419  -3.078   0.080  0.00  0.00    -0.163 F 
ATOM     37  F   UNL     1      -0.638  -2.108  -0.133  0.00  0.00    -0.163 F 
ATOM     38  F   UNL     1       0.689  -1.592   1.654  0.00  0.00    -0.163 F 
ENDBRANCH  25  35
TORSDOF 3
