REMARK  Name = ZINC32754391
REMARK  7 active torsions:
REMARK  status: ('A' for Active; 'I' for Inactive)
REMARK    1  A    between atoms: C_1  and  C_2
REMARK    2  A    between atoms: C_2  and  N_9
REMARK    3  A    between atoms: C_10  and  C_12
REMARK    4  A    between atoms: C_12  and  N_13
REMARK    5  A    between atoms: N_13  and  C_14
REMARK    6  A    between atoms: N_13  and  C_15
REMARK    7  A    between atoms: C_15  and  C_16
REMARK                            x       y       z     vdW  Elec       q    Type
REMARK                         _______ _______ _______ _____ _____    ______ ____
ROOT
ATOM      1  C   UNL     1       1.193   5.491   1.647  0.00  0.00    +0.019 C 
ENDROOT
BRANCH   1   3
ATOM      2  N   UNL     1      -0.556   4.008   0.721  0.00  0.00    -0.310 N 
ATOM      3  C   UNL     1       0.191   4.373   1.781  0.00  0.00    +0.197 C 
ATOM      4  O   UNL     1       0.058   3.803   2.843  0.00  0.00    -0.278 OA
ATOM      5  H   UNL     1      -0.435   4.525  -0.242  0.00  0.00    +0.149 HD
BRANCH   2   7
ATOM      6  C   UNL     1      -2.554   3.273   1.932  0.00  0.00    +0.033 C 
ATOM      7  C   UNL     1      -1.530   2.921   0.851  0.00  0.00    +0.052 C 
ATOM      8  C   UNL     1      -0.802   1.617   1.228  0.00  0.00    +0.049 C 
ATOM      9  C   UNL     1      -0.013   1.086   0.008  0.00  0.00    +0.168 C 
ATOM     10  S   UNL     1      -0.978   1.733  -1.417  0.00  0.00    -0.029 S 
ATOM     11  O   UNL     1      -0.163   2.628  -2.160  0.00  0.00    -0.174 OA
ATOM     12  O   UNL     1      -1.607   0.645  -2.082  0.00  0.00    -0.174 OA
ATOM     13  C   UNL     1      -2.256   2.700  -0.507  0.00  0.00    +0.191 C 
ENDBRANCH   2   7
ENDBRANCH   1   3
BRANCH   1  14
ATOM     14  N   UNL     1       1.874   5.695   2.932  0.00  0.00    +0.387 N 
ATOM     15  C   UNL     1       2.696   4.529   3.283  0.00  0.00    -0.095 C 
ATOM     16  H   UNL     1       1.104   5.812   3.708  0.00  0.00    -0.081 HD
BRANCH  14  17
ATOM     17  C   UNL     1       2.682   6.922   2.911  0.00  0.00    -0.021 C 
BRANCH  17  18
ATOM     18  C   UNL     1       3.165   7.230   4.305  0.00  0.00    +0.046 A 
ATOM     19  C   UNL     1       2.529   7.988   5.215  0.00  0.00    +0.150 A 
ATOM     20  N   UNL     1       3.272   8.021   6.332  0.00  0.00    -0.209 NA
ATOM     21  C   UNL     1       4.351   7.318   6.143  0.00  0.00    +0.179 A 
ATOM     22  N   UNL     1       4.353   6.785   4.881  0.00  0.00    -0.298 N 
ATOM     23  C   UNL     1       5.438   6.011   4.532  0.00  0.00    +0.100 A 
ATOM     24  C   UNL     1       6.431   5.800   5.394  0.00  0.00    +0.067 A 
ATOM     25  S   UNL     1       5.880   6.720   6.823  0.00  0.00    -0.058 S 
ATOM     26 CL   UNL     1       1.003   8.784   4.985  0.00  0.00    -0.060 Cl
ENDBRANCH  17  18
ENDBRANCH  14  17
ENDBRANCH   1  14
TORSDOF 5
