REMARK  Name = ZINC09821047
REMARK  7 active torsions:
REMARK  status: ('A' for Active; 'I' for Inactive)
REMARK    1  A    between atoms: C_4  and  C_7
REMARK    2  A    between atoms: C_7  and  C_8
REMARK    3  A    between atoms: C_8  and  C_10
REMARK    4  A    between atoms: C_8  and  N_22
REMARK    5  A    between atoms: N_12  and  C_13
REMARK    6  A    between atoms: N_22  and  S_23
REMARK    7  A    between atoms: S_23  and  C_26
REMARK                            x       y       z     vdW  Elec       q    Type
REMARK                         _______ _______ _______ _____ _____    ______ ____
ROOT
ATOM      1  C   UNL     1       4.630   0.081  -2.492  0.00  0.00    +0.167 C 
ENDROOT
BRANCH   1   2
ATOM      2  C   UNL     1       4.148  -0.195  -3.892  0.00  0.00    +0.236 C 
ATOM      3  O   UNL     1       3.611  -1.251  -4.152  0.00  0.00    -0.274 OA
ATOM      4  N   UNL     1       4.312   0.732  -4.857  0.00  0.00    -0.284 N 
ATOM      5  H   UNL     1       4.681   1.602  -4.636  0.00  0.00    +0.155 HD
BRANCH   4   6
ATOM      6  C   UNL     1       3.953   0.439  -6.179  0.00  0.00    +0.037 A 
ATOM      7  C   UNL     1       4.693   0.960  -7.232  0.00  0.00    +0.027 A 
ATOM      8  C   UNL     1       4.341   0.668  -8.536  0.00  0.00    +0.051 A 
ATOM      9  C   UNL     1       3.244  -0.136  -8.797  0.00  0.00    +0.166 A 
ATOM     10  C   UNL     1       2.496  -0.656  -7.743  0.00  0.00    +0.168 A 
ATOM     11  C   UNL     1       2.852  -0.367  -6.436  0.00  0.00    +0.072 A 
ATOM     12  O   UNL     1       1.480  -1.408  -8.258  0.00  0.00    -0.453 OA
ATOM     13  C   UNL     1       1.369  -1.011  -9.637  0.00  0.00    +0.466 C 
ATOM     14  O   UNL     1       2.696  -0.563  -9.973  0.00  0.00    -0.453 OA
ENDBRANCH   4   6
ENDBRANCH   1   2
BRANCH   1  15
ATOM     15  N   UNL     1       4.336  -1.072  -1.638  0.00  0.00    -0.178 NA
ATOM     16  H   UNL     1       4.385  -1.970  -2.002  0.00  0.00    +0.149 HD
BRANCH  15  17
ATOM     17  S   UNL     1       3.921  -0.843  -0.051  0.00  0.00    +0.059 S 
ATOM     18  O   UNL     1       4.886   0.044   0.497  0.00  0.00    -0.153 OA
ATOM     19  O   UNL     1       3.675  -2.132   0.494  0.00  0.00    -0.153 OA
BRANCH  17  20
ATOM     20  C   UNL     1       2.382   0.014  -0.034  0.00  0.00    +0.109 A 
ATOM     21  C   UNL     1       1.196  -0.698  -0.029  0.00  0.00    +0.032 A 
ATOM     22  C   UNL     1      -0.013  -0.029  -0.015  0.00  0.00    +0.051 A 
ATOM     23  C   UNL     1      -0.041   1.358  -0.009  0.00  0.00    +0.162 A 
ATOM     24  C   UNL     1       1.151   2.073  -0.011  0.00  0.00    +0.164 A 
ATOM     25  C   UNL     1       2.361   1.395  -0.025  0.00  0.00    +0.078 A 
ATOM     26  O   UNL     1       1.147   3.434   0.004  0.00  0.00    -0.485 OA
ATOM     27  C   UNL     1      -0.079   4.078  -0.360  0.00  0.00    +0.270 C 
ATOM     28  C   UNL     1      -1.227   3.381   0.384  0.00  0.00    +0.270 C 
ATOM     29  O   UNL     1      -1.239   2.002  -0.004  0.00  0.00    -0.485 OA
ENDBRANCH  17  20
ENDBRANCH  15  17
ENDBRANCH   1  15
BRANCH   1  30
ATOM     30  C   UNL     1       6.140   0.329  -2.512  0.00  0.00    +0.065 C 
BRANCH  30  34
ATOM     31  C   UNL     1       7.453   1.452   1.395  0.00  0.00    +0.000 A 
ATOM     32  C   UNL     1       7.433   0.119   1.029  0.00  0.00    +0.000 A 
ATOM     33  C   UNL     1       7.008  -0.244  -0.235  0.00  0.00    +0.004 A 
ATOM     34  C   UNL     1       6.603   0.725  -1.134  0.00  0.00    -0.045 A 
ATOM     35  C   UNL     1       6.628   2.058  -0.770  0.00  0.00    +0.004 A 
ATOM     36  C   UNL     1       7.048   2.421   0.496  0.00  0.00    +0.000 A 
ENDBRANCH  30  34
ENDBRANCH   1  30
TORSDOF 7
