REMARK  Name = ZINC10861568
REMARK  8 active torsions:
REMARK  status: ('A' for Active; 'I' for Inactive)
REMARK    1  A    between atoms: C_1  and  C_2
REMARK    2  A    between atoms: C_8  and  N_10
REMARK    3  A    between atoms: C_14  and  C_16
REMARK    4  A    between atoms: C_16  and  S_17
REMARK    5  A    between atoms: S_17  and  C_18
REMARK    6  A    between atoms: N_22  and  C_23
REMARK    7  A    between atoms: C_26  and  O_29
REMARK    8  A    between atoms: O_29  and  C_30
REMARK                            x       y       z     vdW  Elec       q    Type
REMARK                         _______ _______ _______ _____ _____    ______ ____
ROOT
ATOM      1  N   UNL     1       7.436   6.054  -0.036  0.00  0.00    -0.296 N 
ATOM      2  C   UNL     1       7.080   4.754  -0.039  0.00  0.00    +0.306 C 
ATOM      3  O   UNL     1       7.935   3.890  -0.052  0.00  0.00    -0.252 OA
ATOM      4  N   UNL     1       5.776   4.412  -0.029  0.00  0.00    -0.239 N 
ATOM      5  C   UNL     1       5.420   3.112  -0.032  0.00  0.00    +0.231 C 
ATOM      6  O   UNL     1       6.273   2.250  -0.045  0.00  0.00    -0.274 OA
ATOM      7  H   UNL     1       6.754   6.743  -0.026  0.00  0.00    +0.151 HD
ATOM      8  H   UNL     1       5.094   5.102  -0.019  0.00  0.00    +0.159 HD
ENDROOT
BRANCH   1  15
ATOM      9  C   UNL     1       8.509   7.801   2.010  0.00  0.00    +0.009 C 
ATOM     10  C   UNL     1       9.021   7.816   0.568  0.00  0.00    +0.006 C 
ATOM     11  C   UNL     1      10.501   8.204   0.557  0.00  0.00    +0.005 C 
ATOM     12  C   UNL     1      11.013   8.219  -0.885  0.00  0.00    +0.000 C 
ATOM     13  C   UNL     1      10.845   6.828  -1.500  0.00  0.00    +0.002 C 
ATOM     14  C   UNL     1       9.365   6.440  -1.489  0.00  0.00    +0.022 C 
ATOM     15  C   UNL     1       8.853   6.425  -0.047  0.00  0.00    +0.077 C 
ENDBRANCH   1  15
BRANCH   5  16
ATOM     16  C   UNL     1       3.963   2.730  -0.021  0.00  0.00    +0.173 C 
BRANCH  16  17
ATOM     17  S   UNL     1       3.812   0.926  -0.029  0.00  0.00    -0.075 S 
BRANCH  17  18
ATOM     18  C   UNL     1       2.057   0.766  -0.013  0.00  0.00    +0.214 A 
ATOM     19  N   UNL     1       1.182   1.749   0.000  0.00  0.00    -0.101 NA
ATOM     20  N   UNL     1      -0.015   1.285   0.009  0.00  0.00    -0.022 NA
ATOM     21  N   UNL     1       0.002  -0.004   0.002  0.00  0.00    -0.038 NA
ATOM     22  N   UNL     1       1.353  -0.393  -0.013  0.00  0.00    -0.187 N 
BRANCH  22  23
ATOM     23  C   UNL     1       1.863  -1.700  -0.025  0.00  0.00    +0.070 A 
ATOM     24  C   UNL     1       3.024  -1.986  -0.731  0.00  0.00    +0.031 A 
ATOM     25  C   UNL     1       3.529  -3.272  -0.737  0.00  0.00    +0.048 A 
ATOM     26  C   UNL     1       2.870  -4.279  -0.047  0.00  0.00    +0.120 A 
ATOM     27  C   UNL     1       1.708  -3.995   0.654  0.00  0.00    +0.048 A 
ATOM     28  C   UNL     1       1.205  -2.709   0.666  0.00  0.00    +0.031 A 
BRANCH  26  29
ATOM     29  O   UNL     1       3.365  -5.545  -0.059  0.00  0.00    -0.495 OA
ATOM     30  C   UNL     1       4.565  -5.767  -0.801  0.00  0.00    +0.277 C 
ENDBRANCH  26  29
ENDBRANCH  22  23
ENDBRANCH  17  18
ENDBRANCH  16  17
ENDBRANCH   5  16
TORSDOF 6
