REMARK  Name = ZINC65011055
REMARK  9 active torsions:
REMARK  status: ('A' for Active; 'I' for Inactive)
REMARK    1  A    between atoms: C_1  and  C_2
REMARK    2  A    between atoms: C_5  and  C_22
REMARK    3  A    between atoms: C_7  and  S_8
REMARK    4  A    between atoms: S_8  and  N_11
REMARK    5  A    between atoms: N_11  and  C_12
REMARK    6  A    between atoms: C_12  and  C_13
REMARK    7  A    between atoms: C_13  and  C_15
REMARK    8  A    between atoms: C_13  and  C_16
REMARK    9  A    between atoms: C_23  and  C_34
REMARK                            x       y       z     vdW  Elec       q    Type
REMARK                         _______ _______ _______ _____ _____    ______ ____
ROOT
ATOM      1  C   UNL     1      -0.496   1.397  -0.055  0.00  0.00    +0.046 C 
ATOM      2  C   UNL     1      -0.358  -0.103  -0.040  0.00  0.00    -0.024 A 
ATOM      3  C   UNL     1      -0.559  -0.825  -1.203  0.00  0.00    +0.006 A 
ATOM      4  C   UNL     1      -0.435  -2.200  -1.195  0.00  0.00    +0.009 A 
ATOM      5  C   UNL     1      -0.106  -2.860  -0.012  0.00  0.00    -0.011 A 
ATOM      6  C   UNL     1       0.096  -2.128   1.156  0.00  0.00    +0.037 A 
ATOM      7  C   UNL     1      -0.026  -0.753   1.135  0.00  0.00    +0.109 A 
ENDROOT
BRANCH   5   8
ATOM      8  C   UNL     1       0.029  -4.337   0.003  0.00  0.00    +0.045 A 
ATOM      9  C   UNL     1      -0.793  -5.241   0.702  0.00  0.00    +0.070 A 
ATOM     10  N   UNL     1      -0.377  -6.449   0.456  0.00  0.00    -0.167 NA
ATOM     11  N   UNL     1       0.708  -6.391  -0.441  0.00  0.00    -0.185 N 
ATOM     12  C   UNL     1       0.986  -5.083  -0.677  0.00  0.00    +0.139 A 
ATOM     13  N   UNL     1       2.032  -4.508  -1.369  0.00  0.00    -0.270 N 
ATOM     14  C   UNL     1       2.623  -5.039  -2.459  0.00  0.00    +0.219 C 
ATOM     15  O   UNL     1       3.551  -4.465  -2.988  0.00  0.00    -0.275 OA
ATOM     16  C   UNL     1       2.133  -6.336  -3.013  0.00  0.00    +0.105 C 
ATOM     17  C   UNL     1       2.296  -7.462  -2.025  0.00  0.00    +0.110 C 
ATOM     18  C   UNL     1       1.280  -7.498  -0.958  0.00  0.00    +0.250 C 
ATOM     19  O   UNL     1       0.932  -8.575  -0.533  0.00  0.00    -0.271 OA
ATOM     20  C   UNL     1      -1.957  -4.872   1.586  0.00  0.00    +0.068 C 
ATOM     21  H   UNL     1       2.367  -3.656  -1.048  0.00  0.00    +0.156 HD
ENDBRANCH   5   8
BRANCH   7  22
ATOM     22  S   UNL     1       0.236   0.175   2.610  0.00  0.00    +0.059 S 
ATOM     23  O   UNL     1       0.525  -0.764   3.635  0.00  0.00    -0.153 OA
ATOM     24  O   UNL     1       1.124   1.232   2.272  0.00  0.00    -0.153 OA
BRANCH  22  25
ATOM     25  N   UNL     1      -1.209   0.880   3.007  0.00  0.00    -0.189 NA
ATOM     26  H   UNL     1      -1.295   1.847   3.004  0.00  0.00    +0.148 HD
BRANCH  25  27
ATOM     27  C   UNL     1      -2.358   0.044   3.364  0.00  0.00    +0.113 C 
BRANCH  27  28
ATOM     28  C   UNL     1      -3.420   0.904   4.054  0.00  0.00    +0.031 C 
ATOM     29  C   UNL     1      -2.869   1.425   5.383  0.00  0.00    +0.014 C 
BRANCH  28  30
ATOM     30  C   UNL     1      -4.650   0.073   4.310  0.00  0.00    -0.043 A 
ATOM     31  C   UNL     1      -4.570  -1.054   5.107  0.00  0.00    +0.004 A 
ATOM     32  C   UNL     1      -5.698  -1.816   5.343  0.00  0.00    +0.000 A 
ATOM     33  C   UNL     1      -6.908  -1.452   4.781  0.00  0.00    +0.000 A 
ATOM     34  C   UNL     1      -6.989  -0.325   3.985  0.00  0.00    +0.000 A 
ATOM     35  C   UNL     1      -5.861   0.440   3.753  0.00  0.00    +0.004 A 
ENDBRANCH  28  30
ENDBRANCH  27  28
ENDBRANCH  25  27
ENDBRANCH  22  25
ENDBRANCH   7  22
TORSDOF 6
