REMARK  Name = ZINC09187107
REMARK  10 active torsions:
REMARK  status: ('A' for Active; 'I' for Inactive)
REMARK    1  A    between atoms: C_1  and  C_2
REMARK    2  A    between atoms: C_3  and  C_30
REMARK    3  A    between atoms: C_11  and  O_14
REMARK    4  A    between atoms: C_12  and  C_13
REMARK    5  A    between atoms: O_14  and  C_15
REMARK    6  A    between atoms: C_15  and  C_16
REMARK    7  A    between atoms: N_18  and  C_19
REMARK    8  A    between atoms: C_19  and  C_20
REMARK    9  A    between atoms: C_23  and  S_26
REMARK   10  A    between atoms: S_26  and  N_29
REMARK                            x       y       z     vdW  Elec       q    Type
REMARK                         _______ _______ _______ _____ _____    ______ ____
ROOT
ATOM      1  C   UNL     1       3.254   7.692   0.017  0.00  0.00    +0.251 C 
ATOM      2  O   UNL     1       2.121   8.125   0.031  0.00  0.00    -0.272 OA
ATOM      3  N   UNL     1       4.300   8.542   0.013  0.00  0.00    -0.308 N 
ATOM      4  H   UNL     1       5.206   8.195   0.002  0.00  0.00    +0.149 HD
ENDROOT
BRANCH   1   5
ATOM      5  C   UNL     1       3.492   6.204   0.006  0.00  0.00    +0.324 C 
BRANCH   5   6
ATOM      6  O   UNL     1       2.237   5.521   0.013  0.00  0.00    -0.482 OA
BRANCH   6  17
ATOM      7  C   UNL     1       3.704  -0.814  -0.038  0.00  0.00    +0.045 C 
ATOM      8  C   UNL     1       2.397  -0.065  -0.021  0.00  0.00    -0.030 A 
ATOM      9  C   UNL     1       1.212  -0.728  -0.013  0.00  0.00    +0.037 A 
ATOM     10  C   UNL     1       0.002  -0.004   0.002  0.00  0.00    +0.340 A 
ATOM     11  O   UNL     1      -1.053  -0.612   0.009  0.00  0.00    -0.245 OA
ATOM     12  O   UNL     1      -0.016   1.338   0.009  0.00  0.00    -0.422 OA
ATOM     13  C   UNL     1       1.126   2.058   0.002  0.00  0.00    +0.146 A 
ATOM     14  C   UNL     1       2.370   1.400  -0.013  0.00  0.00    +0.021 A 
ATOM     15  C   UNL     1       3.556   2.142  -0.020  0.00  0.00    +0.015 A 
ATOM     16  C   UNL     1       3.502   3.506  -0.012  0.00  0.00    +0.047 A 
ATOM     17  C   UNL     1       2.274   4.164   0.004  0.00  0.00    +0.128 A 
ATOM     18  C   UNL     1       1.090   3.444   0.011  0.00  0.00    +0.034 A 
ATOM     19  C   UNL     1      -0.233   4.166   0.028  0.00  0.00    +0.051 C 
ATOM     20  C   UNL     1       1.190  -2.235  -0.022  0.00  0.00    +0.051 C 
ENDBRANCH   6  17
ENDBRANCH   5   6
ENDBRANCH   1   5
BRANCH   3  21
ATOM     21  C   UNL     1       4.069   9.988   0.024  0.00  0.00    +0.139 C 
BRANCH  21  22
ATOM     22  C   UNL     1       5.393  10.709   0.016  0.00  0.00    -0.030 A 
ATOM     23  C   UNL     1       6.008  11.036   1.210  0.00  0.00    +0.007 A 
ATOM     24  C   UNL     1       7.225  11.693   1.203  0.00  0.00    +0.029 A 
ATOM     25  C   UNL     1       7.821  12.030   0.002  0.00  0.00    +0.105 A 
ATOM     26  C   UNL     1       7.203  11.707  -1.192  0.00  0.00    +0.029 A 
ATOM     27  C   UNL     1       5.989  11.047  -1.184  0.00  0.00    +0.007 A 
BRANCH  25  28
ATOM     28  S   UNL     1       9.369  12.872  -0.007  0.00  0.00    +0.056 S 
ATOM     29  O   UNL     1      10.000  12.575   1.231  0.00  0.00    -0.153 OA
ATOM     30  O   UNL     1       9.978  12.589  -1.260  0.00  0.00    -0.153 OA
BRANCH  28  31
ATOM     31  N   UNL     1       9.044  14.495   0.005  0.00  0.00    -0.204 NA
ATOM     32  H   UNL     1       9.666  15.111   0.423  0.00  0.00    +0.144 HD
ATOM     33  H   UNL     1       8.232  14.831  -0.406  0.00  0.00    +0.144 HD
ENDBRANCH  28  31
ENDBRANCH  25  28
ENDBRANCH  21  22
ENDBRANCH   3  21
TORSDOF 7
