REMARK  Name = ZINC06405598
REMARK  7 active torsions:
REMARK  status: ('A' for Active; 'I' for Inactive)
REMARK    1  A    between atoms: C_1  and  C_2
REMARK    2  A    between atoms: C_5  and  C_34
REMARK    3  A    between atoms: C_9  and  C_14
REMARK    4  A    between atoms: C_14  and  C_16
REMARK    5  A    between atoms: C_14  and  N_66
REMARK    6  A    between atoms: N_20  and  C_21
REMARK    7  A    between atoms: C_30  and  C_33
REMARK                            x       y       z     vdW  Elec       q    Type
REMARK                         _______ _______ _______ _____ _____    ______ ____
ROOT
ATOM      1  C   UNL     1      -2.490   0.996   0.018  0.00  0.00    +0.039 C 
ENDROOT
BRANCH   1  10
ATOM      2  C   UNL     1       2.552  -0.306  -0.024  0.00  0.00    +0.044 C 
ATOM      3  C   UNL     1       2.478   1.199  -0.016  0.00  0.00    -0.041 A 
ATOM      4  C   UNL     1       3.624   1.942  -0.023  0.00  0.00    +0.004 A 
ATOM      5  C   UNL     1       3.567   3.329  -0.014  0.00  0.00    +0.005 A 
ATOM      6  C   UNL     1       2.354   3.983   0.001  0.00  0.00    -0.026 A 
ATOM      7  C   UNL     1       1.174   3.248   0.008  0.00  0.00    +0.052 A 
ATOM      8  C   UNL     1       1.236   1.841   0.000  0.00  0.00    +0.002 A 
ATOM      9  C   UNL     1      -0.013   1.076   0.008  0.00  0.00    +0.018 A 
ATOM     10  C   UNL     1      -1.187   1.753   0.017  0.00  0.00    +0.011 A 
ATOM     11  C   UNL     1      -1.194   3.164   0.030  0.00  0.00    +0.251 A 
ATOM     12  O   UNL     1      -2.262   3.753   0.044  0.00  0.00    -0.268 OA
ATOM     13  N   UNL     1      -0.054   3.876   0.023  0.00  0.00    -0.322 N 
ATOM     14  H   UNL     1      -0.095   4.845   0.029  0.00  0.00    +0.169 HD
ATOM     15  C   UNL     1       2.307   5.489   0.010  0.00  0.00    +0.046 C 
ENDBRANCH   1  10
BRANCH   1  22
ATOM     16  C   UNL     1      -2.576   1.270   2.422  0.00  0.00    -0.077 C 
ATOM     17  C   UNL     1      -3.397   1.864   3.568  0.00  0.00    -0.018 C 
ATOM     18  C   UNL     1      -4.749   1.149   3.646  0.00  0.00    -0.001 C 
ATOM     19  C   UNL     1      -5.470   1.289   2.302  0.00  0.00    -0.031 C 
ATOM     20  C   UNL     1      -4.588   0.711   1.193  0.00  0.00    -0.074 C 
ATOM     21  C   UNL     1      -6.795   0.526   2.351  0.00  0.00    +0.005 C 
ATOM     22  N   UNL     1      -3.313   1.459   1.155  0.00  0.00    +0.389 N 
ATOM     23  H   UNL     1      -3.517   2.458   1.034  0.00  0.00    -0.080 HD
ENDBRANCH   1  22
BRANCH   1  24
ATOM     24  C   UNL     1      -3.232   1.270  -1.264  0.00  0.00    +0.143 A 
ATOM     25  N   UNL     1      -3.881   2.366  -1.574  0.00  0.00    -0.115 NA
ATOM     26  N   UNL     1      -4.376   2.215  -2.754  0.00  0.00    -0.023 NA
ATOM     27  N   UNL     1      -4.067   1.048  -3.201  0.00  0.00    -0.044 NA
ATOM     28  N   UNL     1      -3.362   0.434  -2.312  0.00  0.00    -0.227 N 
BRANCH  28  29
ATOM     29  C   UNL     1      -2.808  -0.917  -2.421  0.00  0.00    +0.111 C 
ATOM     30  C   UNL     1      -1.860  -0.985  -3.620  0.00  0.00    +0.027 C 
ATOM     31  C   UNL     1      -1.281  -2.396  -3.734  0.00  0.00    +0.002 C 
ATOM     32  C   UNL     1      -2.419  -3.400  -3.926  0.00  0.00    +0.000 C 
ATOM     33  C   UNL     1      -3.367  -3.333  -2.727  0.00  0.00    +0.002 C 
ATOM     34  C   UNL     1      -3.946  -1.921  -2.613  0.00  0.00    +0.027 C 
ENDBRANCH  28  29
ENDBRANCH   1  24
TORSDOF 4
