REMARK  Name = ZINC32674794
REMARK  6 active torsions:
REMARK  status: ('A' for Active; 'I' for Inactive)
REMARK    1  A    between atoms: C_1  and  C_2
REMARK    2  A    between atoms: C_2  and  C_3
REMARK    3  A    between atoms: C_2  and  N_4
REMARK    4  A    between atoms: C_9  and  C_16
REMARK    5  A    between atoms: C_11  and  C_13
REMARK    6  A    between atoms: C_20  and  C_29
REMARK                            x       y       z     vdW  Elec       q    Type
REMARK                         _______ _______ _______ _____ _____    ______ ____
ROOT
ATOM      1  C   UNL     1      -2.443   1.362  -0.021  0.00  0.00    +0.252 C 
ATOM      2  O   UNL     1      -3.144   2.151  -0.623  0.00  0.00    -0.270 OA
ATOM      3  N   UNL     1      -1.782   1.755   1.086  0.00  0.00    -0.260 N 
ATOM      4  C   UNL     1      -1.032   0.791   1.911  0.00  0.00    +0.168 C 
ATOM      5  C   UNL     1      -1.313   1.124   3.383  0.00  0.00    +0.276 C 
ATOM      6  O   UNL     1      -0.915   2.474   3.634  0.00  0.00    -0.476 OA
ATOM      7  C   UNL     1      -1.351   3.433   2.775  0.00  0.00    +0.143 A 
ATOM      8  C   UNL     1      -1.782   3.099   1.493  0.00  0.00    +0.079 A 
ATOM      9  C   UNL     1      -2.215   4.088   0.625  0.00  0.00    +0.027 A 
ATOM     10  C   UNL     1      -2.221   5.409   1.034  0.00  0.00    +0.002 A 
ATOM     11  C   UNL     1      -1.798   5.742   2.307  0.00  0.00    +0.004 A 
ATOM     12  C   UNL     1      -1.364   4.760   3.177  0.00  0.00    +0.047 A 
ENDROOT
BRANCH   1  18
ATOM     13  N   UNL     1      -4.491  -2.489  -1.871  0.00  0.00    -0.244 N 
ATOM     14  C   UNL     1      -3.259  -2.060  -1.450  0.00  0.00    +0.159 A 
ATOM     15  C   UNL     1      -3.432  -0.735  -1.001  0.00  0.00    +0.051 A 
ATOM     16  C   UNL     1      -4.795  -0.412  -1.175  0.00  0.00    +0.145 A 
ATOM     17  N   UNL     1      -5.404  -1.445  -1.684  0.00  0.00    -0.177 NA
ATOM     18  C   UNL     1      -2.314  -0.030  -0.503  0.00  0.00    +0.051 A 
ATOM     19  C   UNL     1      -1.086  -0.687  -0.486  0.00  0.00    +0.037 A 
ATOM     20  C   UNL     1      -1.007  -1.994  -0.942  0.00  0.00    +0.047 A 
ATOM     21  N   UNL     1      -2.063  -2.629  -1.401  0.00  0.00    -0.232 NA
BRANCH  13  23
ATOM     22  C   UNL     1      -5.842  -4.500  -1.540  0.00  0.00    +0.032 C 
ATOM     23  C   UNL     1      -4.798  -3.811  -2.421  0.00  0.00    +0.103 C 
ATOM     24  C   UNL     1      -5.349  -3.658  -3.840  0.00  0.00    +0.032 C 
ENDBRANCH  13  23
BRANCH  20  25
ATOM     25  C   UNL     1       0.323  -2.702  -0.917  0.00  0.00    +0.038 C 
ATOM     26  C   UNL     1       1.578  -1.842  -0.763  0.00  0.00    +0.010 C 
ATOM     27  C   UNL     1       1.257  -2.493  -2.110  0.00  0.00    +0.010 C 
ENDBRANCH  20  25
ENDBRANCH   1  18
BRANCH   5  28
ATOM     28  C   UNL     1      -0.528   0.193   4.270  0.00  0.00    +0.253 C 
ATOM     29  O   UNL     1       0.356   0.629   4.976  0.00  0.00    -0.272 OA
ATOM     30  N   UNL     1      -0.807  -1.126   4.278  0.00  0.00    -0.326 N 
ATOM     31  H   UNL     1      -0.234  -1.806   4.925  0.00  0.00    +0.145 HD
ATOM     32  H   UNL     1      -1.609  -1.522   3.637  0.00  0.00    +0.145 HD
ENDBRANCH   5  28
TORSDOF 4
