REMARK  Name = ZINC64403894
REMARK  7 active torsions:
REMARK  status: ('A' for Active; 'I' for Inactive)
REMARK    1  A    between atoms: C_3  and  C_6
REMARK    2  A    between atoms: C_8  and  C_12
REMARK    3  A    between atoms: N_14  and  C_15
REMARK    4  A    between atoms: C_15  and  C_16
REMARK    5  A    between atoms: C_16  and  O_17
REMARK    6  A    between atoms: O_17  and  C_18
REMARK    7  A    between atoms: C_24  and  C_28
REMARK                            x       y       z     vdW  Elec       q    Type
REMARK                         _______ _______ _______ _____ _____    ______ ____
ROOT
ATOM      1  C   UNL     1       7.206  -5.752  -2.183  0.00  0.00    +0.197 C 
ATOM      2  C   UNL     1       6.162  -6.617  -2.081  0.00  0.00    +0.067 C 
ATOM      3  C   UNL     1       6.379  -7.995  -1.923  0.00  0.00    +0.049 C 
ATOM      4  C   UNL     1       7.666  -8.487  -1.869  0.00  0.00    +0.134 C 
ATOM      5  N   UNL     1       8.148  -9.725  -1.728  0.00  0.00    -0.265 N 
ATOM      6  N   UNL     1       9.431  -9.776  -1.727  0.00  0.00    -0.181 NA
ATOM      7  C   UNL     1       9.950  -8.407  -1.885  0.00  0.00    +0.262 C 
ATOM      8  N   UNL     1       8.740  -7.582  -1.977  0.00  0.00    -0.204 N 
ATOM      9  N   UNL     1       8.501  -6.218  -2.138  0.00  0.00    -0.231 N 
ATOM     10  H   UNL     1       9.244  -5.599  -2.215  0.00  0.00    +0.173 HD
ATOM     11  H   UNL     1       7.584 -10.509  -1.637  0.00  0.00    +0.190 HD
ENDROOT
BRANCH   7  12
ATOM     12  C   UNL     1      10.768  -8.295  -3.146  0.00  0.00    -0.002 A 
ATOM     13  C   UNL     1      10.810  -7.098  -3.837  0.00  0.00    +0.010 A 
ATOM     14  C   UNL     1      11.560  -6.993  -4.993  0.00  0.00    +0.039 A 
ATOM     15  C   UNL     1      12.269  -8.088  -5.460  0.00  0.00    +0.123 A 
ATOM     16  C   UNL     1      12.225  -9.286  -4.767  0.00  0.00    +0.039 A 
ATOM     17  C   UNL     1      11.479  -9.386  -3.608  0.00  0.00    +0.010 A 
ATOM     18  F   UNL     1      13.002  -7.987  -6.590  0.00  0.00    -0.205 F 
ENDBRANCH   7  12
BRANCH   1  19
ATOM     19  O   UNL     1       6.972  -4.429  -2.334  0.00  0.00    -0.477 OA
BRANCH  19  20
ATOM     20  C   UNL     1       8.114  -3.576  -2.441  0.00  0.00    +0.249 C 
BRANCH  20  21
ATOM     21  C   UNL     1       7.654  -2.127  -2.606  0.00  0.00    +0.145 C 
BRANCH  21  24
ATOM     22  C   UNL     1       6.463  -0.443  -1.308  0.00  0.00    +0.243 C 
ATOM     23  O   UNL     1       6.591   0.324  -2.239  0.00  0.00    -0.273 OA
ATOM     24  N   UNL     1       6.959  -1.694  -1.391  0.00  0.00    -0.310 N 
ATOM     25  H   UNL     1       6.856  -2.307  -0.647  0.00  0.00    +0.149 HD
BRANCH  22  28
ATOM     26  C   UNL     1       3.574   0.619  -0.029  0.00  0.00    +0.126 C 
ATOM     27  C   UNL     1       4.318  -0.508  -0.048  0.00  0.00    +0.044 C 
ATOM     28  C   UNL     1       5.748   0.002  -0.058  0.00  0.00    +0.238 C 
ATOM     29  N   UNL     1       5.584   1.465  -0.043  0.00  0.00    -0.170 NA
ATOM     30  N   UNL     1       4.377   1.716  -0.033  0.00  0.00    -0.150 NA
BRANCH  26  33
ATOM     31  C   UNL     1      -0.016   1.343   0.009  0.00  0.00    +0.042 A 
ATOM     32  C   UNL     1       1.325   1.774  -0.001  0.00  0.00    +0.051 A 
ATOM     33  C   UNL     1       2.097   0.654  -0.014  0.00  0.00    +0.154 A 
ATOM     34  O   UNL     1       1.280  -0.417  -0.012  0.00  0.00    -0.461 OA
ATOM     35  C   UNL     1       0.002  -0.004   0.002  0.00  0.00    +0.196 A 
ENDBRANCH  26  33
ENDBRANCH  22  28
ENDBRANCH  21  24
ENDBRANCH  20  21
ENDBRANCH  19  20
ENDBRANCH   1  19
TORSDOF 7
