REMARK  Name = ZINC05061805
REMARK  8 active torsions:
REMARK  status: ('A' for Active; 'I' for Inactive)
REMARK    1  A    between atoms: C_1  and  C_2
REMARK    2  A    between atoms: C_2  and  C_3
REMARK    3  A    between atoms: C_3  and  C_4
REMARK    4  A    between atoms: C_6  and  C_22
REMARK    5  A    between atoms: C_8  and  C_16
REMARK    6  A    between atoms: C_10  and  C_15
REMARK    7  A    between atoms: C_12  and  C_13
REMARK    8  A    between atoms: C_12  and  O_14
REMARK                            x       y       z     vdW  Elec       q    Type
REMARK                         _______ _______ _______ _____ _____    ______ ____
ROOT
ATOM      1  C   UNL     1       1.413   1.692   2.803  0.00  0.00    +0.011 C 
ATOM      2  C   UNL     1      -0.113   1.799   2.839  0.00  0.00    -0.034 C 
ATOM      3  C   UNL     1      -0.141   2.948   0.706  0.00  0.00    -0.034 C 
ATOM      4  C   UNL     1       1.384   2.876   0.606  0.00  0.00    +0.008 C 
ATOM      5  C   UNL     1       1.881   1.631   1.346  0.00  0.00    +0.066 C 
ATOM      6  C   UNL     1       1.313   0.378   0.677  0.00  0.00    +0.042 C 
ATOM      7  C   UNL     1       1.797   2.794  -0.865  0.00  0.00    +0.009 C 
ATOM      8  N   UNL     1      -0.544   3.015   2.123  0.00  0.00    +0.389 N 
ATOM      9  H   UNL     1      -0.110   3.837   2.560  0.00  0.00    -0.084 HD
ATOM     10  H   UNL     1      -1.566   3.097   2.181  0.00  0.00    -0.084 HD
ENDROOT
BRANCH   3  11
ATOM     11  C   UNL     1      -0.745   1.726   0.064  0.00  0.00    -0.061 A 
ATOM     12  C   UNL     1      -0.477   1.437  -1.261  0.00  0.00    +0.002 A 
ATOM     13  C   UNL     1      -1.027   0.314  -1.849  0.00  0.00    +0.000 A 
ATOM     14  C   UNL     1      -1.853  -0.516  -1.114  0.00  0.00    +0.000 A 
ATOM     15  C   UNL     1      -2.125  -0.225   0.209  0.00  0.00    +0.000 A 
ATOM     16  C   UNL     1      -1.571   0.896   0.798  0.00  0.00    +0.002 A 
ENDBRANCH   3  11
BRANCH   2  17
ATOM     17  C   UNL     1      -0.577   1.880   4.270  0.00  0.00    -0.061 A 
ATOM     18  C   UNL     1      -0.503   3.079   4.955  0.00  0.00    +0.002 A 
ATOM     19  C   UNL     1      -0.933   3.154   6.266  0.00  0.00    +0.000 A 
ATOM     20  C   UNL     1      -1.428   2.028   6.897  0.00  0.00    +0.000 A 
ATOM     21  C   UNL     1      -1.497   0.827   6.214  0.00  0.00    +0.000 A 
ATOM     22  C   UNL     1      -1.072   0.753   4.901  0.00  0.00    +0.002 A 
ENDBRANCH   2  17
BRANCH   5  23
ATOM     23  O   UNL     1       3.309   1.589   1.305  0.00  0.00    -0.388 OA
ATOM     24  H   UNL     1       3.675   1.554   0.411  0.00  0.00    +0.210 HD
ENDBRANCH   5  23
BRANCH   1  25
ATOM     25  C   UNL     1       1.854   0.423   3.535  0.00  0.00    +0.005 C 
BRANCH  25  27
ATOM     26  C   UNL     1       3.810  -0.780   4.518  0.00  0.00    +0.004 C 
ATOM     27  C   UNL     1       3.379   0.408   3.656  0.00  0.00    -0.003 C 
ENDBRANCH  25  27
ENDBRANCH   1  25
TORSDOF 5
