REMARK  Name = ZINC09521058
REMARK  11 active torsions:
REMARK  status: ('A' for Active; 'I' for Inactive)
REMARK    1  A    between atoms: C_1  and  C_2
REMARK    2  A    between atoms: C_2  and  S_3
REMARK    3  A    between atoms: S_3  and  C_4
REMARK    4  A    between atoms: C_10  and  C_12
REMARK    5  A    between atoms: C_12  and  S_13
REMARK    6  A    between atoms: S_13  and  C_14
REMARK    7  A    between atoms: N_20  and  C_21
REMARK    8  A    between atoms: C_21  and  C_22
REMARK    9  A    between atoms: C_21  and  C_23
REMARK   10  A    between atoms: C_21  and  C_24
REMARK   11  A    between atoms: C_25  and  O_27
REMARK                            x       y       z     vdW  Elec       q    Type
REMARK                         _______ _______ _______ _____ _____    ______ ____
ROOT
ATOM      1  C   UNL     1       5.316  -2.564   9.293  0.00  0.00    +0.194 A 
ATOM      2  N   UNL     1       6.375  -3.298   9.590  0.00  0.00    -0.202 NA
ATOM      3  C   UNL     1       6.710  -3.522  10.859  0.00  0.00    +0.167 A 
ATOM      4  C   UNL     1       5.910  -2.972  11.881  0.00  0.00    +0.100 A 
ATOM      5  C   UNL     1       6.483  -3.366  13.111  0.00  0.00    +0.149 A 
ATOM      6  N   UNL     1       7.537  -4.089  12.862  0.00  0.00    -0.176 NA
ATOM      7  N   UNL     1       7.712  -4.209  11.477  0.00  0.00    -0.241 N 
ATOM      8  C   UNL     1       4.790  -2.203  11.515  0.00  0.00    +0.227 A 
ATOM      9  N   UNL     1       4.536  -2.029  10.226  0.00  0.00    -0.187 NA
ENDROOT
BRANCH   7  10
ATOM     10  C   UNL     1       8.786  -4.947  10.808  0.00  0.00    +0.058 C 
ATOM     11  C   UNL     1       9.596  -3.988   9.934  0.00  0.00    +0.036 C 
ATOM     12  C   UNL     1       9.703  -5.577  11.859  0.00  0.00    +0.036 C 
ATOM     13  C   UNL     1       8.181  -6.048   9.934  0.00  0.00    +0.036 C 
ENDBRANCH   7  10
BRANCH   8  14
ATOM     14  O   UNL     1       3.990  -1.653  12.458  0.00  0.00    -0.492 OA
ATOM     15  H   UNL     1       3.257  -2.221  12.733  0.00  0.00    +0.294 HD
ENDBRANCH   8  14
BRANCH   1  16
ATOM     16  S   UNL     1       4.920  -2.293   7.598  0.00  0.00    -0.077 S 
BRANCH  16  17
ATOM     17  C   UNL     1       3.435  -1.274   7.781  0.00  0.00    +0.173 C 
BRANCH  17  24
ATOM     18  C   UNL     1       0.099   1.013   2.823  0.00  0.00    +0.160 A 
ATOM     19  N   UNL     1       1.191   0.263   2.792  0.00  0.00    -0.133 NA
ATOM     20  N   UNL     1       1.762  -0.128   3.846  0.00  0.00    -0.125 NA
ATOM     21  C   UNL     1       1.306   0.186   5.048  0.00  0.00    +0.189 A 
ATOM     22  S   UNL     1      -0.118   1.172   4.593  0.00  0.00    -0.024 S 
ATOM     23  N   UNL     1       1.796  -0.150   6.307  0.00  0.00    -0.263 N 
ATOM     24  C   UNL     1       2.904  -0.910   6.418  0.00  0.00    +0.229 C 
ATOM     25  O   UNL     1       3.473  -1.302   5.421  0.00  0.00    -0.275 OA
ATOM     26  H   UNL     1       1.341   0.163   7.105  0.00  0.00    +0.157 HD
BRANCH  18  27
ATOM     27  S   UNL     1      -0.862   1.671   1.500  0.00  0.00    -0.097 S 
BRANCH  27  29
ATOM     28  C   UNL     1      -0.753   1.593  -1.232  0.00  0.00    +0.016 C 
ATOM     29  C   UNL     1      -0.013   1.086   0.008  0.00  0.00    +0.073 C 
ENDBRANCH  27  29
ENDBRANCH  18  27
ENDBRANCH  17  24
ENDBRANCH  16  17
ENDBRANCH   1  16
TORSDOF 7
