REMARK  Name = ZINC05798888
REMARK  8 active torsions:
REMARK  status: ('A' for Active; 'I' for Inactive)
REMARK    1  A    between atoms: C_1  and  C_2
REMARK    2  A    between atoms: C_5  and  C_8
REMARK    3  A    between atoms: C_13  and  C_21
REMARK    4  A    between atoms: C_15  and  C_19
REMARK    5  A    between atoms: C_16  and  N_18
REMARK    6  A    between atoms: C_24  and  N_27
REMARK    7  A    between atoms: N_27  and  C_28
REMARK    8  A    between atoms: N_27  and  C_29
REMARK                            x       y       z     vdW  Elec       q    Type
REMARK                         _______ _______ _______ _____ _____    ______ ____
ROOT
ATOM      1  C   UNL     1       0.113  -4.280  -0.030  0.00  0.00    +0.034 C 
ATOM      2  C   UNL     1       1.358  -4.794   0.696  0.00  0.00    +0.083 C 
ATOM      3  C   UNL     1       1.339  -6.304   0.727  0.00  0.00    +0.115 C 
ATOM      4  C   UNL     1       0.175  -6.977   0.769  0.00  0.00    +0.046 C 
ATOM      5  C   UNL     1       0.160  -8.486   0.809  0.00  0.00    +0.101 C 
ATOM      6  C   UNL     1       1.504  -9.009   1.228  0.00  0.00    +0.098 C 
ATOM      7  C   UNL     1       2.603  -8.218   1.157  0.00  0.00    +0.198 C 
ATOM      8  O   UNL     1       2.519  -6.954   0.711  0.00  0.00    -0.445 OA
ATOM      9  C   UNL     1      -1.061  -6.301   0.771  0.00  0.00    +0.164 C 
ATOM     10  O   UNL     1      -2.091  -6.942   0.828  0.00  0.00    -0.292 OA
ATOM     11  C   UNL     1      -1.130  -4.799   0.701  0.00  0.00    +0.088 C 
ENDROOT
BRANCH   1  16
ATOM     12  C   UNL     1       0.100   1.499  -0.010  0.00  0.00    +0.044 C 
ATOM     13  C   UNL     1       0.103  -0.008  -0.015  0.00  0.00    -0.050 A 
ATOM     14  C   UNL     1       0.104  -0.695  -1.214  0.00  0.00    +0.003 A 
ATOM     15  C   UNL     1       0.107  -2.078  -1.219  0.00  0.00    +0.004 A 
ATOM     16  C   UNL     1       0.110  -2.773  -0.025  0.00  0.00    -0.043 A 
ATOM     17  C   UNL     1       0.111  -2.086   1.175  0.00  0.00    +0.004 A 
ATOM     18  C   UNL     1       0.112  -0.703   1.180  0.00  0.00    +0.003 A 
ENDBRANCH   1  16
BRANCH   5  19
ATOM     19  C   UNL     1      -0.174  -9.018  -0.561  0.00  0.00    -0.034 A 
ATOM     20  C   UNL     1       0.645  -8.723  -1.635  0.00  0.00    +0.006 A 
ATOM     21  C   UNL     1       0.342  -9.209  -2.891  0.00  0.00    +0.023 A 
ATOM     22  C   UNL     1      -0.787  -9.996  -3.076  0.00  0.00    +0.029 A 
ATOM     23  C   UNL     1      -1.609 -10.291  -1.995  0.00  0.00    +0.023 A 
ATOM     24  C   UNL     1      -1.297  -9.806  -0.740  0.00  0.00    +0.006 A 
BRANCH  22  25
ATOM     25  N   UNL     1      -1.097 -10.489  -4.346  0.00  0.00    -0.336 N 
ATOM     26  C   UNL     1      -0.304 -10.075  -5.505  0.00  0.00    +0.129 C 
ATOM     27  C   UNL     1      -2.216 -11.419  -4.517  0.00  0.00    +0.129 C 
ENDBRANCH  22  25
ENDBRANCH   5  19
BRANCH   7  28
ATOM     28  N   UNL     1       3.821  -8.718   1.547  0.00  0.00    -0.328 N 
ATOM     29  H   UNL     1       3.890  -9.630   1.871  0.00  0.00    +0.145 HD
ATOM     30  H   UNL     1       4.612  -8.159   1.500  0.00  0.00    +0.145 HD
ENDBRANCH   7  28
BRANCH   6  31
ATOM     31  C   UNL     1       1.626 -10.353   1.707  0.00  0.00    +0.101 C 
ATOM     32  N   UNL     1       1.723 -11.420   2.086  0.00  0.00    -0.191 NA
ENDBRANCH   6  31
TORSDOF 5
