REMARK  Name = ZINC67286118
REMARK  8 active torsions:
REMARK  status: ('A' for Active; 'I' for Inactive)
REMARK    1  A    between atoms: C_1  and  C_2
REMARK    2  A    between atoms: C_2  and  O_3
REMARK    3  A    between atoms: O_3  and  C_4
REMARK    4  A    between atoms: C_4  and  C_6
REMARK    5  A    between atoms: C_7  and  C_22
REMARK    6  A    between atoms: C_12  and  C_14
REMARK    7  A    between atoms: C_22  and  N_23
REMARK    8  A    between atoms: C_29  and  C_31
REMARK                            x       y       z     vdW  Elec       q    Type
REMARK                         _______ _______ _______ _____ _____    ______ ____
ROOT
ATOM      1  C   UNL     1       1.225  -2.218  -2.491  0.00  0.00    +0.079 C 
ATOM      2  C   UNL     1       1.538  -3.531  -2.544  0.00  0.00    +0.038 C 
ATOM      3  N   UNL     1       2.289  -4.035  -3.567  0.00  0.00    -0.271 N 
ATOM      4  C   UNL     1       2.765  -3.293  -4.574  0.00  0.00    +0.304 C 
ATOM      5  O   UNL     1       3.425  -3.833  -5.441  0.00  0.00    -0.252 OA
ATOM      6  N   UNL     1       2.537  -1.968  -4.659  0.00  0.00    -0.288 N 
ATOM      7  C   UNL     1       1.731  -1.327  -3.607  0.00  0.00    +0.144 C 
ATOM      8  H   UNL     1       2.488  -4.984  -3.563  0.00  0.00    +0.156 HD
ATOM      9  H   UNL     1       2.892  -1.449  -5.398  0.00  0.00    +0.151 HD
ENDROOT
BRANCH   7  10
ATOM     10  C   UNL     1       0.537  -0.677  -4.260  0.00  0.00    -0.020 A 
ATOM     11  C   UNL     1      -0.217  -1.383  -5.178  0.00  0.00    +0.009 A 
ATOM     12  C   UNL     1      -1.311  -0.790  -5.778  0.00  0.00    +0.041 A 
ATOM     13  C   UNL     1      -1.654   0.512  -5.459  0.00  0.00    +0.158 A 
ATOM     14  C   UNL     1      -0.898   1.221  -4.537  0.00  0.00    +0.159 A 
ATOM     15  C   UNL     1       0.195   0.622  -3.935  0.00  0.00    +0.047 A 
ATOM     16  F   UNL     1      -1.230   2.492  -4.224  0.00  0.00    -0.202 F 
ATOM     17  F   UNL     1      -2.724   1.093  -6.045  0.00  0.00    -0.202 F 
ENDBRANCH   7  10
BRANCH   1  18
ATOM     18  C   UNL     1       0.447  -1.694  -1.432  0.00  0.00    +0.339 C 
ATOM     19  O   UNL     1      -0.723  -1.415  -1.617  0.00  0.00    -0.245 OA
BRANCH  18  20
ATOM     20  O   UNL     1       1.002  -1.503  -0.217  0.00  0.00    -0.462 OA
BRANCH  20  22
ATOM     21  C   UNL     1       0.957  -0.826   2.103  0.00  0.00    +0.048 C 
ATOM     22  C   UNL     1       0.158  -0.971   0.806  0.00  0.00    +0.229 C 
ENDBRANCH  20  22
ENDBRANCH  18  20
ENDBRANCH   1  18
BRANCH   2  23
ATOM     23  C   UNL     1       1.051  -4.453  -1.457  0.00  0.00    +0.136 C 
BRANCH  23  24
ATOM     24  N   UNL     1       0.126  -5.440  -2.030  0.00  0.00    -0.294 NA
ATOM     25  C   UNL     1      -1.097  -4.792  -2.522  0.00  0.00    +0.104 C 
ATOM     26  C   UNL     1      -1.951  -5.821  -3.271  0.00  0.00    +0.123 C 
ATOM     27  N   UNL     1      -2.172  -6.976  -2.388  0.00  0.00    -0.293 N 
ATOM     28  C   UNL     1      -1.002  -7.596  -1.747  0.00  0.00    +0.123 C 
ATOM     29  C   UNL     1      -0.185  -6.497  -1.058  0.00  0.00    +0.104 C 
ATOM     30  C   UNL     1      -3.413  -7.455  -2.172  0.00  0.00    +0.282 C 
ATOM     31  O   UNL     1      -4.362  -6.973  -2.762  0.00  0.00    -0.267 OA
BRANCH  30  32
ATOM     32  C   UNL     1      -3.620  -8.556  -1.226  0.00  0.00    +0.189 A 
ATOM     33  C   UNL     1      -4.827  -9.047  -0.818  0.00  0.00    +0.054 A 
ATOM     34  C   UNL     1      -4.556 -10.089   0.082  0.00  0.00    +0.042 A 
ATOM     35  C   UNL     1      -3.212 -10.188   0.182  0.00  0.00    +0.196 A 
ATOM     36  O   UNL     1      -2.652  -9.265  -0.611  0.00  0.00    -0.458 OA
ENDBRANCH  30  32
ENDBRANCH  23  24
ENDBRANCH   2  23
TORSDOF 7
