REMARK  Name = ZINC00787480
REMARK  4 active torsions:
REMARK  status: ('A' for Active; 'I' for Inactive)
REMARK    1  A    between atoms: C_3  and  O_19
REMARK    2  A    between atoms: C_6  and  C_7
REMARK    3  A    between atoms: N_8  and  N_9
REMARK    4  A    between atoms: C_10  and  C_12
REMARK                            x       y       z     vdW  Elec       q    Type
REMARK                         _______ _______ _______ _____ _____    ______ ____
ROOT
ATOM      1  N   UNL     1       4.165  -0.672  -0.042  0.00  0.00    -0.202 N 
ATOM      2  C   UNL     1       3.551   0.528  -0.029  0.00  0.00    +0.282 C 
ATOM      3  O   UNL     1       4.212   1.550  -0.031  0.00  0.00    -0.267 OA
ATOM      4  H   UNL     1       3.638  -1.486  -0.041  0.00  0.00    +0.178 HD
ENDROOT
BRANCH   2   5
ATOM      5  C   UNL     1       2.083   0.603  -0.015  0.00  0.00    +0.135 A 
ATOM      6  C   UNL     1       1.308   1.751  -0.001  0.00  0.00    +0.063 A 
ATOM      7  C   UNL     1      -0.016   1.304   0.009  0.00  0.00    +0.149 A 
ATOM      8  N   UNL     1       0.002  -0.004   0.002  0.00  0.00    -0.181 NA
ATOM      9  N   UNL     1       1.208  -0.447  -0.012  0.00  0.00    -0.272 N 
ATOM     10  H   UNL     1       1.466  -1.413  -0.020  0.00  0.00    +0.189 HD
ATOM     11  I   UNL     1       1.979   3.736   0.002  0.00  0.00    -0.040 I 
ENDBRANCH   2   5
BRANCH   1  13
ATOM     12  C   UNL     1       6.155  -1.899  -0.068  0.00  0.00    +0.138 C 
ATOM     13  N   UNL     1       5.564  -0.743  -0.056  0.00  0.00    -0.187 NA
BRANCH  12  19
ATOM     14  C   UNL     1       8.388  -0.802  -0.090  0.00  0.00    +0.013 A 
ATOM     15  C   UNL     1       9.764  -0.876  -0.098  0.00  0.00    +0.046 A 
ATOM     16  C   UNL     1      10.395  -2.114  -0.110  0.00  0.00    +0.117 A 
ATOM     17  C   UNL     1       9.642  -3.281  -0.109  0.00  0.00    +0.046 A 
ATOM     18  C   UNL     1       8.265  -3.216  -0.095  0.00  0.00    +0.013 A 
ATOM     19  C   UNL     1       7.627  -1.974  -0.083  0.00  0.00    -0.005 A 
BRANCH  16  20
ATOM     20  O   UNL     1      11.751  -2.183  -0.124  0.00  0.00    -0.507 OA
ATOM     21  H   UNL     1      12.135  -2.198  -1.011  0.00  0.00    +0.292 HD
ENDBRANCH  16  20
ENDBRANCH  12  19
ENDBRANCH   1  13
TORSDOF 4
