REMARK  Name = ZINC20632510
REMARK  5 active torsions:
REMARK  status: ('A' for Active; 'I' for Inactive)
REMARK    1  A    between atoms: C_1  and  C_2
REMARK    2  A    between atoms: C_2  and  C_3
REMARK    3  A    between atoms: C_3  and  C_4
REMARK    4  A    between atoms: C_16  and  C_19
REMARK    5  A    between atoms: C_22  and  C_25
REMARK                            x       y       z     vdW  Elec       q    Type
REMARK                         _______ _______ _______ _____ _____    ______ ____
ROOT
ATOM      1  C   UNL     1      -5.665   2.793  -0.245  0.00  0.00    +0.154 A 
ATOM      2  N   UNL     1      -4.845   3.803   0.018  0.00  0.00    -0.194 NA
ATOM      3  C   UNL     1      -3.592   3.367   0.056  0.00  0.00    +0.253 A 
ATOM      4  N   UNL     1      -2.429   3.994   0.290  0.00  0.00    -0.215 NA
ATOM      5  C   UNL     1      -1.286   3.346   0.273  0.00  0.00    +0.058 A 
ATOM      6  C   UNL     1      -1.283   1.955   0.019  0.00  0.00    +0.057 A 
ATOM      7  C   UNL     1      -2.479   1.300  -0.214  0.00  0.00    +0.129 A 
ATOM      8  N   UNL     1      -3.627   2.022  -0.193  0.00  0.00    -0.203 N 
ATOM      9  N   UNL     1      -4.974   1.688  -0.382  0.00  0.00    -0.149 NA
ATOM     10  C   UNL     1      -0.014   1.209   0.009  0.00  0.00    +0.167 C 
ATOM     11  O   UNL     1       0.002  -0.004   0.002  0.00  0.00    -0.292 OA
ATOM     12  C   UNL     1       1.270   2.012   0.001  0.00  0.00    +0.088 C 
ATOM     13  C   UNL     1       1.099   3.163   1.000  0.00  0.00    +0.032 C 
ATOM     14  C   UNL     1      -0.007   4.098   0.518  0.00  0.00    +0.065 C 
ENDROOT
BRANCH  13  15
ATOM     15  C   UNL     1       2.392   3.930   1.110  0.00  0.00    -0.043 A 
ATOM     16  C   UNL     1       2.936   4.531  -0.010  0.00  0.00    +0.004 A 
ATOM     17  C   UNL     1       4.119   5.238   0.091  0.00  0.00    +0.003 A 
ATOM     18  C   UNL     1       4.764   5.335   1.310  0.00  0.00    -0.050 A 
ATOM     19  C   UNL     1       4.224   4.729   2.429  0.00  0.00    +0.003 A 
ATOM     20  C   UNL     1       3.037   4.026   2.328  0.00  0.00    +0.004 A 
ATOM     21  C   UNL     1       6.057   6.102   1.419  0.00  0.00    +0.044 C 
ENDBRANCH  13  15
BRANCH   1  22
ATOM     22  C   UNL     1      -7.164   2.901  -0.367  0.00  0.00    +0.078 C 
BRANCH  22  24
ATOM     23  C   UNL     1      -9.058   3.306  -1.946  0.00  0.00    +0.004 C 
ATOM     24  C   UNL     1      -7.537   3.197  -1.821  0.00  0.00    +0.004 C 
ENDBRANCH  22  24
ENDBRANCH   1  22
TORSDOF 3
