REMARK  Name = ZINC40170759
REMARK  12 active torsions:
REMARK  status: ('A' for Active; 'I' for Inactive)
REMARK    1  A    between atoms: C_1  and  C_2
REMARK    2  A    between atoms: C_2  and  C_3
REMARK    3  A    between atoms: C_3  and  C_5
REMARK    4  A    between atoms: C_3  and  S_18
REMARK    5  A    between atoms: N_7  and  C_8
REMARK    6  A    between atoms: C_9  and  C_15
REMARK    7  A    between atoms: C_10  and  C_14
REMARK    8  A    between atoms: C_11  and  C_13
REMARK    9  A    between atoms: S_18  and  C_19
REMARK   10  A    between atoms: C_25  and  C_34
REMARK   11  A    between atoms: C_27  and  C_33
REMARK   12  A    between atoms: C_30  and  C_32
REMARK                            x       y       z     vdW  Elec       q    Type
REMARK                         _______ _______ _______ _____ _____    ______ ____
ROOT
ATOM      1  C   UNL     1       0.619  -0.377  -1.176  0.00  0.00    +0.140 C 
ENDROOT
BRANCH   1   2
ATOM      2  C   UNL     1       0.375  -1.855  -1.339  0.00  0.00    +0.231 C 
ATOM      3  O   UNL     1       1.242  -2.649  -1.041  0.00  0.00    -0.274 OA
ATOM      4  N   UNL     1      -0.806  -2.294  -1.817  0.00  0.00    -0.278 N 
ATOM      5  H   UNL     1      -1.499  -1.659  -2.056  0.00  0.00    +0.155 HD
BRANCH   4   6
ATOM      6  C   UNL     1      -1.031  -3.654  -1.968  0.00  0.00    +0.084 A 
ATOM      7  C   UNL     1      -2.171  -4.283  -2.445  0.00  0.00    +0.068 A 
ATOM      8  C   UNL     1      -2.140  -5.726  -2.498  0.00  0.00    -0.027 A 
ATOM      9  C   UNL     1      -1.000  -6.304  -2.076  0.00  0.00    -0.008 A 
ATOM     10  S   UNL     1       0.018  -4.917  -1.621  0.00  0.00    -0.078 S 
ATOM     11  C   UNL     1      -0.664  -7.771  -2.011  0.00  0.00    +0.052 C 
ATOM     12  C   UNL     1      -3.311  -6.535  -2.994  0.00  0.00    +0.045 C 
BRANCH   7  13
ATOM     13  C   UNL     1      -3.349  -3.521  -2.872  0.00  0.00    +0.244 C 
ATOM     14  O   UNL     1      -3.453  -3.160  -4.030  0.00  0.00    -0.270 OA
ATOM     15  N   UNL     1      -4.317  -3.221  -1.983  0.00  0.00    -0.325 N 
ATOM     16  H   UNL     1      -4.234  -3.508  -1.061  0.00  0.00    +0.145 HD
ATOM     17  H   UNL     1      -5.096  -2.717  -2.266  0.00  0.00    +0.145 HD
ENDBRANCH   7  13
ENDBRANCH   4   6
ENDBRANCH   1   2
BRANCH   1  19
ATOM     18  C   UNL     1       0.190   1.606   0.282  0.00  0.00    +0.005 C 
ATOM     19  C   UNL     1       0.068   0.085   0.174  0.00  0.00    +0.020 C 
ENDBRANCH   1  19
BRANCH   1  20
ATOM     20  S   UNL     1       2.401  -0.047  -1.246  0.00  0.00    -0.073 S 
BRANCH  20  21
ATOM     21  C   UNL     1       2.830  -0.373  -2.924  0.00  0.00    +0.197 A 
ATOM     22  N   UNL     1       2.005  -0.883  -3.821  0.00  0.00    -0.122 NA
ATOM     23  N   UNL     1       2.565  -0.897  -4.973  0.00  0.00    -0.129 NA
ATOM     24  C   UNL     1       3.765  -0.357  -4.883  0.00  0.00    +0.162 A 
ATOM     25  N   UNL     1       4.032  -0.191  -3.534  0.00  0.00    -0.270 N 
ATOM     26  C   UNL     1       5.331   0.062  -3.132  0.00  0.00    +0.061 A 
ATOM     27  C   UNL     1       5.830  -0.267  -1.881  0.00  0.00    -0.026 A 
ATOM     28  C   UNL     1       7.060   0.215  -1.472  0.00  0.00    +0.008 A 
ATOM     29  C   UNL     1       7.860   0.940  -2.339  0.00  0.00    -0.050 A 
ATOM     30  C   UNL     1       7.464   1.119  -3.646  0.00  0.00    +0.013 A 
ATOM     31  C   UNL     1       6.236   0.610  -4.071  0.00  0.00    +0.002 A 
ATOM     32  C   UNL     1       5.895   0.556  -5.496  0.00  0.00    -0.038 A 
ATOM     33  C   UNL     1       4.702   0.038  -5.863  0.00  0.00    +0.052 A 
ATOM     34  C   UNL     1       6.847   1.064  -6.548  0.00  0.00    +0.044 C 
ATOM     35  C   UNL     1       9.158   1.531  -1.857  0.00  0.00    +0.044 C 
ATOM     36  C   UNL     1       5.107  -1.217  -0.962  0.00  0.00    +0.046 C 
ENDBRANCH  20  21
ENDBRANCH   1  20
TORSDOF 6
