REMARK  Name = ZINC35723652
REMARK  7 active torsions:
REMARK  status: ('A' for Active; 'I' for Inactive)
REMARK    1  A    between atoms: C_1  and  C_2
REMARK    2  A    between atoms: C_2  and  C_3
REMARK    3  A    between atoms: C_3  and  C_4
REMARK    4  A    between atoms: C_8  and  C_24
REMARK    5  A    between atoms: C_10  and  S_13
REMARK    6  A    between atoms: S_13  and  C_14
REMARK    7  A    between atoms: C_24  and  N_25
REMARK                            x       y       z     vdW  Elec       q    Type
REMARK                         _______ _______ _______ _____ _____    ______ ____
ROOT
ATOM      1  C   UNL     1       0.739  -2.027  -1.265  0.00  0.00    -0.010 C 
ATOM      2  C   UNL     1       1.584  -2.532  -0.094  0.00  0.00    +0.004 C 
ATOM      3  C   UNL     1       1.605  -4.062  -0.103  0.00  0.00    +0.003 C 
ATOM      4  C   UNL     1       2.209  -4.557  -1.419  0.00  0.00    -0.015 C 
ATOM      5  C   UNL     1       1.364  -4.052  -2.590  0.00  0.00    +0.056 C 
ATOM      6  C   UNL     1       1.343  -2.522  -2.581  0.00  0.00    +0.018 C 
ENDROOT
BRANCH   1   7
ATOM      7  C   UNL     1       0.718  -0.497  -1.257  0.00  0.00    +0.003 C 
BRANCH   7   9
ATOM      8  C   UNL     1      -0.019   1.526   0.010  0.00  0.00    +0.004 C 
ATOM      9  C   UNL     1       0.002  -0.004   0.002  0.00  0.00    -0.003 C 
ENDBRANCH   7   9
ENDBRANCH   1   7
BRANCH   5  10
ATOM     10  S   UNL     1       2.080  -4.638  -4.150  0.00  0.00    -0.084 S 
BRANCH  10  11
ATOM     11  C   UNL     1       0.928  -4.108  -5.373  0.00  0.00    +0.168 A 
ATOM     12  N   UNL     1       1.049  -4.333  -6.715  0.00  0.00    -0.333 N 
ATOM     13  H   UNL     1       1.772  -4.805  -7.157  0.00  0.00    +0.168 HD
ATOM     14  C   UNL     1      -0.053  -3.761  -7.329  0.00  0.00    +0.067 A 
ATOM     15  C   UNL     1      -0.479  -3.664  -8.645  0.00  0.00    +0.028 A 
ATOM     16  C   UNL     1      -1.658  -3.010  -8.939  0.00  0.00    +0.002 A 
ATOM     17  C   UNL     1      -2.422  -2.449  -7.927  0.00  0.00    +0.002 A 
ATOM     18  C   UNL     1      -2.015  -2.536  -6.614  0.00  0.00    +0.030 A 
ATOM     19  C   UNL     1      -0.823  -3.194  -6.299  0.00  0.00    +0.090 A 
ATOM     20  N   UNL     1      -0.175  -3.444  -5.131  0.00  0.00    -0.222 NA
ENDBRANCH  10  11
ENDBRANCH   5  10
BRANCH   4  21
ATOM     21  C   UNL     1       2.230  -6.087  -1.427  0.00  0.00    -0.082 C 
BRANCH  21  22
ATOM     22  N   UNL     1       3.137  -6.570  -0.377  0.00  0.00    +0.378 N 
ATOM     23  H   UNL     1       4.067  -6.220  -0.549  0.00  0.00    -0.090 HD
ATOM     24  H   UNL     1       2.816  -6.243   0.522  0.00  0.00    -0.090 HD
ATOM     25  H   UNL     1       3.151  -7.579  -0.383  0.00  0.00    -0.090 HD
ENDBRANCH  21  22
ENDBRANCH   4  21
TORSDOF 6
