REMARK  Name = ZINC06047850
REMARK  4 active torsions:
REMARK  status: ('A' for Active; 'I' for Inactive)
REMARK    1  A    between atoms: C_13  and  N_17
REMARK    2  A    between atoms: C_18  and  C_20
REMARK    3  A    between atoms: C_20  and  S_21
REMARK    4  A    between atoms: S_21  and  C_22
REMARK                            x       y       z     vdW  Elec       q    Type
REMARK                         _______ _______ _______ _____ _____    ______ ____
ROOT
ATOM      1  C   UNL     1      -3.693   1.893   0.002  0.00  0.00    +0.001 A 
ATOM      2  C   UNL     1      -3.716   3.275  -0.001  0.00  0.00    +0.001 A 
ATOM      3  C   UNL     1      -2.534   3.996   0.015  0.00  0.00    +0.012 A 
ATOM      4  C   UNL     1      -1.314   3.327   0.015  0.00  0.00    +0.033 A 
ATOM      5  C   UNL     1      -1.291   1.921   0.012  0.00  0.00    +0.033 A 
ATOM      6  C   UNL     1      -2.489   1.212   0.008  0.00  0.00    +0.012 A 
ATOM      7  C   UNL     1       0.000   1.202   0.018  0.00  0.00    +0.195 C 
ATOM      8  O   UNL     1       0.021  -0.013   0.021  0.00  0.00    -0.287 OA
ATOM      9  C   UNL     1       1.266   1.965   0.016  0.00  0.00    +0.035 A 
ATOM     10  C   UNL     1       2.486   1.297   0.016  0.00  0.00    +0.012 A 
ATOM     11  C   UNL     1       3.672   2.015   0.014  0.00  0.00    +0.003 A 
ATOM     12  C   UNL     1       3.656   3.394   0.011  0.00  0.00    +0.024 A 
ATOM     13  C   UNL     1       2.446   4.085   0.011  0.00  0.00    +0.045 A 
ATOM     14  C   UNL     1       1.241   3.372   0.013  0.00  0.00    +0.054 A 
ATOM     15  C   UNL     1      -0.047   4.088   0.013  0.00  0.00    +0.196 C 
ATOM     16  O   UNL     1      -0.067   5.303   0.011  0.00  0.00    -0.287 OA
ENDROOT
BRANCH  13  17
ATOM     17  N   UNL     1       2.434   5.475   0.007  0.00  0.00    -0.284 N 
ATOM     18  C   UNL     1       3.484   6.157  -0.493  0.00  0.00    +0.227 C 
ATOM     19  O   UNL     1       4.393   5.561  -1.031  0.00  0.00    -0.275 OA
ATOM     20  H   UNL     1       1.671   5.955   0.365  0.00  0.00    +0.155 HD
BRANCH  18  21
ATOM     21  C   UNL     1       3.529   7.659  -0.384  0.00  0.00    +0.173 C 
BRANCH  21  22
ATOM     22  S   UNL     1       5.053   8.274  -1.142  0.00  0.00    -0.082 S 
BRANCH  22  23
ATOM     23  C   UNL     1       4.848  10.004  -0.880  0.00  0.00    +0.150 C 
ATOM     24  N   UNL     1       3.813  10.508  -0.289  0.00  0.00    -0.262 NA
ATOM     25  C   UNL     1       3.934  11.971  -0.218  0.00  0.00    +0.163 C 
ATOM     26  C   UNL     1       5.280  12.268  -0.910  0.00  0.00    +0.126 C 
ATOM     27  N   UNL     1       5.768  10.932  -1.289  0.00  0.00    -0.322 N 
ATOM     28  H   UNL     1       6.600  10.741  -1.750  0.00  0.00    +0.148 HD
ENDBRANCH  22  23
ENDBRANCH  21  22
ENDBRANCH  18  21
ENDBRANCH  13  17
TORSDOF 4
