REMARK  Name = ZINC39675365
REMARK  13 active torsions:
REMARK  status: ('A' for Active; 'I' for Inactive)
REMARK    1  A    between atoms: C_1  and  C_2
REMARK    2  A    between atoms: C_3  and  C_12
REMARK    3  A    between atoms: C_7  and  O_8
REMARK    4  A    between atoms: O_8  and  C_9
REMARK    5  A    between atoms: C_9  and  C_11
REMARK    6  A    between atoms: C_16  and  C_25
REMARK    7  A    between atoms: N_27  and  C_28
REMARK    8  A    between atoms: C_28  and  C_30
REMARK    9  A    between atoms: C_28  and  C_31
REMARK   10  A    between atoms: C_31  and  C_32
REMARK   11  A    between atoms: C_32  and  C_33
REMARK   12  A    between atoms: C_36  and  O_39
REMARK   13  A    between atoms: O_39  and  C_40
REMARK                            x       y       z     vdW  Elec       q    Type
REMARK                         _______ _______ _______ _____ _____    ______ ____
ROOT
ATOM      1  C   UNL     1      -0.365   0.005  -2.842  0.00  0.00    +0.247 C 
ATOM      2  O   UNL     1      -0.316   1.211  -2.984  0.00  0.00    -0.270 OA
ATOM      3  N   UNL     1      -0.546  -0.793  -3.913  0.00  0.00    -0.296 N 
ATOM      4  C   UNL     1      -0.757  -2.259  -3.928  0.00  0.00    +0.121 C 
ATOM      5  C   UNL     1      -1.818  -2.490  -5.027  0.00  0.00    +0.100 C 
ATOM      6  C   UNL     1      -1.695  -1.268  -5.953  0.00  0.00    -0.004 C 
ATOM      7  C   UNL     1      -0.586  -0.400  -5.342  0.00  0.00    +0.115 C 
ATOM      8  C   UNL     1      -1.306  -1.710  -7.361  0.00  0.00    -0.010 C 
ATOM      9  C   UNL     1      -1.247  -0.484  -8.277  0.00  0.00    -0.082 C 
ATOM     10  N   UNL     1      -2.556   0.180  -8.294  0.00  0.00    +0.379 N 
ATOM     11  C   UNL     1      -2.880   0.683  -6.954  0.00  0.00    -0.082 C 
ATOM     12  C   UNL     1      -3.009  -0.493  -5.982  0.00  0.00    -0.010 C 
ATOM     13  H   UNL     1      -2.532   0.951  -8.945  0.00  0.00    -0.086 HD
ATOM     14  H   UNL     1      -3.262  -0.479  -8.585  0.00  0.00    -0.086 HD
ENDROOT
BRANCH   1  17
ATOM     15  C   UNL     1      -1.475   1.382  -0.553  0.00  0.00    +0.048 C 
ATOM     16  C   UNL     1      -0.757   0.068  -0.383  0.00  0.00    +0.004 A 
ATOM     17  C   UNL     1      -0.225  -0.587  -1.494  0.00  0.00    +0.043 A 
ATOM     18  C   UNL     1       0.439  -1.803  -1.329  0.00  0.00    +0.013 A 
ATOM     19  C   UNL     1       0.566  -2.353  -0.070  0.00  0.00    +0.004 A 
ATOM     20  C   UNL     1       0.039  -1.703   1.030  0.00  0.00    +0.047 A 
ATOM     21  C   UNL     1      -0.619  -0.490   0.876  0.00  0.00    +0.135 A 
BRANCH  21  22
ATOM     22  O   UNL     1      -1.131   0.148   1.962  0.00  0.00    -0.426 OA
BRANCH  22  23
ATOM     23  C   UNL     1      -0.463   1.208   2.444  0.00  0.00    +0.309 C 
ATOM     24  O   UNL     1       0.607   1.513   1.973  0.00  0.00    -0.251 OA
ATOM     25  C   UNL     1      -1.049   2.018   3.572  0.00  0.00    +0.136 C 
ENDBRANCH  22  23
ENDBRANCH  21  22
ENDBRANCH   1  17
BRANCH   5  26
ATOM     26  C   UNL     1      -3.196  -2.555  -4.421  0.00  0.00    +0.218 C 
ATOM     27  O   UNL     1      -3.470  -1.867  -3.461  0.00  0.00    -0.275 OA
ATOM     28  N   UNL     1      -4.125  -3.379  -4.947  0.00  0.00    -0.312 N 
ATOM     29  H   UNL     1      -3.906  -3.929  -5.715  0.00  0.00    +0.149 HD
BRANCH  28  30
ATOM     30  C   UNL     1      -5.464  -3.443  -4.358  0.00  0.00    +0.070 C 
ATOM     31  C   UNL     1      -5.462  -4.431  -3.190  0.00  0.00    +0.028 C 
BRANCH  30  32
ATOM     32  C   UNL     1      -6.465  -3.908  -5.417  0.00  0.00    +0.026 C 
BRANCH  32  33
ATOM     33  C   UNL     1      -6.560  -2.858  -6.526  0.00  0.00    +0.037 C 
BRANCH  33  34
ATOM     34  C   UNL     1      -7.546  -3.317  -7.569  0.00  0.00    -0.047 A 
ATOM     35  C   UNL     1      -7.115  -4.080  -8.639  0.00  0.00    +0.007 A 
ATOM     36  C   UNL     1      -8.017  -4.501  -9.597  0.00  0.00    +0.046 A 
ATOM     37  C   UNL     1      -9.356  -4.159  -9.485  0.00  0.00    +0.120 A 
ATOM     38  C   UNL     1      -9.787  -3.393  -8.410  0.00  0.00    +0.046 A 
ATOM     39  C   UNL     1      -8.882  -2.979  -7.452  0.00  0.00    +0.007 A 
BRANCH  37  40
ATOM     40  O   UNL     1     -10.245  -4.571 -10.426  0.00  0.00    -0.495 OA
ATOM     41  C   UNL     1     -11.608  -4.181 -10.246  0.00  0.00    +0.277 C 
ENDBRANCH  37  40
ENDBRANCH  33  34
ENDBRANCH  32  33
ENDBRANCH  30  32
ENDBRANCH  28  30
ENDBRANCH   5  26
TORSDOF 9
