REMARK  Name = ZINC67590762
REMARK  6 active torsions:
REMARK  status: ('A' for Active; 'I' for Inactive)
REMARK    1  A    between atoms: C_1  and  C_2
REMARK    2  A    between atoms: C_4  and  C_29
REMARK    3  A    between atoms: C_9  and  C_10
REMARK    4  A    between atoms: C_10  and  N_11
REMARK    5  A    between atoms: C_16  and  C_28
REMARK    6  A    between atoms: C_19  and  C_22
REMARK                            x       y       z     vdW  Elec       q    Type
REMARK                         _______ _______ _______ _____ _____    ______ ____
ROOT
ATOM      1  N   UNL     1      -0.571   1.274   4.879  0.00  0.00    -0.295 N 
ATOM      2  C   UNL     1      -1.592   0.762   4.163  0.00  0.00    +0.303 C 
ATOM      3  O   UNL     1      -1.385   0.287   3.063  0.00  0.00    -0.253 OA
ATOM      4  N   UNL     1      -2.841   0.775   4.668  0.00  0.00    -0.280 N 
ATOM      5  C   UNL     1      -3.951   0.116   3.961  0.00  0.00    +0.140 C 
ATOM      6  C   UNL     1      -5.110   1.111   3.845  0.00  0.00    +0.133 C 
ATOM      7  O   UNL     1      -5.408   1.640   5.140  0.00  0.00    -0.366 OA
ATOM      8  C   UNL     1      -4.336   2.380   5.730  0.00  0.00    +0.166 C 
ATOM      9  C   UNL     1      -3.136   1.444   5.945  0.00  0.00    +0.145 C 
ATOM     10  C   UNL     1      -6.343   0.397   3.288  0.00  0.00    +0.039 C 
ATOM     11  H   UNL     1      -0.745   1.718   5.724  0.00  0.00    +0.151 HD
ENDROOT
BRANCH   8  12
ATOM     12  C   UNL     1      -4.782   2.939   7.057  0.00  0.00    -0.017 A 
ATOM     13  C   UNL     1      -5.560   2.172   7.904  0.00  0.00    +0.006 A 
ATOM     14  C   UNL     1      -5.968   2.684   9.121  0.00  0.00    +0.000 A 
ATOM     15  C   UNL     1      -5.599   3.964   9.491  0.00  0.00    +0.000 A 
ATOM     16  C   UNL     1      -4.820   4.731   8.644  0.00  0.00    +0.000 A 
ATOM     17  C   UNL     1      -4.408   4.216   7.429  0.00  0.00    +0.006 A 
ENDBRANCH   8  12
BRANCH   1  18
ATOM     18  C   UNL     1       0.802   1.163   4.380  0.00  0.00    +0.146 C 
BRANCH  18  27
ATOM     19  C   UNL     1       2.140  -0.425   6.386  0.00  0.00    +0.044 C 
ATOM     20  C   UNL     1       2.378   1.061   6.307  0.00  0.00    -0.039 A 
ATOM     21  C   UNL     1       3.256   1.687   7.203  0.00  0.00    +0.024 A 
ATOM     22  C   UNL     1       3.465   3.022   7.124  0.00  0.00    +0.016 A 
ATOM     23  N   UNL     1       2.831   3.767   6.183  0.00  0.00    -0.326 N 
ATOM     24  H   UNL     1       2.992   4.723   6.140  0.00  0.00    +0.169 HD
ATOM     25  C   UNL     1       1.982   3.196   5.308  0.00  0.00    +0.254 A 
ATOM     26  O   UNL     1       1.420   3.879   4.467  0.00  0.00    -0.268 OA
ATOM     27  C   UNL     1       1.747   1.811   5.359  0.00  0.00    +0.037 A 
ATOM     28  C   UNL     1       4.410   3.687   8.091  0.00  0.00    +0.063 C 
ENDBRANCH  18  27
ENDBRANCH   1  18
TORSDOF 3
