REMARK  Name = ZINC11315486
REMARK  7 active torsions:
REMARK  status: ('A' for Active; 'I' for Inactive)
REMARK    1  A    between atoms: C_1  and  C_2
REMARK    2  A    between atoms: C_2  and  C_4
REMARK    3  A    between atoms: C_2  and  N_14
REMARK    4  A    between atoms: C_15  and  C_17
REMARK    5  A    between atoms: C_17  and  N_18
REMARK    6  A    between atoms: C_21  and  C_25
REMARK    7  A    between atoms: C_21  and  C_26
REMARK                            x       y       z     vdW  Elec       q    Type
REMARK                         _______ _______ _______ _____ _____    ______ ____
ROOT
ATOM      1  N   UNL     1       2.725  11.011   2.868  0.00  0.00    -0.215 N 
ATOM      2  C   UNL     1       3.061  12.158   2.244  0.00  0.00    +0.251 C 
ATOM      3  O   UNL     1       3.690  12.274   1.214  0.00  0.00    -0.272 OA
ATOM      4  C   UNL     1       2.486  13.272   3.095  0.00  0.00    +0.135 C 
ATOM      5  N   UNL     1       1.839  12.557   4.209  0.00  0.00    -0.281 N 
ATOM      6  C   UNL     1       2.032  11.244   3.988  0.00  0.00    +0.310 C 
ATOM      7  O   UNL     1       1.623  10.368   4.724  0.00  0.00    -0.252 OA
ATOM      8  C   UNL     1       1.457  14.083   2.306  0.00  0.00    +0.047 C 
ATOM      9  H   UNL     1       1.366  12.955   4.957  0.00  0.00    +0.152 HD
ENDROOT
BRANCH   4  10
ATOM     10  C   UNL     1       3.587  14.165   3.607  0.00  0.00    -0.012 A 
ATOM     11  C   UNL     1       4.699  14.407   2.823  0.00  0.00    +0.010 A 
ATOM     12  C   UNL     1       5.711  15.225   3.288  0.00  0.00    +0.050 A 
ATOM     13  C   UNL     1       5.614  15.805   4.545  0.00  0.00    +0.162 A 
ATOM     14  C   UNL     1       4.495  15.562   5.332  0.00  0.00    +0.162 A 
ATOM     15  C   UNL     1       3.481  14.744   4.857  0.00  0.00    +0.055 A 
ATOM     16  O   UNL     1       4.377  16.124   6.566  0.00  0.00    -0.485 OA
ATOM     17  C   UNL     1       5.576  16.638   7.157  0.00  0.00    +0.270 C 
ATOM     18  C   UNL     1       6.318  17.462   6.097  0.00  0.00    +0.270 C 
ATOM     19  O   UNL     1       6.620  16.604   4.992  0.00  0.00    -0.485 OA
ENDBRANCH   4  10
BRANCH   1  20
ATOM     20  C   UNL     1       3.082   9.675   2.383  0.00  0.00    +0.213 C 
BRANCH  20  22
ATOM     21  N   UNL     1       2.103   7.945   0.910  0.00  0.00    -0.307 N 
ATOM     22  C   UNL     1       1.992   9.163   1.477  0.00  0.00    +0.231 C 
ATOM     23  O   UNL     1       1.014   9.846   1.258  0.00  0.00    -0.274 OA
ATOM     24  H   UNL     1       2.885   7.399   1.085  0.00  0.00    +0.149 HD
BRANCH  21  26
ATOM     25  C   UNL     1       1.274   7.967  -1.390  0.00  0.00    +0.033 C 
ATOM     26  C   UNL     1       1.044   7.447   0.030  0.00  0.00    +0.100 C 
BRANCH  26  27
ATOM     27  C   UNL     1       1.064   5.940   0.022  0.00  0.00    -0.027 A 
ATOM     28  C   UNL     1       2.286   5.270   0.008  0.00  0.00    +0.006 A 
ATOM     29  C   UNL     1       2.340   3.910  -0.000  0.00  0.00    +0.009 A 
ATOM     30  C   UNL     1       1.147   3.167   0.008  0.00  0.00    -0.018 A 
ATOM     31  C   UNL     1       1.163   1.762   0.000  0.00  0.00    +0.008 A 
ATOM     32  C   UNL     1      -0.013   1.076   0.008  0.00  0.00    +0.001 A 
ATOM     33  C   UNL     1      -1.235   1.746   0.017  0.00  0.00    +0.001 A 
ATOM     34  C   UNL     1      -1.288   3.106   0.030  0.00  0.00    +0.008 A 
ATOM     35  C   UNL     1      -0.096   3.849   0.023  0.00  0.00    -0.018 A 
ATOM     36  C   UNL     1      -0.111   5.254   0.030  0.00  0.00    +0.014 A 
ENDBRANCH  26  27
ENDBRANCH  21  26
ENDBRANCH  20  22
ENDBRANCH   1  20
TORSDOF 5
