REMARK  Name = ZINC31808045
REMARK  5 active torsions:
REMARK  status: ('A' for Active; 'I' for Inactive)
REMARK    1  A    between atoms: C_1  and  C_2
REMARK    2  A    between atoms: C_18  and  O_31
REMARK    3  A    between atoms: C_21  and  C_23
REMARK    4  A    between atoms: C_26  and  S_29
REMARK    5  A    between atoms: S_29  and  C_30
REMARK                            x       y       z     vdW  Elec       q    Type
REMARK                         _______ _______ _______ _____ _____    ______ ____
ROOT
ATOM      1  C   UNL     1      -0.018   1.503   0.010  0.00  0.00    +0.068 C 
ATOM      2  C   UNL     1       0.002  -0.004   0.002  0.00  0.00    +0.067 A 
ATOM      3  C   UNL     1       0.008  -0.815  -1.148  0.00  0.00    +0.037 A 
ATOM      4  C   UNL     1       0.032  -2.120  -0.738  0.00  0.00    +0.166 A 
ATOM      5  N   UNL     1       0.033  -2.099   0.646  0.00  0.00    -0.194 N 
ATOM      6  N   UNL     1       0.023  -0.766   1.059  0.00  0.00    -0.168 NA
ATOM      7  C   UNL     1       0.046  -3.213   1.481  0.00  0.00    +0.187 A 
ATOM      8  C   UNL     1       0.040  -3.064   2.876  0.00  0.00    +0.152 A 
ATOM      9  C   UNL     1       0.053  -4.227   3.668  0.00  0.00    +0.163 A 
ATOM     10  N   UNL     1       0.044  -3.797   4.971  0.00  0.00    -0.329 N 
ATOM     11  H   UNL     1       0.049  -4.360   5.761  0.00  0.00    +0.168 HD
ATOM     12  C   UNL     1       0.025  -2.435   4.951  0.00  0.00    +0.198 A 
ATOM     13  N   UNL     1       0.023  -2.007   3.722  0.00  0.00    -0.231 NA
ATOM     14  N   UNL     1       0.071  -5.413   3.071  0.00  0.00    -0.216 NA
ATOM     15  C   UNL     1       0.076  -5.503   1.758  0.00  0.00    +0.226 A 
ATOM     16  N   UNL     1       0.059  -4.441   0.975  0.00  0.00    -0.214 NA
ATOM     17  N   UNL     1       0.061  -3.276  -1.421  0.00  0.00    -0.197 NA
ATOM     18  C   UNL     1       0.072  -3.620  -2.626  0.00  0.00    +0.199 C 
ATOM     19  C   UNL     1      -0.004  -2.794  -3.848  0.00  0.00    +0.165 C 
ATOM     20  S   UNL     1       0.900  -1.246  -3.713  0.00  0.00    -0.138 S 
ATOM     21  C   UNL     1      -0.015  -0.245  -2.535  0.00  0.00    +0.112 C 
ENDROOT
BRANCH  21  22
ATOM     22  C   UNL     1       0.584   1.137  -2.502  0.00  0.00    -0.030 A 
ATOM     23  C   UNL     1       1.891   1.313  -2.083  0.00  0.00    +0.006 A 
ATOM     24  C   UNL     1       2.443   2.578  -2.052  0.00  0.00    +0.015 A 
ATOM     25  C   UNL     1       1.684   3.676  -2.442  0.00  0.00    +0.008 A 
ATOM     26  C   UNL     1       0.372   3.495  -2.862  0.00  0.00    +0.015 A 
ATOM     27  C   UNL     1      -0.172   2.226  -2.896  0.00  0.00    +0.006 A 
BRANCH  25  28
ATOM     28  S   UNL     1       2.385   5.292  -2.403  0.00  0.00    -0.129 S 
ATOM     29  C   UNL     1       1.044   6.365  -2.986  0.00  0.00    +0.090 C 
ENDBRANCH  25  28
ENDBRANCH  21  22
BRANCH  18  30
ATOM     30  O   UNL     1       0.168  -4.949  -2.839  0.00  0.00    -0.495 OA
ATOM     31  H   UNL     1       0.218  -5.474  -2.029  0.00  0.00    +0.293 HD
ENDBRANCH  18  30
TORSDOF 3
