REMARK  Name = ZINC23367757
REMARK  12 active torsions:
REMARK  status: ('A' for Active; 'I' for Inactive)
REMARK    1  A    between atoms: C_1  and  S_2
REMARK    2  A    between atoms: S_2  and  C_3
REMARK    3  A    between atoms: C_3  and  C_4
REMARK    4  A    between atoms: C_4  and  N_5
REMARK    5  A    between atoms: N_5  and  C_6
REMARK    6  A    between atoms: C_6  and  C_7
REMARK    7  A    between atoms: C_10  and  O_13
REMARK    8  A    between atoms: O_13  and  C_14
REMARK    9  A    between atoms: C_14  and  C_15
REMARK   10  A    between atoms: C_15  and  C_17
REMARK   11  A    between atoms: C_15  and  O_28
REMARK   12  A    between atoms: C_17  and  N_18
REMARK                            x       y       z     vdW  Elec       q    Type
REMARK                         _______ _______ _______ _____ _____    ______ ____
ROOT
ATOM      1  C   UNL     1      -1.152   3.519   0.378  0.00  0.00    +0.258 C 
ENDROOT
BRANCH   1   2
ATOM      2  O   UNL     1      -1.214   2.114   0.627  0.00  0.00    -0.489 OA
BRANCH   2   6
ATOM      3  C   UNL     1       2.375   0.098   0.895  0.00  0.00    -0.064 A 
ATOM      4  C   UNL     1       1.184  -0.589   1.047  0.00  0.00    +0.005 A 
ATOM      5  C   UNL     1      -0.019   0.084   0.960  0.00  0.00    +0.046 A 
ATOM      6  C   UNL     1      -0.032   1.450   0.719  0.00  0.00    +0.121 A 
ATOM      7  C   UNL     1       1.164   2.137   0.567  0.00  0.00    +0.046 A 
ATOM      8  C   UNL     1       2.364   1.459   0.655  0.00  0.00    +0.005 A 
BRANCH   3   9
ATOM      9  C   UNL     1       3.686  -0.639   0.991  0.00  0.00    -0.047 C 
BRANCH   9  10
ATOM     10  N   UNL     1       4.076  -1.120  -0.342  0.00  0.00    +0.382 N 
ATOM     11  H   UNL     1       4.175  -0.254  -1.014  0.00  0.00    -0.085 HD
ATOM     12  H   UNL     1       3.290  -1.790  -0.719  0.00  0.00    -0.085 HD
BRANCH  10  13
ATOM     13  C   UNL     1       5.353  -1.844  -0.286  0.00  0.00    -0.071 C 
BRANCH  13  14
ATOM     14  C   UNL     1       5.726  -2.328  -1.689  0.00  0.00    +0.050 C 
BRANCH  14  16
ATOM     15  C   UNL     1       7.598  -3.723  -3.340  0.00  0.00    +0.084 C 
ATOM     16  S   UNL     1       7.302  -3.223  -1.621  0.00  0.00    -0.166 S 
ENDBRANCH  14  16
ENDBRANCH  13  14
ENDBRANCH  10  13
ENDBRANCH   9  10
ENDBRANCH   3   9
ENDBRANCH   2   6
ENDBRANCH   1   2
BRANCH   1  17
ATOM     17  C   UNL     1      -2.570   4.089   0.308  0.00  0.00    +0.135 C 
BRANCH  17  18
ATOM     18  O   UNL     1      -3.200   3.958   1.585  0.00  0.00    -0.390 OA
ATOM     19  H   UNL     1      -4.230   4.315   1.729  0.00  0.00    +0.210 HD
ENDBRANCH  17  18
BRANCH  17  20
ATOM     20  C   UNL     1      -2.508   5.567  -0.082  0.00  0.00    -0.043 C 
BRANCH  20  21
ATOM     21  N   UNL     1      -3.872   6.102  -0.193  0.00  0.00    +0.384 N 
ATOM     22  C   UNL     1      -4.538   5.600  -1.405  0.00  0.00    -0.074 C 
ATOM     23  C   UNL     1      -6.037   5.877  -1.285  0.00  0.00    +0.017 C 
ATOM     24  C   UNL     1      -6.265   7.321  -0.916  0.00  0.00    -0.048 A 
ATOM     25  C   UNL     1      -7.529   7.859  -1.102  0.00  0.00    +0.004 A 
ATOM     26  C   UNL     1      -7.782   9.175  -0.773  0.00  0.00    +0.000 A 
ATOM     27  C   UNL     1      -6.769   9.962  -0.256  0.00  0.00    +0.000 A 
ATOM     28  C   UNL     1      -5.510   9.427  -0.072  0.00  0.00    +0.002 A 
ATOM     29  C   UNL     1      -5.254   8.105  -0.403  0.00  0.00    -0.061 A 
ATOM     30  C   UNL     1      -3.863   7.568  -0.188  0.00  0.00    -0.043 C 
ATOM     31  H   UNL     1      -4.437   5.758   0.686  0.00  0.00    -0.081 HD
ENDBRANCH  20  21
ENDBRANCH  17  20
ENDBRANCH   1  17
TORSDOF 11
