REMARK  Name = ZINC15958023
REMARK  6 active torsions:
REMARK  status: ('A' for Active; 'I' for Inactive)
REMARK    1  A    between atoms: C_1  and  C_2
REMARK    2  A    between atoms: C_2  and  O_4
REMARK    3  A    between atoms: O_4  and  C_5
REMARK    4  A    between atoms: C_8  and  N_11
REMARK    5  A    between atoms: C_16  and  C_33
REMARK    6  A    between atoms: C_33  and  C_34
REMARK                            x       y       z     vdW  Elec       q    Type
REMARK                         _______ _______ _______ _____ _____    ______ ____
ROOT
ATOM      1  N   UNL     1       0.360  -6.168  -0.684  0.00  0.00    -0.210 N 
ATOM      2  C   UNL     1       0.255  -6.800   0.490  0.00  0.00    +0.232 C 
ATOM      3  O   UNL     1       0.077  -6.262   1.562  0.00  0.00    -0.274 OA
ATOM      4  C   UNL     1       0.392  -8.289   0.273  0.00  0.00    +0.108 C 
ATOM      5  C   UNL     1       1.704  -8.782   0.919  0.00  0.00    +0.072 C 
ATOM      6  N   UNL     1       2.743  -8.582  -0.125  0.00  0.00    -0.295 NA
ATOM      7  C   UNL     1       2.064  -8.943  -1.384  0.00  0.00    +0.136 C 
ATOM      8  C   UNL     1       0.615  -8.409  -1.261  0.00  0.00    +0.123 C 
ATOM      9  C   UNL     1       0.554  -6.974  -1.734  0.00  0.00    +0.233 C 
ATOM     10  O   UNL     1       0.666  -6.611  -2.885  0.00  0.00    -0.274 OA
ATOM     11  C   UNL     1       2.081 -10.428  -1.614  0.00  0.00    +0.003 A 
ATOM     12  C   UNL     1       1.606 -11.504  -0.898  0.00  0.00    +0.008 A 
ATOM     13  C   UNL     1       1.778 -12.788  -1.383  0.00  0.00    +0.000 A 
ATOM     14  C   UNL     1       2.429 -12.988  -2.587  0.00  0.00    +0.002 A 
ATOM     15  C   UNL     1       2.905 -11.913  -3.308  0.00  0.00    +0.023 A 
ATOM     16  C   UNL     1       2.737 -10.617  -2.827  0.00  0.00    +0.039 A 
ATOM     17  N   UNL     1       3.125  -9.387  -3.363  0.00  0.00    -0.283 N 
ATOM     18  C   UNL     1       2.767  -8.354  -2.576  0.00  0.00    +0.243 C 
ATOM     19  O   UNL     1       2.973  -7.177  -2.787  0.00  0.00    -0.273 OA
ATOM     20  H   UNL     1       3.056  -7.624  -0.145  0.00  0.00    +0.124 HD
ATOM     21  H   UNL     1       3.597  -9.288  -4.205  0.00  0.00    +0.155 HD
ENDROOT
BRANCH   1  25
ATOM     22  C   UNL     1       0.086  -2.021  -1.045  0.00  0.00    +0.132 A 
ATOM     23  C   UNL     1      -0.905  -2.830  -1.580  0.00  0.00    +0.048 A 
ATOM     24  C   UNL     1      -0.815  -4.203  -1.461  0.00  0.00    +0.027 A 
ATOM     25  C   UNL     1       0.268  -4.773  -0.806  0.00  0.00    +0.044 A 
ATOM     26  C   UNL     1       1.261  -3.962  -0.272  0.00  0.00    +0.027 A 
ATOM     27  C   UNL     1       1.172  -2.590  -0.396  0.00  0.00    +0.048 A 
BRANCH  22  28
ATOM     28  O   UNL     1      -0.003  -0.669  -1.163  0.00  0.00    -0.426 OA
BRANCH  28  30
ATOM     29  C   UNL     1      -0.907   1.486  -0.364  0.00  0.00    +0.136 C 
ATOM     30  C   UNL     1      -0.853  -0.020  -0.351  0.00  0.00    +0.309 C 
ATOM     31  O   UNL     1      -1.575  -0.644   0.391  0.00  0.00    -0.251 OA
ENDBRANCH  28  30
ENDBRANCH  22  28
ENDBRANCH   1  25
BRANCH   5  32
ATOM     32  C   UNL     1       2.029  -7.950   2.162  0.00  0.00    +0.054 C 
BRANCH  32  33
ATOM     33  C   UNL     1       3.243  -8.524   2.846  0.00  0.00    -0.046 A 
ATOM     34  C   UNL     1       3.095  -9.499   3.815  0.00  0.00    +0.004 A 
ATOM     35  C   UNL     1       4.208 -10.025   4.442  0.00  0.00    +0.000 A 
ATOM     36  C   UNL     1       5.470  -9.576   4.101  0.00  0.00    +0.000 A 
ATOM     37  C   UNL     1       5.619  -8.601   3.132  0.00  0.00    +0.000 A 
ATOM     38  C   UNL     1       4.505  -8.079   2.502  0.00  0.00    +0.004 A 
ENDBRANCH  32  33
ENDBRANCH   5  32
TORSDOF 5
