REMARK  Name = ZINC32971933
REMARK  20 active torsions:
REMARK  status: ('A' for Active; 'I' for Inactive)
REMARK    1  A    between atoms: C_1  and  C_2
REMARK    2  A    between atoms: C_4  and  O_11
REMARK    3  A    between atoms: C_7  and  C_8
REMARK    4  A    between atoms: C_8  and  C_9
REMARK    5  A    between atoms: C_8  and  C_10
REMARK    6  A    between atoms: O_11  and  C_12
REMARK    7  A    between atoms: C_12  and  C_13
REMARK    8  A    between atoms: N_15  and  C_16
REMARK    9  A    between atoms: N_15  and  C_17
REMARK   10  A    between atoms: C_17  and  C_18
REMARK   11  A    between atoms: N_20  and  C_21
REMARK   12  A    between atoms: N_20  and  C_25
REMARK   13  A    between atoms: C_21  and  C_22
REMARK   14  A    between atoms: C_22  and  C_23
REMARK   15  A    between atoms: C_22  and  C_24
REMARK   16  A    between atoms: C_26  and  N_38
REMARK   17  A    between atoms: N_27  and  C_34
REMARK   18  A    between atoms: C_34  and  C_35
REMARK   19  A    between atoms: C_35  and  C_36
REMARK   20  A    between atoms: C_35  and  C_37
REMARK                            x       y       z     vdW  Elec       q    Type
REMARK                         _______ _______ _______ _____ _____    ______ ____
ROOT
ATOM      1  C   UNL     1      -3.498  -2.247  -1.200  0.00  0.00    +0.237 C 
ATOM      2  O   UNL     1      -2.733  -1.563  -1.847  0.00  0.00    -0.274 OA
ATOM      3  N   UNL     1      -4.653  -2.674  -1.752  0.00  0.00    -0.263 N 
ENDROOT
BRANCH   3   4
ATOM      4  C   UNL     1      -4.923  -2.415  -3.112  0.00  0.00    +0.140 A 
ATOM      5  C   UNL     1      -6.009  -1.647  -3.479  0.00  0.00    +0.127 A 
ATOM      6  N   UNL     1      -6.245  -1.412  -4.814  0.00  0.00    -0.280 N 
ATOM      7  C   UNL     1      -5.427  -1.925  -5.750  0.00  0.00    +0.331 A 
ATOM      8  O   UNL     1      -5.654  -1.706  -6.925  0.00  0.00    -0.246 OA
ATOM      9  N   UNL     1      -4.364  -2.676  -5.412  0.00  0.00    -0.273 N 
ATOM     10  H   UNL     1      -3.711  -3.089  -6.195  0.00  0.00    +0.173 HD
ATOM     11  C   UNL     1      -4.085  -2.932  -4.119  0.00  0.00    +0.277 A 
ATOM     12  O   UNL     1      -3.116  -3.610  -3.823  0.00  0.00    -0.266 OA
BRANCH   5  13
ATOM     13  N   UNL     1      -6.845  -1.123  -2.522  0.00  0.00    -0.343 N 
ATOM     14  H   UNL     1      -7.708  -0.511  -2.822  0.00  0.00    +0.144 HD
ATOM     15  H   UNL     1      -6.650  -1.315  -1.457  0.00  0.00    +0.144 HD
ENDBRANCH   5  13
BRANCH   6  16
ATOM     16  C   UNL     1      -7.394  -0.598  -5.217  0.00  0.00    +0.131 C 
BRANCH  16  17
ATOM     17  C   UNL     1      -6.976   0.872  -5.294  0.00  0.00    +0.003 C 
ATOM     18  C   UNL     1      -8.139   1.706  -5.834  0.00  0.00    +0.009 C 
ATOM     19  C   UNL     1      -6.599   1.369  -3.896  0.00  0.00    +0.009 C 
ENDBRANCH  16  17
ENDBRANCH   6  16
ENDBRANCH   3   4
BRANCH   1  20
ATOM     20  C   UNL     1      -3.158  -2.621   0.220  0.00  0.00    +0.203 C 
BRANCH  20  23
ATOM     21  C   UNL     1      -1.651  -0.904   1.068  0.00  0.00    +0.253 C 
ATOM     22  O   UNL     1      -2.616  -0.198   1.270  0.00  0.00    -0.272 OA
ATOM     23  N   UNL     1      -1.815  -2.135   0.544  0.00  0.00    -0.293 N 
ATOM     24  C   UNL     1      -0.649  -2.988   0.300  0.00  0.00    +0.132 C 
BRANCH  21  25
ATOM     25  C   UNL     1      -0.269  -0.405   1.402  0.00  0.00    +0.324 C 
BRANCH  25  26
ATOM     26  O   UNL     1      -0.357   0.916   1.939  0.00  0.00    -0.483 OA
BRANCH  26  30
ATOM     27  C   UNL     1       1.973   4.801   3.757  0.00  0.00    +0.044 C 
ATOM     28  C   UNL     1       1.985   3.407   3.183  0.00  0.00    -0.044 A 
ATOM     29  C   UNL     1       0.798   2.799   2.823  0.00  0.00    +0.049 A 
ATOM     30  C   UNL     1       0.809   1.517   2.294  0.00  0.00    +0.121 A 
ATOM     31  C   UNL     1       2.013   0.845   2.135  0.00  0.00    +0.046 A 
ATOM     32  C   UNL     1       3.198   1.460   2.491  0.00  0.00    +0.008 A 
ATOM     33  C   UNL     1       3.183   2.739   3.018  0.00  0.00    -0.042 A 
BRANCH  33  34
ATOM     34  C   UNL     1       4.477   3.404   3.412  0.00  0.00    +0.013 C 
ATOM     35  C   UNL     1       5.237   2.503   4.387  0.00  0.00    +0.012 C 
ATOM     36  C   UNL     1       5.330   3.640   2.164  0.00  0.00    +0.012 C 
ENDBRANCH  33  34
ENDBRANCH  26  30
ENDBRANCH  25  26
ENDBRANCH  21  25
ENDBRANCH  20  23
ENDBRANCH   1  20
BRANCH   3  37
ATOM     37  C   UNL     1      -5.628  -3.405  -0.938  0.00  0.00    +0.117 C 
BRANCH  37  38
ATOM     38  C   UNL     1      -5.253  -4.889  -0.906  0.00  0.00    +0.001 C 
ATOM     39  C   UNL     1      -6.174  -5.625   0.069  0.00  0.00    +0.009 C 
ATOM     40  C   UNL     1      -5.410  -5.485  -2.306  0.00  0.00    +0.009 C 
ENDBRANCH  37  38
ENDBRANCH   3  37
TORSDOF 12
