REMARK  Name = ZINC20109420
REMARK  14 active torsions:
REMARK  status: ('A' for Active; 'I' for Inactive)
REMARK    1  A    between atoms: C_1  and  C_2
REMARK    2  A    between atoms: C_2  and  C_3
REMARK    3  A    between atoms: C_3  and  C_5
REMARK    4  A    between atoms: C_3  and  N_17
REMARK    5  A    between atoms: N_9  and  C_10
REMARK    6  A    between atoms: C_10  and  C_11
REMARK    7  A    between atoms: N_17  and  C_18
REMARK    8  A    between atoms: N_17  and  C_27
REMARK    9  A    between atoms: C_18  and  C_19
REMARK   10  A    between atoms: C_19  and  C_20
REMARK   11  A    between atoms: C_20  and  N_21
REMARK   12  A    between atoms: C_27  and  C_28
REMARK   13  A    between atoms: C_31  and  C_41
REMARK   14  A    between atoms: C_34  and  C_40
REMARK                            x       y       z     vdW  Elec       q    Type
REMARK                         _______ _______ _______ _____ _____    ______ ____
ROOT
ATOM      1  N   UNL     1       5.739   2.172  -2.012  0.00  0.00    +0.389 N 
ATOM      2  H   UNL     1       6.369   2.912  -1.496  0.00  0.00    -0.080 HD
ENDROOT
BRANCH   1   3
ATOM      3  C   UNL     1       4.366   2.323  -1.514  0.00  0.00    +0.003 C 
BRANCH   3   4
ATOM      4  C   UNL     1       3.518   1.188  -2.029  0.00  0.00    +0.138 A 
ATOM      5  N   UNL     1       3.750  -0.093  -1.879  0.00  0.00    -0.115 NA
ATOM      6  N   UNL     1       2.802  -0.740  -2.463  0.00  0.00    -0.023 NA
ATOM      7  N   UNL     1       1.968   0.095  -2.978  0.00  0.00    -0.044 NA
ATOM      8  N   UNL     1       2.373   1.294  -2.729  0.00  0.00    -0.226 N 
BRANCH   8   9
ATOM      9  C   UNL     1       1.714   2.537  -3.137  0.00  0.00    +0.182 C 
BRANCH   9  10
ATOM     10  C   UNL     1       0.742   2.965  -2.068  0.00  0.00    -0.026 A 
ATOM     11  C   UNL     1       1.161   3.794  -1.045  0.00  0.00    +0.005 A 
ATOM     12  C   UNL     1       0.269   4.186  -0.064  0.00  0.00    +0.000 A 
ATOM     13  C   UNL     1      -1.040   3.745  -0.104  0.00  0.00    +0.000 A 
ATOM     14  C   UNL     1      -1.461   2.920  -1.131  0.00  0.00    +0.000 A 
ATOM     15  C   UNL     1      -0.569   2.528  -2.111  0.00  0.00    +0.005 A 
ENDBRANCH   9  10
ENDBRANCH   8   9
ENDBRANCH   3   4
BRANCH   3  17
ATOM     16  C   UNL     1       5.124   3.527   0.539  0.00  0.00    +0.002 C 
ATOM     17  C   UNL     1       4.372   2.302   0.015  0.00  0.00    -0.011 C 
ENDBRANCH   3  17
ENDBRANCH   1   3
BRANCH   1  18
ATOM     18  C   UNL     1       5.810   2.446  -3.454  0.00  0.00    -0.076 C 
BRANCH  18  19
ATOM     19  C   UNL     1       5.527   3.929  -3.706  0.00  0.00    -0.003 C 
BRANCH  19  20
ATOM     20  C   UNL     1       5.540   4.202  -5.211  0.00  0.00    +0.083 C 
BRANCH  20  21
ATOM     21  N   UNL     1       5.269   5.625  -5.453  0.00  0.00    -0.298 NA
ATOM     22  C   UNL     1       3.898   5.975  -5.052  0.00  0.00    +0.112 C 
ATOM     23  C   UNL     1       3.678   7.475  -5.265  0.00  0.00    +0.175 C 
ATOM     24  O   UNL     1       3.942   7.802  -6.632  0.00  0.00    -0.377 OA
ATOM     25  C   UNL     1       5.269   7.474  -7.056  0.00  0.00    +0.175 C 
ATOM     26  C   UNL     1       5.505   5.974  -6.861  0.00  0.00    +0.112 C 
ENDBRANCH  20  21
ENDBRANCH  19  20
ENDBRANCH  18  19
ENDBRANCH   1  18
BRANCH   1  27
ATOM     27  C   UNL     1       6.268   0.837  -1.704  0.00  0.00    -0.037 C 
BRANCH  27  28
ATOM     28  C   UNL     1       7.766   0.840  -1.862  0.00  0.00    +0.001 A 
ATOM     29  C   UNL     1       8.559   1.058  -0.783  0.00  0.00    +0.017 A 
ATOM     30  C   UNL     1      10.011   1.050  -0.970  0.00  0.00    +0.002 A 
ATOM     31  C   UNL     1      10.880   1.263   0.106  0.00  0.00    -0.041 A 
ATOM     32  C   UNL     1      12.230   1.254  -0.102  0.00  0.00    +0.004 A 
ATOM     33  C   UNL     1      12.748   1.035  -1.371  0.00  0.00    +0.005 A 
ATOM     34  C   UNL     1      11.911   0.824  -2.445  0.00  0.00    -0.026 A 
ATOM     35  C   UNL     1      10.532   0.829  -2.258  0.00  0.00    +0.052 A 
ATOM     36  N   UNL     1       9.672   0.619  -3.315  0.00  0.00    -0.322 N 
ATOM     37  H   UNL     1      10.073   0.445  -4.324  0.00  0.00    +0.169 HD
ATOM     38  C   UNL     1       8.340   0.623  -3.133  0.00  0.00    +0.251 A 
ATOM     39  O   UNL     1       7.609   0.435  -4.090  0.00  0.00    -0.268 OA
ATOM     40  C   UNL     1      12.487   0.589  -3.818  0.00  0.00    +0.046 C 
ATOM     41  C   UNL     1      10.328   1.500   1.489  0.00  0.00    +0.044 C 
ENDBRANCH  27  28
ENDBRANCH   1  27
TORSDOF 11
