REMARK  Name = ZINC19922662
REMARK  10 active torsions:
REMARK  status: ('A' for Active; 'I' for Inactive)
REMARK    1  A    between atoms: C_3  and  C_8
REMARK    2  A    between atoms: C_5  and  O_7
REMARK    3  A    between atoms: C_8  and  C_10
REMARK    4  A    between atoms: C_8  and  O_29
REMARK    5  A    between atoms: C_10  and  N_11
REMARK    6  A    between atoms: N_11  and  C_12
REMARK    7  A    between atoms: C_12  and  C_13
REMARK    8  A    between atoms: C_16  and  O_19
REMARK    9  A    between atoms: O_19  and  C_20
REMARK   10  A    between atoms: C_20  and  C_21
REMARK                            x       y       z     vdW  Elec       q    Type
REMARK                         _______ _______ _______ _____ _____    ______ ____
ROOT
ATOM      1  C   UNL     1       7.013   4.447   2.722  0.00  0.00    -0.033 A 
ATOM      2  C   UNL     1       8.220   3.777   2.788  0.00  0.00    +0.008 A 
ATOM      3  C   UNL     1       9.407   4.483   2.744  0.00  0.00    +0.046 A 
ATOM      4  C   UNL     1       9.386   5.866   2.634  0.00  0.00    +0.121 A 
ATOM      5  C   UNL     1       8.174   6.536   2.568  0.00  0.00    +0.046 A 
ATOM      6  C   UNL     1       6.990   5.825   2.607  0.00  0.00    +0.008 A 
ENDROOT
BRANCH   1   7
ATOM      7  C   UNL     1       5.720   3.675   2.771  0.00  0.00    +0.116 C 
BRANCH   7   8
ATOM      8  N   UNL     1       5.317   3.309   1.406  0.00  0.00    -0.309 NA
ATOM      9  H   UNL     1       6.047   2.791   0.940  0.00  0.00    +0.122 HD
BRANCH   8  10
ATOM     10  C   UNL     1       4.057   2.553   1.414  0.00  0.00    +0.117 C 
BRANCH  10  11
ATOM     11  C   UNL     1       3.671   2.190  -0.021  0.00  0.00    +0.158 C 
BRANCH  11  14
ATOM     12  C   UNL     1      -0.017   1.377   0.010  0.00  0.00    +0.004 A 
ATOM     13  C   UNL     1       1.171   2.086   0.002  0.00  0.00    +0.006 A 
ATOM     14  C   UNL     1       2.379   1.415  -0.013  0.00  0.00    -0.014 A 
ATOM     15  C   UNL     1       2.403   0.033  -0.021  0.00  0.00    +0.051 A 
ATOM     16  C   UNL     1       1.214  -0.680  -0.013  0.00  0.00    +0.117 A 
ATOM     17  C   UNL     1       0.002  -0.004   0.002  0.00  0.00    +0.045 A 
BRANCH  16  18
ATOM     18  O   UNL     1       1.235  -2.039  -0.021  0.00  0.00    -0.507 OA
ATOM     19  H   UNL     1       1.249  -2.437   0.860  0.00  0.00    +0.292 HD
ENDBRANCH  16  18
ENDBRANCH  11  14
BRANCH  11  20
ATOM     20  O   UNL     1       3.504   3.386  -0.786  0.00  0.00    -0.386 OA
ATOM     21  H   UNL     1       2.819   3.977  -0.447  0.00  0.00    +0.210 HD
ENDBRANCH  11  20
ENDBRANCH  10  11
ENDBRANCH   8  10
ENDBRANCH   7   8
ENDBRANCH   1   7
BRANCH   4  22
ATOM     22  O   UNL     1      10.553   6.562   2.592  0.00  0.00    -0.487 OA
BRANCH  22  23
ATOM     23  C   UNL     1      10.455   7.984   2.478  0.00  0.00    +0.266 C 
BRANCH  23  24
ATOM     24  C   UNL     1      11.838   8.581   2.446  0.00  0.00    +0.008 A 
ATOM     25  C   UNL     1      12.948   7.759   2.517  0.00  0.00    +0.010 A 
ATOM     26  C   UNL     1      14.217   8.306   2.487  0.00  0.00    +0.020 A 
ATOM     27  C   UNL     1      14.377   9.676   2.386  0.00  0.00    +0.042 A 
ATOM     28  C   UNL     1      13.268  10.499   2.314  0.00  0.00    +0.040 A 
ATOM     29  C   UNL     1      11.998   9.951   2.339  0.00  0.00    +0.049 A 
ATOM     30 CL   UNL     1      10.605  10.982   2.242  0.00  0.00    -0.083 Cl
ATOM     31 CL   UNL     1      15.971  10.363   2.349  0.00  0.00    -0.083 Cl
ENDBRANCH  23  24
ENDBRANCH  22  23
ENDBRANCH   4  22
TORSDOF 10
