REMARK  Name = ZINC13525129
REMARK  9 active torsions:
REMARK  status: ('A' for Active; 'I' for Inactive)
REMARK    1  A    between atoms: C_1  and  C_2
REMARK    2  A    between atoms: C_2  and  C_4
REMARK    3  A    between atoms: C_2  and  O_17
REMARK    4  A    between atoms: N_6  and  C_7
REMARK    5  A    between atoms: C_10  and  S_13
REMARK    6  A    between atoms: S_13  and  N_16
REMARK    7  A    between atoms: O_17  and  C_18
REMARK    8  A    between atoms: C_18  and  C_20
REMARK    9  A    between atoms: C_20  and  C_21
REMARK                            x       y       z     vdW  Elec       q    Type
REMARK                         _______ _______ _______ _____ _____    ______ ____
ROOT
ATOM      1  C   UNL     1       4.918   6.017   1.437  0.00  0.00    +0.062 C 
ATOM      2  C   UNL     1       4.424   5.864  -0.003  0.00  0.00    +0.259 C 
ENDROOT
BRANCH   2   3
ATOM      3  C   UNL     1       4.532   7.187  -0.715  0.00  0.00    +0.258 C 
ATOM      4  O   UNL     1       3.530   7.758  -1.090  0.00  0.00    -0.271 OA
ATOM      5  N   UNL     1       5.743   7.737  -0.934  0.00  0.00    -0.282 N 
ATOM      6  H   UNL     1       6.646   7.259  -0.527  0.00  0.00    +0.155 HD
BRANCH   5   7
ATOM      7  C   UNL     1       5.851   8.917  -1.679  0.00  0.00    +0.034 A 
ATOM      8  C   UNL     1       6.948   9.119  -2.506  0.00  0.00    +0.025 A 
ATOM      9  C   UNL     1       7.048  10.282  -3.245  0.00  0.00    +0.030 A 
ATOM     10  C   UNL     1       6.064  11.249  -3.152  0.00  0.00    +0.105 A 
ATOM     11  C   UNL     1       4.974  11.053  -2.324  0.00  0.00    +0.030 A 
ATOM     12  C   UNL     1       4.864   9.890  -1.588  0.00  0.00    +0.025 A 
BRANCH  10  13
ATOM     13  S   UNL     1       6.200  12.734  -4.090  0.00  0.00    +0.056 S 
ATOM     14  O   UNL     1       7.036  12.438  -5.200  0.00  0.00    -0.153 OA
ATOM     15  O   UNL     1       4.881  13.239  -4.244  0.00  0.00    -0.153 OA
BRANCH  13  16
ATOM     16  N   UNL     1       7.021  13.829  -3.158  0.00  0.00    -0.204 NA
ATOM     17  H   UNL     1       7.127  14.774  -3.711  0.00  0.00    +0.144 HD
ATOM     18  H   UNL     1       8.017  13.431  -2.917  0.00  0.00    +0.144 HD
ENDBRANCH  13  16
ENDBRANCH  10  13
ENDBRANCH   5   7
ENDBRANCH   2   3
BRANCH   2  19
ATOM     19  O   UNL     1       3.038   5.430   0.005  0.00  0.00    -0.452 OA
BRANCH  19  20
ATOM     20  C   UNL     1       2.813   4.107   0.008  0.00  0.00    +0.308 C 
ATOM     21  O   UNL     1       3.743   3.336   0.003  0.00  0.00    -0.251 OA
BRANCH  20  22
ATOM     22  C   UNL     1       1.400   3.583   0.016  0.00  0.00    +0.127 C 
BRANCH  22  23
ATOM     23  C   UNL     1       1.424   2.053   0.017  0.00  0.00    -0.017 C 
ATOM     24  C   UNL     1       2.146   1.553  -1.236  0.00  0.00    +0.011 C 
ATOM     25  C   UNL     1       2.170   0.023  -1.235  0.00  0.00    -0.009 C 
ATOM     26  C   UNL     1       2.905  -0.474   0.011  0.00  0.00    +0.007 C 
ATOM     27  C   UNL     1       2.183   0.025   1.264  0.00  0.00    -0.009 C 
ATOM     28  C   UNL     1       2.160   1.555   1.263  0.00  0.00    +0.011 C 
ATOM     29  C   UNL     1       0.749  -0.507   1.272  0.00  0.00    +0.021 C 
ATOM     30  C   UNL     1       0.013  -0.009   0.026  0.00  0.00    +0.027 C 
ATOM     31  C   UNL     1       0.735  -0.509  -1.226  0.00  0.00    +0.021 C 
ATOM     32  C   UNL     1      -0.011   1.521   0.025  0.00  0.00    +0.025 C 
ATOM     33 BR   UNL     1      -1.830  -0.693   0.037  0.00  0.00    -0.084 Br
ENDBRANCH  22  23
ENDBRANCH  20  22
ENDBRANCH  19  20
ENDBRANCH   2  19
TORSDOF 8
