REMARK  Name = ZINC39603954
REMARK  8 active torsions:
REMARK  status: ('A' for Active; 'I' for Inactive)
REMARK    1  A    between atoms: C_1  and  C_2
REMARK    2  A    between atoms: C_2  and  O_3
REMARK    3  A    between atoms: O_3  and  C_4
REMARK    4  A    between atoms: C_4  and  C_6
REMARK    5  A    between atoms: C_6  and  C_7
REMARK    6  A    between atoms: C_7  and  N_8
REMARK    7  A    between atoms: C_9  and  C_11
REMARK    8  A    between atoms: C_22  and  C_24
REMARK                            x       y       z     vdW  Elec       q    Type
REMARK                         _______ _______ _______ _____ _____    ______ ____
ROOT
ATOM      1  C   UNL     1       2.219  -6.325  -5.013  0.00  0.00    +0.100 C 
ATOM      2  C   UNL     1       1.722  -5.982  -6.435  0.00  0.00    +0.121 C 
ATOM      3  N   UNL     1       1.965  -7.214  -7.223  0.00  0.00    -0.296 N 
ATOM      4  C   UNL     1       1.613  -8.318  -6.299  0.00  0.00    +0.115 C 
ATOM      5  C   UNL     1       2.146  -7.859  -4.927  0.00  0.00    -0.004 C 
ATOM      6  C   UNL     1       1.184  -8.281  -3.821  0.00  0.00    -0.010 C 
ATOM      7  C   UNL     1       1.172  -9.809  -3.716  0.00  0.00    -0.082 C 
ATOM      8  N   UNL     1       2.527 -10.292  -3.425  0.00  0.00    +0.379 N 
ATOM      9  C   UNL     1       3.426  -9.963  -4.538  0.00  0.00    -0.082 C 
ATOM     10  C   UNL     1       3.533  -8.442  -4.677  0.00  0.00    -0.010 C 
ATOM     11  C   UNL     1       2.406  -7.308  -8.493  0.00  0.00    +0.247 C 
ATOM     12  O   UNL     1       2.777  -6.312  -9.083  0.00  0.00    -0.270 OA
ATOM     13  H   UNL     1       2.865  -9.854  -2.581  0.00  0.00    -0.086 HD
ATOM     14  H   UNL     1       2.505 -11.292  -3.296  0.00  0.00    -0.086 HD
ENDROOT
BRANCH  11  15
ATOM     15  C   UNL     1       2.440  -8.623  -9.169  0.00  0.00    +0.042 A 
ATOM     16  C   UNL     1       1.646  -9.671  -8.701  0.00  0.00    +0.051 A 
ATOM     17  C   UNL     1       1.682 -10.898  -9.336  0.00  0.00    +0.127 A 
ATOM     18  C   UNL     1       2.503 -11.088 -10.435  0.00  0.00    +0.076 A 
ATOM     19  C   UNL     1       3.292 -10.051 -10.904  0.00  0.00    +0.127 A 
ATOM     20  C   UNL     1       3.261  -8.818 -10.280  0.00  0.00    +0.051 A 
ATOM     21  F   UNL     1       4.091 -10.243 -11.977  0.00  0.00    -0.205 F 
ATOM     22  F   UNL     1       0.914 -11.914  -8.883  0.00  0.00    -0.205 F 
ENDBRANCH  11  15
BRANCH   1  24
ATOM     23  N   UNL     1       1.824  -5.334  -2.781  0.00  0.00    -0.314 N 
ATOM     24  C   UNL     1       1.321  -5.698  -3.978  0.00  0.00    +0.218 C 
ATOM     25  O   UNL     1       0.146  -5.521  -4.221  0.00  0.00    -0.275 OA
ATOM     26  H   UNL     1       2.764  -5.475  -2.587  0.00  0.00    +0.149 HD
BRANCH  23  27
ATOM     27  C   UNL     1       0.951  -4.724  -1.775  0.00  0.00    +0.115 C 
BRANCH  27  28
ATOM     28  C   UNL     1       1.764  -4.408  -0.518  0.00  0.00    +0.139 C 
BRANCH  28  29
ATOM     29  C   UNL     1       0.866  -3.781   0.517  0.00  0.00    +0.309 C 
ATOM     30  O   UNL     1      -0.304  -3.605   0.274  0.00  0.00    -0.251 OA
BRANCH  29  31
ATOM     31  O   UNL     1       1.367  -3.418   1.708  0.00  0.00    -0.465 OA
BRANCH  31  33
ATOM     32  C   UNL     1       1.205  -2.485   3.932  0.00  0.00    +0.048 C 
ATOM     33  C   UNL     1       0.459  -2.830   2.641  0.00  0.00    +0.229 C 
ENDBRANCH  31  33
ENDBRANCH  29  31
ENDBRANCH  28  29
ENDBRANCH  27  28
ENDBRANCH  23  27
ENDBRANCH   1  24
TORSDOF 7
