REMARK  Name = ZINC08802360
REMARK  11 active torsions:
REMARK  status: ('A' for Active; 'I' for Inactive)
REMARK    1  A    between atoms: C_1  and  O_2
REMARK    2  A    between atoms: O_2  and  C_3
REMARK    3  A    between atoms: C_7  and  C_9
REMARK    4  A    between atoms: C_9  and  C_10
REMARK    5  A    between atoms: C_10  and  N_12
REMARK    6  A    between atoms: N_14  and  C_26
REMARK    7  A    between atoms: C_18  and  S_22
REMARK    8  A    between atoms: S_22  and  N_25
REMARK    9  A    between atoms: C_26  and  C_27
REMARK   10  A    between atoms: C_27  and  O_29
REMARK   11  A    between atoms: O_29  and  C_30
REMARK                            x       y       z     vdW  Elec       q    Type
REMARK                         _______ _______ _______ _____ _____    ______ ____
ROOT
ATOM      1  N   UNL     1       0.520  -0.209   0.372  0.00  0.00    -0.156 NA
ATOM      2  C   UNL     1       0.299   1.093   0.202  0.00  0.00    +0.167 A 
ATOM      3  N   UNL     1      -0.869   1.775   0.339  0.00  0.00    -0.310 N 
ATOM      4  C   UNL     1      -0.904   3.140   0.124  0.00  0.00    +0.058 A 
ATOM      5  C   UNL     1      -2.003   4.008   0.221  0.00  0.00    +0.029 A 
ATOM      6  C   UNL     1      -1.862   5.351  -0.036  0.00  0.00    +0.030 A 
ATOM      7  C   UNL     1      -0.637   5.889  -0.396  0.00  0.00    +0.106 A 
ATOM      8  C   UNL     1       0.463   5.056  -0.499  0.00  0.00    +0.045 A 
ATOM      9  C   UNL     1       0.322   3.712  -0.242  0.00  0.00    +0.041 A 
ATOM     10  S   UNL     1       1.431   2.326  -0.254  0.00  0.00    -0.052 S 
ENDROOT
BRANCH   7  11
ATOM     11  S   UNL     1      -0.482   7.614  -0.720  0.00  0.00    +0.056 S 
ATOM     12  O   UNL     1      -1.541   8.255  -0.023  0.00  0.00    -0.153 OA
ATOM     13  O   UNL     1       0.883   7.946  -0.506  0.00  0.00    -0.153 OA
BRANCH  11  14
ATOM     14  N   UNL     1      -0.775   7.837  -2.335  0.00  0.00    -0.204 NA
ATOM     15  H   UNL     1      -1.163   8.669  -2.647  0.00  0.00    +0.144 HD
ATOM     16  H   UNL     1      -0.559   7.135  -2.969  0.00  0.00    +0.144 HD
ENDBRANCH  11  14
ENDBRANCH   7  11
BRANCH   1  17
ATOM     17  C   UNL     1      -0.501  -1.037   0.559  0.00  0.00    +0.243 C 
ATOM     18  O   UNL     1      -1.307  -1.220  -0.334  0.00  0.00    -0.273 OA
BRANCH  17  19
ATOM     19  C   UNL     1      -0.662  -1.750   1.877  0.00  0.00    +0.133 C 
BRANCH  19  24
ATOM     20  C   UNL     1      -4.244  -2.917   2.177  0.00  0.00    +0.120 A 
ATOM     21  C   UNL     1      -4.141  -4.231   1.743  0.00  0.00    +0.045 A 
ATOM     22  C   UNL     1      -2.915  -4.735   1.354  0.00  0.00    +0.004 A 
ATOM     23  C   UNL     1      -1.790  -3.932   1.398  0.00  0.00    +0.004 A 
ATOM     24  C   UNL     1      -1.890  -2.622   1.830  0.00  0.00    -0.035 A 
ATOM     25  C   UNL     1      -3.113  -2.115   2.224  0.00  0.00    +0.049 A 
BRANCH  20  27
ATOM     26  C   UNL     1      -6.568  -3.304   2.491  0.00  0.00    +0.277 C 
ATOM     27  O   UNL     1      -5.448  -2.419   2.560  0.00  0.00    -0.495 OA
ENDBRANCH  20  27
ENDBRANCH  19  24
ENDBRANCH  17  19
ENDBRANCH   1  17
BRANCH   3  28
ATOM     28  C   UNL     1      -2.091   1.062   0.720  0.00  0.00    +0.244 C 
BRANCH  28  29
ATOM     29  C   UNL     1      -2.860   0.686  -0.520  0.00  0.00    +0.327 C 
ATOM     30  O   UNL     1      -2.431   0.983  -1.611  0.00  0.00    -0.249 OA
BRANCH  29  31
ATOM     31  O   UNL     1      -4.021   0.021  -0.414  0.00  0.00    -0.467 OA
ATOM     32  C   UNL     1      -4.708  -0.308  -1.651  0.00  0.00    +0.280 C 
ENDBRANCH  29  31
ENDBRANCH  28  29
ENDBRANCH   3  28
TORSDOF 9
