REMARK  Name = ZINC10767804
REMARK  4 active torsions:
REMARK  status: ('A' for Active; 'I' for Inactive)
REMARK    1  A    between atoms: C_1  and  C_2
REMARK    2  A    between atoms: C_2  and  C_4
REMARK    3  A    between atoms: C_2  and  N_42
REMARK    4  A    between atoms: N_6  and  C_7
REMARK                            x       y       z     vdW  Elec       q    Type
REMARK                         _______ _______ _______ _____ _____    ______ ____
ROOT
ATOM      1  C   UNL     1       0.067  -2.770   0.253  0.00  0.00    +0.203 C 
ATOM      2  O   UNL     1      -0.906  -2.163  -0.143  0.00  0.00    -0.277 OA
ATOM      3  N   UNL     1       1.126  -2.098   0.746  0.00  0.00    -0.287 N 
ATOM      4  H   UNL     1       1.931  -2.578   0.996  0.00  0.00    +0.155 HD
ENDROOT
BRANCH   3   5
ATOM      5  C   UNL     1       1.063  -0.707   0.899  0.00  0.00    +0.035 A 
ATOM      6  C   UNL     1       1.698  -0.098   1.976  0.00  0.00    +0.025 A 
ATOM      7  C   UNL     1       1.640   1.272   2.132  0.00  0.00    +0.029 A 
ATOM      8  C   UNL     1       0.947   2.045   1.212  0.00  0.00    +0.067 A 
ATOM      9  C   UNL     1       0.309   1.436   0.129  0.00  0.00    +0.069 A 
ATOM     10  C   UNL     1       0.369   0.060  -0.025  0.00  0.00    +0.051 A 
ATOM     11  N   UNL     1      -0.293   2.454  -0.608  0.00  0.00    -0.306 N 
ATOM     12  H   UNL     1      -0.811   2.336  -1.419  0.00  0.00    +0.170 HD
ATOM     13  C   UNL     1      -0.034   3.627  -0.002  0.00  0.00    +0.325 A 
ATOM     14  O   UNL     1      -0.416   4.716  -0.390  0.00  0.00    -0.247 OA
ATOM     15  N   UNL     1       0.712   3.415   1.099  0.00  0.00    -0.306 N 
ATOM     16  H   UNL     1       1.032   4.098   1.709  0.00  0.00    +0.170 HD
ENDBRANCH   3   5
BRANCH   1  18
ATOM     17  C   UNL     1       0.814  -4.725  -1.078  0.00  0.00    -0.004 C 
ATOM     18  C   UNL     1       0.091  -4.276   0.194  0.00  0.00    +0.017 C 
BRANCH  18  27
ATOM     19  C   UNL     1      -1.988  -4.443   1.425  0.00  0.00    -0.072 C 
ATOM     20  C   UNL     1      -3.500  -4.621   1.207  0.00  0.00    +0.024 C 
ATOM     21  C   UNL     1      -3.710  -5.939   0.535  0.00  0.00    -0.011 A 
ATOM     22  C   UNL     1      -2.758  -6.709  -0.062  0.00  0.00    -0.054 A 
ATOM     23  C   UNL     1      -3.189  -7.908  -0.625  0.00  0.00    +0.009 A 
ATOM     24  C   UNL     1      -4.497  -8.252  -0.563  0.00  0.00    +0.045 A 
ATOM     25  S   UNL     1      -5.202  -6.867   0.317  0.00  0.00    -0.101 S 
ATOM     26  C   UNL     1      -1.308  -6.232  -0.084  0.00  0.00    -0.041 C 
ATOM     27  N   UNL     1      -1.300  -4.769   0.152  0.00  0.00    +0.390 N 
ATOM     28  H   UNL     1      -1.794  -4.306  -0.619  0.00  0.00    -0.080 HD
ENDBRANCH  18  27
ENDBRANCH   1  18
TORSDOF 3
