REMARK  Name = ZINC01826275
REMARK  16 active torsions:
REMARK  status: ('A' for Active; 'I' for Inactive)
REMARK    1  A    between atoms: C_1  and  N_65
REMARK    2  A    between atoms: C_2  and  N_65
REMARK    3  A    between atoms: C_3  and  C_4
REMARK    4  A    between atoms: C_3  and  N_65
REMARK    5  A    between atoms: C_4  and  C_5
REMARK    6  A    between atoms: C_5  and  N_6
REMARK    7  A    between atoms: N_6  and  S_7
REMARK    8  A    between atoms: S_7  and  C_10
REMARK    9  A    between atoms: C_22  and  S_24
REMARK   10  A    between atoms: S_24  and  N_27
REMARK   11  A    between atoms: N_27  and  C_28
REMARK   12  A    between atoms: C_28  and  C_29
REMARK   13  A    between atoms: C_29  and  C_30
REMARK   14  A    between atoms: C_30  and  N_67
REMARK   15  A    between atoms: C_31  and  N_67
REMARK   16  A    between atoms: C_32  and  N_67
REMARK                            x       y       z     vdW  Elec       q    Type
REMARK                         _______ _______ _______ _____ _____    ______ ____
ROOT
ATOM      1  C   UNL     1       0.002  -0.004   0.002  0.00  0.00    +0.106 A 
ATOM      2  C   UNL     1      -0.017   1.377   0.010  0.00  0.00    +0.029 A 
ATOM      3  C   UNL     1       1.169   2.095   0.002  0.00  0.00    +0.011 A 
ATOM      4  C   UNL     1       2.385   1.428  -0.013  0.00  0.00    -0.006 A 
ATOM      5  C   UNL     1       2.404   0.023  -0.021  0.00  0.00    +0.032 A 
ATOM      6  C   UNL     1       1.208  -0.685  -0.014  0.00  0.00    +0.040 A 
ATOM      7  C   UNL     1       3.820  -0.412  -0.037  0.00  0.00    +0.194 C 
ATOM      8  O   UNL     1       4.223  -1.557  -0.049  0.00  0.00    -0.287 OA
ATOM      9  C   UNL     1       4.652   0.815  -0.038  0.00  0.00    +0.032 A 
ATOM     10  C   UNL     1       3.787   1.921  -0.024  0.00  0.00    -0.006 A 
ATOM     11  C   UNL     1       4.318   3.204  -0.021  0.00  0.00    +0.011 A 
ATOM     12  C   UNL     1       5.692   3.386  -0.034  0.00  0.00    +0.029 A 
ATOM     13  C   UNL     1       6.542   2.297  -0.048  0.00  0.00    +0.106 A 
ATOM     14  C   UNL     1       6.029   1.011  -0.051  0.00  0.00    +0.040 A 
ENDROOT
BRANCH   1  15
ATOM     15  S   UNL     1      -1.514  -0.902   0.012  0.00  0.00    +0.058 S 
ATOM     16  O   UNL     1      -1.223  -2.184   0.553  0.00  0.00    -0.153 OA
ATOM     17  O   UNL     1      -2.493  -0.041   0.577  0.00  0.00    -0.153 OA
BRANCH  15  18
ATOM     18  N   UNL     1      -1.950  -1.144  -1.567  0.00  0.00    -0.190 NA
ATOM     19  H   UNL     1      -2.757  -0.733  -1.916  0.00  0.00    +0.148 HD
BRANCH  18  20
ATOM     20  C   UNL     1      -1.118  -1.977  -2.438  0.00  0.00    +0.104 C 
BRANCH  20  21
ATOM     21  C   UNL     1      -1.905  -2.345  -3.697  0.00  0.00    -0.002 C 
BRANCH  21  22
ATOM     22  C   UNL     1      -1.036  -3.216  -4.607  0.00  0.00    -0.078 C 
BRANCH  22  25
ATOM     23  C   UNL     1      -0.922  -4.201  -6.816  0.00  0.00    -0.097 C 
ATOM     24  C   UNL     1      -2.933  -4.435  -5.488  0.00  0.00    -0.097 C 
ATOM     25  N   UNL     1      -1.803  -3.545  -5.827  0.00  0.00    +0.376 N 
ATOM     26  H   UNL     1      -2.172  -2.677  -6.233  0.00  0.00    -0.083 HD
ENDBRANCH  22  25
ENDBRANCH  21  22
ENDBRANCH  20  21
ENDBRANCH  18  20
ENDBRANCH  15  18
ENDBRANCH   1  15
BRANCH  13  27
ATOM     27  S   UNL     1       8.286   2.546  -0.064  0.00  0.00    +0.058 S 
ATOM     28  O   UNL     1       8.518   3.833   0.492  0.00  0.00    -0.153 OA
ATOM     29  O   UNL     1       8.869   1.367   0.474  0.00  0.00    -0.153 OA
BRANCH  27  30
ATOM     30  N   UNL     1       8.756   2.624  -1.650  0.00  0.00    -0.190 NA
ATOM     31  H   UNL     1       9.337   1.940  -2.018  0.00  0.00    +0.148 HD
BRANCH  30  32
ATOM     32  C   UNL     1       8.293   3.725  -2.498  0.00  0.00    +0.104 C 
BRANCH  32  33
ATOM     33  C   UNL     1       9.140   3.781  -3.770  0.00  0.00    -0.002 C 
BRANCH  33  34
ATOM     34  C   UNL     1       8.656   4.932  -4.655  0.00  0.00    -0.078 C 
BRANCH  34  37
ATOM     35  C   UNL     1       9.255   3.792  -6.706  0.00  0.00    -0.097 C 
ATOM     36  C   UNL     1       9.197   6.211  -6.638  0.00  0.00    -0.097 C 
ATOM     37  N   UNL     1       9.498   4.986  -5.869  0.00  0.00    +0.376 N 
ATOM     38  H   UNL     1      10.486   5.001  -5.590  0.00  0.00    -0.083 HD
ENDBRANCH  34  37
ENDBRANCH  33  34
ENDBRANCH  32  33
ENDBRANCH  30  32
ENDBRANCH  27  30
ENDBRANCH  13  27
TORSDOF 12
