REMARK  Name = ZINC02198026
REMARK  9 active torsions:
REMARK  status: ('A' for Active; 'I' for Inactive)
REMARK    1  A    between atoms: C_1  and  C_2
REMARK    2  A    between atoms: N_8  and  C_9
REMARK    3  A    between atoms: C_9  and  C_10
REMARK    4  A    between atoms: C_10  and  C_11
REMARK    5  A    between atoms: C_14  and  O_17
REMARK    6  A    between atoms: O_17  and  C_18
REMARK    7  A    between atoms: C_19  and  C_27
REMARK    8  A    between atoms: C_21  and  C_25
REMARK    9  A    between atoms: C_22  and  N_24
REMARK                            x       y       z     vdW  Elec       q    Type
REMARK                         _______ _______ _______ _____ _____    ______ ____
ROOT
ATOM      1  C   UNL     1       5.907   2.411   1.275  0.00  0.00    +0.064 C 
ATOM      2  C   UNL     1       4.638   1.647   0.997  0.00  0.00    +0.022 A 
ATOM      3  C   UNL     1       3.480   2.319   0.828  0.00  0.00    +0.068 A 
ATOM      4  C   UNL     1       2.290   1.609   0.566  0.00  0.00    +0.141 A 
ATOM      5  C   UNL     1       2.337   0.233   0.489  0.00  0.00    +0.072 A 
ATOM      6  C   UNL     1       3.562  -0.422   0.671  0.00  0.00    +0.259 A 
ATOM      7  O   UNL     1       3.618  -1.640   0.604  0.00  0.00    -0.267 OA
ATOM      8  N   UNL     1       4.677   0.291   0.918  0.00  0.00    -0.312 N 
ATOM      9  C   UNL     1       1.092  -0.564   0.211  0.00  0.00    +0.103 C 
ATOM     10  C   UNL     1      -0.128   0.282   0.448  0.00  0.00    +0.098 C 
ATOM     11  C   UNL     1      -0.043   1.631   0.527  0.00  0.00    +0.199 C 
ATOM     12  O   UNL     1       1.129   2.278   0.399  0.00  0.00    -0.441 OA
ENDROOT
BRANCH   9  13
ATOM     13  C   UNL     1       1.106  -1.030  -1.222  0.00  0.00    -0.034 A 
ATOM     14  C   UNL     1       1.129  -0.105  -2.249  0.00  0.00    +0.007 A 
ATOM     15  C   UNL     1       1.147  -0.531  -3.563  0.00  0.00    +0.038 A 
ATOM     16  C   UNL     1       1.131  -1.885  -3.852  0.00  0.00    +0.123 A 
ATOM     17  C   UNL     1       1.103  -2.811  -2.823  0.00  0.00    +0.038 A 
ATOM     18  C   UNL     1       1.090  -2.382  -1.509  0.00  0.00    +0.007 A 
ATOM     19  F   UNL     1       1.143  -2.302  -5.137  0.00  0.00    -0.205 F 
ENDBRANCH   9  13
BRANCH  11  20
ATOM     20  N   UNL     1      -1.186   2.360   0.738  0.00  0.00    -0.328 N 
ATOM     21  H   UNL     1      -1.135   3.457   0.805  0.00  0.00    +0.145 HD
ATOM     22  H   UNL     1      -2.154   1.847   0.841  0.00  0.00    +0.145 HD
ENDBRANCH  11  20
BRANCH  10  23
ATOM     23  C   UNL     1      -1.405  -0.351   0.594  0.00  0.00    +0.101 C 
ATOM     24  N   UNL     1      -2.417  -0.853   0.710  0.00  0.00    -0.191 NA
ENDBRANCH  10  23
BRANCH   8  25
ATOM     25  C   UNL     1       5.951  -0.407   1.107  0.00  0.00    +0.130 C 
BRANCH  25  26
ATOM     26  C   UNL     1       6.118  -0.773   2.583  0.00  0.00    +0.057 C 
BRANCH  26  27
ATOM     27  C   UNL     1       7.429  -1.491   2.776  0.00  0.00    -0.045 A 
ATOM     28  C   UNL     1       7.484  -2.869   2.672  0.00  0.00    +0.007 A 
ATOM     29  C   UNL     1       8.686  -3.528   2.844  0.00  0.00    +0.046 A 
ATOM     30  C   UNL     1       9.836  -2.808   3.132  0.00  0.00    +0.120 A 
ATOM     31  C   UNL     1       9.777  -1.426   3.242  0.00  0.00    +0.046 A 
ATOM     32  C   UNL     1       8.574  -0.771   3.064  0.00  0.00    +0.007 A 
BRANCH  30  33
ATOM     33  O   UNL     1      11.018  -3.455   3.306  0.00  0.00    -0.495 OA
ATOM     34  C   UNL     1      11.004  -4.878   3.179  0.00  0.00    +0.277 C 
ENDBRANCH  30  33
ENDBRANCH  26  27
ENDBRANCH  25  26
ENDBRANCH   8  25
TORSDOF 7
