REMARK  Name = ZINC11288037
REMARK  15 active torsions:
REMARK  status: ('A' for Active; 'I' for Inactive)
REMARK    1  A    between atoms: C_1  and  C_2
REMARK    2  A    between atoms: C_4  and  S_26
REMARK    3  A    between atoms: C_6  and  N_9
REMARK    4  A    between atoms: C_7  and  C_8
REMARK    5  A    between atoms: C_10  and  C_12
REMARK    6  A    between atoms: C_12  and  N_13
REMARK    7  A    between atoms: C_16  and  C_20
REMARK    8  A    between atoms: C_16  and  C_21
REMARK    9  A    between atoms: C_21  and  C_22
REMARK   10  A    between atoms: C_22  and  C_23
REMARK   11  A    between atoms: C_23  and  C_24
REMARK   12  A    between atoms: C_23  and  C_25
REMARK   13  A    between atoms: S_26  and  N_29
REMARK   14  A    between atoms: N_29  and  C_30
REMARK   15  A    between atoms: N_29  and  C_31
REMARK                            x       y       z     vdW  Elec       q    Type
REMARK                         _______ _______ _______ _____ _____    ______ ____
ROOT
ATOM      1  N   UNL     1      -6.201   2.333  -0.399  0.00  0.00    -0.284 N 
ATOM      2  C   UNL     1      -4.876   2.308  -0.152  0.00  0.00    +0.235 C 
ATOM      3  O   UNL     1      -4.088   2.284  -1.074  0.00  0.00    -0.274 OA
ATOM      4  H   UNL     1      -6.832   2.271   0.335  0.00  0.00    +0.155 HD
ENDROOT
BRANCH   1  10
ATOM      5  C   UNL     1      -9.757   1.589  -3.712  0.00  0.00    +0.044 C 
ATOM      6  C   UNL     1      -8.386   2.097  -3.347  0.00  0.00    -0.044 A 
ATOM      7  C   UNL     1      -7.585   2.679  -4.313  0.00  0.00    +0.032 A 
ATOM      8  C   UNL     1      -6.326   3.146  -3.983  0.00  0.00    +0.107 A 
ATOM      9  C   UNL     1      -5.867   3.038  -2.684  0.00  0.00    +0.052 A 
ATOM     10  C   UNL     1      -6.666   2.450  -1.713  0.00  0.00    +0.038 A 
ATOM     11  C   UNL     1      -7.930   1.981  -2.049  0.00  0.00    -0.026 A 
ATOM     12  C   UNL     1      -8.803   1.347  -0.996  0.00  0.00    +0.046 C 
BRANCH   8  13
ATOM     13  S   UNL     1      -5.310   3.886  -5.217  0.00  0.00    +0.060 S 
ATOM     14  O   UNL     1      -3.967   3.748  -4.774  0.00  0.00    -0.153 OA
ATOM     15  O   UNL     1      -5.756   3.379  -6.468  0.00  0.00    -0.153 OA
BRANCH  13  16
ATOM     16  N   UNL     1      -5.643   5.508  -5.218  0.00  0.00    -0.183 NA
ATOM     17  C   UNL     1      -4.880   6.414  -4.356  0.00  0.00    +0.131 C 
ATOM     18  C   UNL     1      -6.702   6.038  -6.081  0.00  0.00    +0.131 C 
ENDBRANCH  13  16
ENDBRANCH   8  13
ENDBRANCH   1  10
BRANCH   2  19
ATOM     19  C   UNL     1      -4.374   2.308   1.269  0.00  0.00    +0.214 C 
BRANCH  19  20
ATOM     20  N   UNL     1      -2.909   2.277   1.269  0.00  0.00    -0.215 N 
ATOM     21  C   UNL     1      -2.174   1.144   1.279  0.00  0.00    +0.247 C 
ATOM     22  O   UNL     1      -2.584   0.003   1.290  0.00  0.00    -0.273 OA
ATOM     23  C   UNL     1      -0.728   1.598   1.273  0.00  0.00    +0.110 C 
ATOM     24  N   UNL     1      -0.823   3.068   1.262  0.00  0.00    -0.285 N 
ATOM     25  C   UNL     1      -2.135   3.368   1.260  0.00  0.00    +0.310 C 
ATOM     26  O   UNL     1      -2.567   4.504   1.251  0.00  0.00    -0.252 OA
ATOM     27  C   UNL     1      -0.012   1.095   0.018  0.00  0.00    +0.041 C 
ATOM     28  H   UNL     1      -0.085   3.696   1.256  0.00  0.00    +0.151 HD
BRANCH  23  29
ATOM     29  C   UNL     1      -0.007   1.115   2.533  0.00  0.00    +0.035 C 
BRANCH  29  30
ATOM     30  C   UNL     1       1.392   1.732   2.588  0.00  0.00    +0.005 C 
BRANCH  30  31
ATOM     31  C   UNL     1       2.113   1.249   3.848  0.00  0.00    -0.017 C 
ATOM     32  C   UNL     1       3.553   1.766   3.841  0.00  0.00    +0.007 C 
ATOM     33  C   UNL     1       1.387   1.780   5.086  0.00  0.00    +0.007 C 
ENDBRANCH  30  31
ENDBRANCH  29  30
ENDBRANCH  23  29
ENDBRANCH  19  20
ENDBRANCH   2  19
TORSDOF 8
