REMARK  Name = ZINC23353690
REMARK  7 active torsions:
REMARK  status: ('A' for Active; 'I' for Inactive)
REMARK    1  A    between atoms: C_1  and  C_2
REMARK    2  A    between atoms: C_2  and  N_3
REMARK    3  A    between atoms: C_6  and  C_8
REMARK    4  A    between atoms: C_17  and  N_21
REMARK    5  A    between atoms: N_21  and  C_22
REMARK    6  A    between atoms: C_22  and  C_23
REMARK    7  A    between atoms: C_23  and  N_29
REMARK                            x       y       z     vdW  Elec       q    Type
REMARK                         _______ _______ _______ _____ _____    ______ ____
ROOT
ATOM      1  N   UNL     1       0.881  -0.783  -1.130  0.00  0.00    -0.268 N 
ATOM      2  C   UNL     1       0.376  -0.984  -2.358  0.00  0.00    +0.043 A 
ATOM      3  C   UNL     1       1.418  -1.265  -3.179  0.00  0.00    +0.004 A 
ATOM      4  C   UNL     1       2.568  -1.218  -2.374  0.00  0.00    +0.151 A 
ATOM      5  N   UNL     1       2.163  -0.917  -1.152  0.00  0.00    -0.166 NA
ATOM      6  C   UNL     1       1.292  -1.560  -4.648  0.00  0.00    +0.023 C 
ATOM      7  C   UNL     1      -0.177  -1.888  -4.950  0.00  0.00    -0.067 C 
ATOM      8  C   UNL     1      -1.077  -0.808  -4.342  0.00  0.00    -0.009 C 
ATOM      9  C   UNL     1      -1.059  -0.923  -2.813  0.00  0.00    +0.054 C 
ENDROOT
BRANCH   4  10
ATOM     10  C   UNL     1       3.960  -1.453  -2.809  0.00  0.00    +0.267 C 
ATOM     11  O   UNL     1       4.188  -1.823  -3.944  0.00  0.00    -0.268 OA
ATOM     12  N   UNL     1       4.978  -1.256  -1.947  0.00  0.00    -0.295 N 
ATOM     13  C   UNL     1       4.689  -0.934  -0.549  0.00  0.00    +0.119 C 
ATOM     14  C   UNL     1       5.166  -2.082   0.349  0.00  0.00    +0.088 C 
ATOM     15  S   UNL     1       6.940  -2.349   0.056  0.00  0.00    -0.158 S 
ATOM     16  C   UNL     1       7.034  -2.567  -1.746  0.00  0.00    +0.088 C 
ATOM     17  C   UNL     1       6.358  -1.373  -2.420  0.00  0.00    +0.119 C 
ENDBRANCH   4  10
BRANCH   7  18
ATOM     18  N   UNL     1      -0.380  -1.933  -6.404  0.00  0.00    +0.382 N 
ATOM     19  H   UNL     1      -0.226  -1.015  -6.793  0.00  0.00    -0.085 HD
ATOM     20  H   UNL     1       0.271  -2.586  -6.814  0.00  0.00    -0.085 HD
BRANCH  18  21
ATOM     21  C   UNL     1      -1.754  -2.363  -6.693  0.00  0.00    -0.060 C 
BRANCH  21  22
ATOM     22  C   UNL     1      -1.928  -2.532  -8.204  0.00  0.00    +0.007 C 
ATOM     23  C   UNL     1      -3.365  -2.963  -8.506  0.00  0.00    +0.020 C 
ATOM     24  C   UNL     1      -3.656  -4.293  -7.808  0.00  0.00    +0.002 C 
ATOM     25  C   UNL     1      -2.685  -5.360  -8.317  0.00  0.00    +0.000 C 
ATOM     26  C   UNL     1      -1.248  -4.929  -8.014  0.00  0.00    +0.002 C 
ATOM     27  C   UNL     1      -0.957  -3.599  -8.713  0.00  0.00    +0.020 C 
BRANCH  22  28
ATOM     28  N   UNL     1      -1.649  -1.255  -8.875  0.00  0.00    -0.294 NA
ATOM     29  C   UNL     1      -2.431  -0.164  -8.276  0.00  0.00    +0.113 C 
ATOM     30  C   UNL     1      -2.065   1.155  -8.964  0.00  0.00    +0.175 C 
ATOM     31  O   UNL     1      -2.294   1.032 -10.370  0.00  0.00    -0.377 OA
ATOM     32  C   UNL     1      -1.548  -0.021 -10.986  0.00  0.00    +0.175 C 
ATOM     33  C   UNL     1      -1.908  -1.351 -10.319  0.00  0.00    +0.113 C 
ENDBRANCH  22  28
ENDBRANCH  21  22
ENDBRANCH  18  21
ENDBRANCH   7  18
BRANCH   1  35
ATOM     34  C   UNL     1      -0.042   1.064   0.180  0.00  0.00    +0.029 C 
ATOM     35  C   UNL     1       0.092  -0.455   0.060  0.00  0.00    +0.140 C 
ENDBRANCH   1  35
TORSDOF 6
