REMARK  Name = ZINC49600359
REMARK  6 active torsions:
REMARK  status: ('A' for Active; 'I' for Inactive)
REMARK    1  A    between atoms: C_6  and  O_7
REMARK    2  A    between atoms: O_7  and  C_8
REMARK    3  A    between atoms: C_8  and  C_9
REMARK    4  A    between atoms: C_9  and  S_10
REMARK    5  A    between atoms: S_10  and  C_11
REMARK    6  A    between atoms: C_15  and  N_20
REMARK                            x       y       z     vdW  Elec       q    Type
REMARK                         _______ _______ _______ _____ _____    ______ ____
ROOT
ATOM      1  C   UNL     1      -4.031  -5.081   0.015  0.00  0.00    +0.258 A 
ATOM      2  N   UNL     1      -4.417  -6.332   0.017  0.00  0.00    -0.203 NA
ATOM      3  C   UNL     1      -5.778  -6.369   0.029  0.00  0.00    +0.112 A 
ATOM      4  C   UNL     1      -6.712  -7.406   0.035  0.00  0.00    +0.054 A 
ATOM      5  C   UNL     1      -8.064  -7.110   0.046  0.00  0.00    +0.027 A 
ATOM      6  C   UNL     1      -8.492  -5.785   0.051  0.00  0.00    +0.026 A 
ATOM      7  C   UNL     1      -7.573  -4.755   0.044  0.00  0.00    +0.050 A 
ATOM      8  C   UNL     1      -6.217  -5.037   0.033  0.00  0.00    +0.156 A 
ATOM      9  O   UNL     1      -5.103  -4.268   0.030  0.00  0.00    -0.431 OA
ENDROOT
BRANCH   5  10
ATOM     10  N   UNL     1      -9.004  -8.146   0.053  0.00  0.00    -0.358 N 
ATOM     11  H   UNL     1      -8.708  -9.070   0.049  0.00  0.00    +0.142 HD
ATOM     12  H   UNL     1      -9.952  -7.941   0.061  0.00  0.00    +0.142 HD
ENDBRANCH   5  10
BRANCH   1  13
ATOM     13  S   UNL     1      -2.354  -4.541   0.001  0.00  0.00    -0.064 S 
BRANCH  13  14
ATOM     14  C   UNL     1      -2.475  -2.731   0.012  0.00  0.00    +0.120 C 
BRANCH  14  15
ATOM     15  C   UNL     1      -1.070  -2.126   0.001  0.00  0.00    +0.240 C 
BRANCH  15  16
ATOM     16  O   UNL     1      -1.165  -0.701   0.010  0.00  0.00    -0.491 OA
BRANCH  16  22
ATOM     17  C   UNL     1      -0.017   1.383   0.010  0.00  0.00    +0.047 A 
ATOM     18  C   UNL     1       1.171   2.089   0.002  0.00  0.00    +0.019 A 
ATOM     19  C   UNL     1       2.378   1.414  -0.013  0.00  0.00    +0.018 A 
ATOM     20  C   UNL     1       2.399   0.030  -0.022  0.00  0.00    +0.019 A 
ATOM     21  C   UNL     1       1.214  -0.679  -0.014  0.00  0.00    +0.047 A 
ATOM     22  C   UNL     1       0.002  -0.004   0.002  0.00  0.00    +0.121 A 
ATOM     23 BR   UNL     1       4.002   2.383  -0.024  0.00  0.00    -0.050 Br
ENDBRANCH  16  22
ENDBRANCH  15  16
ENDBRANCH  14  15
ENDBRANCH  13  14
ENDBRANCH   1  13
TORSDOF 6
