REMARK  Name = ZINC07443501
REMARK  9 active torsions:
REMARK  status: ('A' for Active; 'I' for Inactive)
REMARK    1  A    between atoms: C_1  and  C_2
REMARK    2  A    between atoms: C_5  and  N_8
REMARK    3  A    between atoms: C_9  and  C_28
REMARK    4  A    between atoms: C_10  and  N_14
REMARK    5  A    between atoms: C_11  and  C_13
REMARK    6  A    between atoms: C_15  and  C_17
REMARK    7  A    between atoms: C_17  and  N_18
REMARK    8  A    between atoms: C_20  and  C_27
REMARK    9  A    between atoms: C_23  and  C_26
REMARK                            x       y       z     vdW  Elec       q    Type
REMARK                         _______ _______ _______ _____ _____    ______ ____
ROOT
ATOM      1  N   UNL     1      -0.557  -4.378   0.070  0.00  0.00    -0.235 N 
ATOM      2  C   UNL     1      -0.218  -5.203   1.097  0.00  0.00    +0.063 A 
ATOM      3  C   UNL     1       0.543  -6.203   0.584  0.00  0.00    +0.078 A 
ATOM      4  C   UNL     1       0.672  -5.981  -0.796  0.00  0.00    +0.082 A 
ATOM      5  N   UNL     1       0.010  -4.894  -1.102  0.00  0.00    -0.170 NA
ATOM      6  C   UNL     1       1.437  -6.849  -1.761  0.00  0.00    +0.069 C 
ATOM      7  C   UNL     1      -0.614  -5.037   2.542  0.00  0.00    +0.068 C 
ENDROOT
BRANCH   1  12
ATOM      8  C   UNL     1      -3.728   0.313   0.459  0.00  0.00    +0.044 C 
ATOM      9  C   UNL     1      -2.886  -0.932   0.356  0.00  0.00    -0.050 A 
ATOM     10  C   UNL     1      -1.841  -0.986  -0.548  0.00  0.00    +0.005 A 
ATOM     11  C   UNL     1      -1.067  -2.126  -0.645  0.00  0.00    +0.028 A 
ATOM     12  C   UNL     1      -1.340  -3.219   0.167  0.00  0.00    +0.066 A 
ATOM     13  C   UNL     1      -2.389  -3.162   1.074  0.00  0.00    +0.028 A 
ATOM     14  C   UNL     1      -3.156  -2.017   1.170  0.00  0.00    +0.005 A 
ENDBRANCH   1  12
BRANCH   3  15
ATOM     15  N   UNL     1       1.104  -7.273   1.307  0.00  0.00    -0.284 N 
ATOM     16  C   UNL     1       0.566  -8.505   1.214  0.00  0.00    +0.201 C 
ATOM     17  O   UNL     1      -0.344  -8.712   0.439  0.00  0.00    -0.278 OA
ATOM     18  H   UNL     1       1.878  -7.123   1.872  0.00  0.00    +0.155 HD
BRANCH  16  19
ATOM     19  C   UNL     1       1.094  -9.625   2.073  0.00  0.00    +0.019 C 
BRANCH  19  20
ATOM     20  N   UNL     1       0.346 -10.856   1.786  0.00  0.00    +0.386 N 
ATOM     21  C   UNL     1      -1.056 -10.680   2.182  0.00  0.00    -0.075 C 
ATOM     22  C   UNL     1      -1.856 -11.930   1.811  0.00  0.00    -0.031 C 
ATOM     23  C   UNL     1      -1.267 -13.141   2.539  0.00  0.00    +0.003 C 
ATOM     24  C   UNL     1       0.215 -13.272   2.176  0.00  0.00    -0.031 C 
ATOM     25  C   UNL     1       0.939 -11.972   2.534  0.00  0.00    -0.075 C 
ATOM     26  C   UNL     1       0.833 -14.433   2.958  0.00  0.00    +0.005 C 
ATOM     27  C   UNL     1      -1.780 -12.155   0.300  0.00  0.00    +0.005 C 
ATOM     28  H   UNL     1       0.392 -11.053   0.797  0.00  0.00    -0.081 HD
ENDBRANCH  19  20
ENDBRANCH  16  19
ENDBRANCH   3  15
TORSDOF 4
