REMARK  Name = ZINC38574010
REMARK  7 active torsions:
REMARK  status: ('A' for Active; 'I' for Inactive)
REMARK    1  A    between atoms: C_1  and  C_2
REMARK    2  A    between atoms: C_3  and  C_9
REMARK    3  A    between atoms: C_4  and  O_8
REMARK    4  A    between atoms: C_9  and  C_11
REMARK    5  A    between atoms: C_9  and  C_17
REMARK    6  A    between atoms: C_17  and  C_18
REMARK    7  A    between atoms: C_17  and  C_20
REMARK                            x       y       z     vdW  Elec       q    Type
REMARK                         _______ _______ _______ _____ _____    ______ ____
ROOT
ATOM      1  C   UNL     1      -2.530  -0.346   0.013  0.00  0.00    +0.082 C 
ENDROOT
BRANCH   1   4
ATOM      2  C   UNL     1      -0.018   1.503   0.010  0.00  0.00    +0.067 C 
ATOM      3  C   UNL     1       0.002  -0.004   0.002  0.00  0.00    +0.064 C 
ATOM      4  C   UNL     1      -1.086  -0.777   0.003  0.00  0.00    +0.014 C 
ATOM      5  C   UNL     1      -0.531  -2.190  -0.007  0.00  0.00    +0.283 C 
ATOM      6  N   UNL     1       0.926  -1.973  -0.013  0.00  0.00    -0.151 NA
ATOM      7  N   UNL     1       1.125  -0.756  -0.013  0.00  0.00    -0.156 NA
BRANCH   5   8
ATOM      8  O   UNL     1      -0.935  -2.900   1.165  0.00  0.00    -0.366 OA
ATOM      9  H   UNL     1      -0.607  -3.809   1.207  0.00  0.00    +0.212 HD
ENDBRANCH   5   8
ENDBRANCH   1   4
BRANCH   1  10
ATOM     10  C   UNL     1      -3.221  -0.877  -1.217  0.00  0.00    -0.038 A 
ATOM     11  C   UNL     1      -3.285  -2.240  -1.440  0.00  0.00    +0.004 A 
ATOM     12  C   UNL     1      -3.918  -2.727  -2.568  0.00  0.00    +0.000 A 
ATOM     13  C   UNL     1      -4.488  -1.851  -3.473  0.00  0.00    +0.000 A 
ATOM     14  C   UNL     1      -4.425  -0.489  -3.250  0.00  0.00    +0.000 A 
ATOM     15  C   UNL     1      -3.795  -0.002  -2.120  0.00  0.00    +0.004 A 
ENDBRANCH   1  10
BRANCH   1  16
ATOM     16  C   UNL     1      -3.219  -0.899   1.262  0.00  0.00    +0.205 C 
BRANCH  16  17
ATOM     17  C   UNL     1      -2.545  -0.380   2.464  0.00  0.00    +0.082 C 
ATOM     18  N   UNL     1      -2.024   0.020   3.391  0.00  0.00    -0.195 NA
ENDBRANCH  16  17
BRANCH  16  19
ATOM     19  C   UNL     1      -4.630  -0.478   1.272  0.00  0.00    +0.082 C 
ATOM     20  N   UNL     1      -5.718  -0.154   1.279  0.00  0.00    -0.195 NA
ENDBRANCH  16  19
ENDBRANCH   1  16
TORSDOF 6
