REMARK  Name = ZINC38486698
REMARK  5 active torsions:
REMARK  status: ('A' for Active; 'I' for Inactive)
REMARK    1  A    between atoms: C_1  and  C_2
REMARK    2  A    between atoms: C_5  and  N_9
REMARK    3  A    between atoms: C_10  and  N_26
REMARK    4  A    between atoms: C_11  and  C_14
REMARK    5  A    between atoms: C_16  and  C_19
REMARK                            x       y       z     vdW  Elec       q    Type
REMARK                         _______ _______ _______ _____ _____    ______ ____
ROOT
ATOM      1  N   UNL     1       0.057  -4.174  -0.023  0.00  0.00    -0.198 N 
ATOM      2  C   UNL     1       0.695  -4.987   0.867  0.00  0.00    +0.150 A 
ATOM      3  C   UNL     1       0.435  -6.285   0.464  0.00  0.00    +0.159 A 
ATOM      4  N   UNL     1      -0.336  -6.237  -0.635  0.00  0.00    -0.125 NA
ATOM      5  N   UNL     1      -0.582  -5.013  -0.946  0.00  0.00    -0.058 NA
ENDROOT
BRANCH   1  10
ATOM      6  C   UNL     1      -0.018   1.503   0.010  0.00  0.00    +0.047 C 
ATOM      7  C   UNL     1       0.002  -0.004   0.002  0.00  0.00    -0.015 A 
ATOM      8  C   UNL     1       0.006  -0.688  -1.200  0.00  0.00    +0.008 A 
ATOM      9  C   UNL     1       0.024  -2.069  -1.211  0.00  0.00    +0.028 A 
ATOM     10  C   UNL     1       0.039  -2.772  -0.014  0.00  0.00    +0.072 A 
ATOM     11  C   UNL     1       0.036  -2.085   1.192  0.00  0.00    +0.066 A 
ATOM     12  C   UNL     1       0.023  -0.702   1.198  0.00  0.00    +0.128 A 
ATOM     13  F   UNL     1       0.025  -0.031   2.371  0.00  0.00    -0.205 F 
ENDBRANCH   1  10
BRANCH   3  14
ATOM     14  C   UNL     1       0.920  -7.511   1.127  0.00  0.00    +0.132 A 
ATOM     15  N   UNL     1       0.718  -8.778   0.798  0.00  0.00    -0.237 NA
ATOM     16  C   UNL     1       1.236  -9.762   1.514  0.00  0.00    +0.079 A 
ATOM     17  C   UNL     1       1.995  -9.467   2.614  0.00  0.00    +0.075 A 
ATOM     18  S   UNL     1       1.944  -7.680   2.583  0.00  0.00    -0.073 S 
BRANCH  16  19
ATOM     19  C   UNL     1       0.996 -11.174   1.127  0.00  0.00    +0.001 A 
ATOM     20  C   UNL     1       1.539 -12.209   1.888  0.00  0.00    +0.011 A 
ATOM     21  C   UNL     1       1.312 -13.521   1.524  0.00  0.00    +0.020 A 
ATOM     22  C   UNL     1       0.548 -13.810   0.407  0.00  0.00    +0.041 A 
ATOM     23  C   UNL     1       0.007 -12.786  -0.352  0.00  0.00    +0.020 A 
ATOM     24  C   UNL     1       0.223 -11.471   0.006  0.00  0.00    +0.011 A 
ATOM     25 CL   UNL     1       0.267 -15.463  -0.045  0.00  0.00    -0.084 Cl
ENDBRANCH  16  19
ENDBRANCH   3  14
BRANCH   2  26
ATOM     26  N   UNL     1       1.454  -4.591   1.958  0.00  0.00    -0.341 N 
ATOM     27  H   UNL     1       1.573  -3.648   2.150  0.00  0.00    +0.144 HD
ATOM     28  H   UNL     1       1.866  -5.258   2.530  0.00  0.00    +0.144 HD
ENDBRANCH   2  26
TORSDOF 4
