REMARK  Name = ZINC08087012
REMARK  10 active torsions:
REMARK  status: ('A' for Active; 'I' for Inactive)
REMARK    1  A    between atoms: C_1  and  C_2
REMARK    2  A    between atoms: C_4  and  C_32
REMARK    3  A    between atoms: C_5  and  N_9
REMARK    4  A    between atoms: C_6  and  C_8
REMARK    5  A    between atoms: C_10  and  C_12
REMARK    6  A    between atoms: C_12  and  N_13
REMARK    7  A    between atoms: N_13  and  C_14
REMARK    8  A    between atoms: C_15  and  C_17
REMARK    9  A    between atoms: C_17  and  N_18
REMARK   10  A    between atoms: C_26  and  C_28
REMARK                            x       y       z     vdW  Elec       q    Type
REMARK                         _______ _______ _______ _____ _____    ______ ____
ROOT
ATOM      1  N   UNL     1      -2.743  -1.319  -0.155  0.00  0.00    -0.294 N 
ATOM      2  C   UNL     1      -4.140  -1.577  -0.510  0.00  0.00    +0.132 C 
ATOM      3  C   UNL     1      -2.332  -0.060   0.096  0.00  0.00    +0.234 C 
ATOM      4  O   UNL     1      -1.175   0.154   0.390  0.00  0.00    -0.274 OA
ENDROOT
BRANCH   1   5
ATOM      5  C   UNL     1      -1.791  -2.430  -0.073  0.00  0.00    +0.203 C 
BRANCH   5   7
ATOM      6  N   UNL     1      -0.976  -4.015   1.643  0.00  0.00    -0.284 N 
ATOM      7  C   UNL     1      -1.782  -2.981   1.330  0.00  0.00    +0.235 C 
ATOM      8  O   UNL     1      -2.500  -2.494   2.177  0.00  0.00    -0.274 OA
ATOM      9  H   UNL     1      -0.441  -4.438   0.953  0.00  0.00    +0.155 HD
BRANCH   6  14
ATOM     10  C   UNL     1      -0.712  -5.891   6.990  0.00  0.00    +0.044 C 
ATOM     11  C   UNL     1      -0.782  -5.393   5.569  0.00  0.00    -0.050 A 
ATOM     12  C   UNL     1      -1.033  -6.280   4.538  0.00  0.00    +0.008 A 
ATOM     13  C   UNL     1      -1.098  -5.826   3.236  0.00  0.00    -0.029 A 
ATOM     14  C   UNL     1      -0.911  -4.478   2.961  0.00  0.00    +0.039 A 
ATOM     15  C   UNL     1      -0.655  -3.590   3.998  0.00  0.00    -0.029 A 
ATOM     16  C   UNL     1      -0.596  -4.049   5.300  0.00  0.00    +0.008 A 
ATOM     17  C   UNL     1      -0.447  -2.127   3.705  0.00  0.00    +0.045 C 
ATOM     18  C   UNL     1      -1.370  -6.794   2.113  0.00  0.00    +0.045 C 
ENDBRANCH   6  14
ENDBRANCH   5   7
ENDBRANCH   1   5
BRANCH   3  19
ATOM     19  C   UNL     1      -3.311   1.083   0.011  0.00  0.00    +0.213 C 
BRANCH  19  20
ATOM     20  N   UNL     1      -2.625   2.338   0.326  0.00  0.00    -0.215 N 
ATOM     21  C   UNL     1      -2.021   3.122  -0.591  0.00  0.00    +0.247 C 
ATOM     22  O   UNL     1      -1.944   2.929  -1.786  0.00  0.00    -0.273 OA
ATOM     23  C   UNL     1      -1.458   4.291   0.185  0.00  0.00    +0.115 C 
ATOM     24  C   UNL     1      -2.085   5.596  -0.292  0.00  0.00    +0.035 C 
ATOM     25  C   UNL     1      -1.524   6.763   0.524  0.00  0.00    +0.003 C 
ATOM     26  C   UNL     1      -0.004   6.817   0.357  0.00  0.00    +0.000 C 
ATOM     27  C   UNL     1       0.612   5.511   0.862  0.00  0.00    +0.006 C 
ATOM     28  C   UNL     1       0.060   4.339   0.048  0.00  0.00    +0.018 C 
ATOM     29  C   UNL     1       0.660   3.030   0.566  0.00  0.00    +0.010 C 
ATOM     30  N   UNL     1      -1.841   4.013   1.575  0.00  0.00    -0.285 N 
ATOM     31  C   UNL     1      -2.525   2.853   1.557  0.00  0.00    +0.310 C 
ATOM     32  O   UNL     1      -2.996   2.331   2.549  0.00  0.00    -0.252 OA
ATOM     33  H   UNL     1      -1.644   4.559   2.352  0.00  0.00    +0.151 HD
ENDBRANCH  19  20
ENDBRANCH   3  19
TORSDOF 5
