REMARK  Name = ZINC31646796
REMARK  6 active torsions:
REMARK  status: ('A' for Active; 'I' for Inactive)
REMARK    1  A    between atoms: C_1  and  O_2
REMARK    2  A    between atoms: O_2  and  C_3
REMARK    3  A    between atoms: C_3  and  C_5
REMARK    4  A    between atoms: C_9  and  N_10
REMARK    5  A    between atoms: C_11  and  C_13
REMARK    6  A    between atoms: C_13  and  N_14
REMARK                            x       y       z     vdW  Elec       q    Type
REMARK                         _______ _______ _______ _____ _____    ______ ____
ROOT
ATOM      1  N   UNL     1      -6.152   0.758   1.758  0.00  0.00    -0.278 N 
ATOM      2  C   UNL     1      -6.500   0.934   3.049  0.00  0.00    +0.236 C 
ATOM      3  O   UNL     1      -5.657   1.228   3.870  0.00  0.00    -0.274 OA
ATOM      4  H   UNL     1      -6.916   0.492   1.014  0.00  0.00    +0.155 HD
ENDROOT
BRANCH   1   9
ATOM      5  C   UNL     1      -4.282   0.773   0.102  0.00  0.00    +0.091 A 
ATOM      6  C   UNL     1      -2.851   0.990  -0.037  0.00  0.00    -0.021 A 
ATOM      7  C   UNL     1      -2.203   1.308   1.104  0.00  0.00    -0.004 A 
ATOM      8  S   UNL     1      -3.461   1.323   2.350  0.00  0.00    -0.077 S 
ATOM      9  C   UNL     1      -4.830   0.912   1.370  0.00  0.00    +0.086 A 
ATOM     10  C   UNL     1      -0.737   1.584   1.267  0.00  0.00    +0.043 C 
ATOM     11  C   UNL     1      -0.013   1.086   0.008  0.00  0.00    +0.005 C 
ATOM     12  C   UNL     1      -0.759   1.596  -1.228  0.00  0.00    +0.005 C 
ATOM     13  C   UNL     1      -2.102   0.875  -1.359  0.00  0.00    +0.037 C 
BRANCH   5  14
ATOM     14  C   UNL     1      -5.113   0.421  -1.051  0.00  0.00    +0.342 C 
ATOM     15  O   UNL     1      -5.285  -0.747  -1.343  0.00  0.00    -0.245 OA
BRANCH  14  17
ATOM     16  C   UNL     1      -6.499   0.972  -2.917  0.00  0.00    +0.280 C 
ATOM     17  O   UNL     1      -5.688   1.393  -1.789  0.00  0.00    -0.464 OA
ENDBRANCH  14  17
ENDBRANCH   5  14
ENDBRANCH   1   9
BRANCH   2  18
ATOM     18  C   UNL     1      -7.937   0.767   3.471  0.00  0.00    +0.214 C 
BRANCH  18  19
ATOM     19  N   UNL     1      -8.055   1.010   4.910  0.00  0.00    -0.215 N 
ATOM     20  C   UNL     1      -8.299   2.218   5.457  0.00  0.00    +0.248 C 
ATOM     21  O   UNL     1      -8.457   3.268   4.873  0.00  0.00    -0.273 OA
ATOM     22  C   UNL     1      -8.335   1.989   6.954  0.00  0.00    +0.122 C 
ATOM     23  C   UNL     1      -7.222   2.785   7.633  0.00  0.00    +0.047 C 
ATOM     24  C   UNL     1      -7.751   4.178   8.076  0.00  0.00    +0.072 C 
ATOM     25  S   UNL     1      -9.432   3.696   8.669  0.00  0.00    -0.158 S 
ATOM     26  C   UNL     1      -9.742   2.317   7.488  0.00  0.00    +0.104 C 
ATOM     27  N   UNL     1      -8.083   0.545   7.092  0.00  0.00    -0.284 N 
ATOM     28  C   UNL     1      -7.938   0.060   5.845  0.00  0.00    +0.310 C 
ATOM     29  O   UNL     1      -7.722  -1.110   5.596  0.00  0.00    -0.252 OA
ATOM     30  H   UNL     1      -8.048   0.086   8.091  0.00  0.00    +0.151 HD
ENDBRANCH  18  19
ENDBRANCH   2  18
TORSDOF 5
