REMARK  Name = ZINC39670939
REMARK  5 active torsions:
REMARK  status: ('A' for Active; 'I' for Inactive)
REMARK    1  A    between atoms: C_3  and  C_6
REMARK    2  A    between atoms: C_6  and  C_7
REMARK    3  A    between atoms: C_7  and  N_8
REMARK    4  A    between atoms: C_9  and  C_11
REMARK    5  A    between atoms: C_22  and  C_24
REMARK                            x       y       z     vdW  Elec       q    Type
REMARK                         _______ _______ _______ _____ _____    ______ ____
ROOT
ATOM      1  C   UNL     1       8.418   0.484   2.271  0.00  0.00    +0.100 C 
ATOM      2  C   UNL     1       8.648   1.841   1.568  0.00  0.00    +0.121 C 
ATOM      3  N   UNL     1       8.866   2.804   2.674  0.00  0.00    -0.296 N 
ATOM      4  C   UNL     1       9.685   2.055   3.658  0.00  0.00    +0.115 C 
ATOM      5  C   UNL     1       9.103   0.628   3.641  0.00  0.00    -0.004 C 
ATOM      6  C   UNL     1       8.082   0.463   4.762  0.00  0.00    -0.010 C 
ATOM      7  C   UNL     1       8.796   0.553   6.114  0.00  0.00    -0.082 C 
ATOM      8  N   UNL     1       9.820  -0.495   6.199  0.00  0.00    +0.379 N 
ATOM      9  C   UNL     1      10.848  -0.275   5.174  0.00  0.00    -0.082 C 
ATOM     10  C   UNL     1      10.221  -0.400   3.783  0.00  0.00    -0.010 C 
ATOM     11  C   UNL     1       8.420   4.072   2.765  0.00  0.00    +0.247 C 
ATOM     12  O   UNL     1       7.650   4.507   1.931  0.00  0.00    -0.270 OA
ATOM     13  H   UNL     1      10.248  -0.473   7.112  0.00  0.00    -0.086 HD
ATOM     14  H   UNL     1       9.390  -1.396   6.053  0.00  0.00    -0.086 HD
ENDROOT
BRANCH  11  15
ATOM     15  C   UNL     1       8.868   4.935   3.878  0.00  0.00    +0.037 A 
ATOM     16  C   UNL     1      10.041   4.631   4.572  0.00  0.00    +0.014 A 
ATOM     17  C   UNL     1      10.454   5.440   5.610  0.00  0.00    +0.016 A 
ATOM     18  C   UNL     1       9.707   6.551   5.964  0.00  0.00    +0.018 A 
ATOM     19  C   UNL     1       8.543   6.858   5.280  0.00  0.00    +0.016 A 
ATOM     20  C   UNL     1       8.123   6.060   4.237  0.00  0.00    +0.014 A 
ATOM     21 BR   UNL     1      10.280   7.655   7.389  0.00  0.00    -0.050 Br
ENDBRANCH  11  15
BRANCH   1  23
ATOM     22  N   UNL     1       6.490  -1.034   2.582  0.00  0.00    -0.315 N 
ATOM     23  C   UNL     1       6.943   0.228   2.446  0.00  0.00    +0.218 C 
ATOM     24  O   UNL     1       6.164   1.157   2.466  0.00  0.00    -0.275 OA
ATOM     25  H   UNL     1       7.114  -1.778   2.566  0.00  0.00    +0.149 HD
BRANCH  22  26
ATOM     26  C   UNL     1       5.057  -1.284   2.752  0.00  0.00    +0.112 C 
BRANCH  26  27
ATOM     27  C   UNL     1       4.813  -2.789   2.881  0.00  0.00    +0.093 C 
BRANCH  27  30
ATOM     28  C   UNL     1       1.193  -3.451   2.676  0.00  0.00    +0.041 A 
ATOM     29  C   UNL     1       2.453  -3.254   2.065  0.00  0.00    +0.044 A 
ATOM     30  C   UNL     1       3.338  -3.046   3.056  0.00  0.00    +0.106 A 
ATOM     31  O   UNL     1       2.686  -3.106   4.228  0.00  0.00    -0.468 OA
ATOM     32  C   UNL     1       1.384  -3.351   4.004  0.00  0.00    +0.195 A 
ENDBRANCH  27  30
ENDBRANCH  26  27
ENDBRANCH  22  26
ENDBRANCH   1  23
TORSDOF 5
