REMARK  Name = ZINC39684068
REMARK  9 active torsions:
REMARK  status: ('A' for Active; 'I' for Inactive)
REMARK    1  A    between atoms: C_1  and  C_2
REMARK    2  A    between atoms: C_7  and  C_11
REMARK    3  A    between atoms: C_11  and  C_12
REMARK    4  A    between atoms: C_12  and  N_13
REMARK    5  A    between atoms: C_14  and  C_16
REMARK    6  A    between atoms: C_27  and  C_29
REMARK    7  A    between atoms: C_34  and  O_35
REMARK    8  A    between atoms: O_35  and  C_36
REMARK    9  A    between atoms: C_36  and  C_38
REMARK                            x       y       z     vdW  Elec       q    Type
REMARK                         _______ _______ _______ _____ _____    ______ ____
ROOT
ATOM      1  C   UNL     1      -8.357   1.319  -6.200  0.00  0.00    +0.100 C 
ATOM      2  C   UNL     1      -8.002   2.573  -7.030  0.00  0.00    +0.121 C 
ATOM      3  N   UNL     1      -7.735   2.056  -8.393  0.00  0.00    -0.296 N 
ATOM      4  C   UNL     1      -8.758   1.002  -8.595  0.00  0.00    +0.115 C 
ATOM      5  C   UNL     1      -8.856   0.292  -7.230  0.00  0.00    -0.004 C 
ATOM      6  C   UNL     1     -10.304  -0.090  -6.937  0.00  0.00    -0.010 C 
ATOM      7  C   UNL     1     -10.759  -1.156  -7.938  0.00  0.00    -0.082 C 
ATOM      8  N   UNL     1      -9.889  -2.334  -7.831  0.00  0.00    +0.379 N 
ATOM      9  C   UNL     1      -8.515  -1.978  -8.205  0.00  0.00    -0.082 C 
ATOM     10  C   UNL     1      -7.965  -0.947  -7.215  0.00  0.00    -0.010 C 
ATOM     11  C   UNL     1      -6.778   2.455  -9.255  0.00  0.00    +0.250 C 
ATOM     12  O   UNL     1      -6.745   1.996 -10.381  0.00  0.00    -0.270 OA
ATOM     13  H   UNL     1      -9.900  -2.673  -6.880  0.00  0.00    -0.086 HD
ATOM     14  H   UNL     1     -10.228  -3.057  -8.447  0.00  0.00    -0.086 HD
ENDROOT
BRANCH  11  15
ATOM     15  C   UNL     1      -5.772   3.448  -8.833  0.00  0.00    +0.079 A 
ATOM     16  C   UNL     1      -6.125   4.479  -7.960  0.00  0.00    +0.017 A 
ATOM     17  C   UNL     1      -5.181   5.403  -7.569  0.00  0.00    +0.001 A 
ATOM     18  C   UNL     1      -3.880   5.314  -8.038  0.00  0.00    +0.004 A 
ATOM     19  C   UNL     1      -3.517   4.300  -8.902  0.00  0.00    +0.047 A 
ATOM     20  C   UNL     1      -4.454   3.358  -9.301  0.00  0.00    +0.144 A 
BRANCH  20  21
ATOM     21  O   UNL     1      -4.097   2.358 -10.146  0.00  0.00    -0.425 OA
BRANCH  21  22
ATOM     22  C   UNL     1      -3.715   1.187  -9.611  0.00  0.00    +0.309 C 
ATOM     23  O   UNL     1      -3.780   1.019  -8.416  0.00  0.00    -0.251 OA
ATOM     24  C   UNL     1      -3.202   0.084 -10.500  0.00  0.00    +0.136 C 
ENDBRANCH  21  22
ENDBRANCH  20  21
ENDBRANCH  11  15
BRANCH   1  26
ATOM     25  N   UNL     1      -7.265   0.150  -4.314  0.00  0.00    -0.315 N 
ATOM     26  C   UNL     1      -7.135   0.798  -5.489  0.00  0.00    +0.218 C 
ATOM     27  O   UNL     1      -6.035   0.962  -5.973  0.00  0.00    -0.275 OA
ATOM     28  H   UNL     1      -8.144   0.019  -3.927  0.00  0.00    +0.149 HD
BRANCH  25  29
ATOM     29  C   UNL     1      -6.077  -0.357  -3.622  0.00  0.00    +0.109 C 
BRANCH  29  30
ATOM     30  C   UNL     1      -6.499  -1.047  -2.323  0.00  0.00    +0.056 C 
BRANCH  30  37
ATOM     31  C   UNL     1      -1.345  -2.221   1.051  0.00  0.00    +0.046 C 
ATOM     32  C   UNL     1      -2.426  -1.275   0.595  0.00  0.00    -0.027 A 
ATOM     33  C   UNL     1      -2.443   0.026   1.049  0.00  0.00    +0.005 A 
ATOM     34  C   UNL     1      -3.433   0.906   0.637  0.00  0.00    +0.001 A 
ATOM     35  C   UNL     1      -4.409   0.498  -0.228  0.00  0.00    +0.010 A 
ATOM     36  C   UNL     1      -4.411  -0.815  -0.702  0.00  0.00    +0.003 A 
ATOM     37  C   UNL     1      -5.277  -1.568  -1.611  0.00  0.00    -0.021 A 
ATOM     38  C   UNL     1      -4.777  -2.811  -1.690  0.00  0.00    +0.087 A 
ATOM     39  N   UNL     1      -3.661  -2.916  -0.906  0.00  0.00    -0.360 N 
ATOM     40  C   UNL     1      -3.406  -1.710  -0.291  0.00  0.00    +0.050 A 
ATOM     41  H   UNL     1      -3.127  -3.719  -0.801  0.00  0.00    +0.165 HD
ENDBRANCH  30  37
ENDBRANCH  29  30
ENDBRANCH  25  29
ENDBRANCH   1  26
TORSDOF 7
