REMARK  Name = ZINC04090459
REMARK  2 active torsions:
REMARK  status: ('A' for Active; 'I' for Inactive)
REMARK    1  A    between atoms: C_3  and  C_6
REMARK    2  A    between atoms: C_6  and  C_8
REMARK                            x       y       z     vdW  Elec       q    Type
REMARK                         _______ _______ _______ _____ _____    ______ ____
ROOT
ATOM      1  C   UNL     1      -3.265   5.916   2.829  0.00  0.00    +0.078 C 
ATOM      2  C   UNL     1      -3.115   5.952   1.473  0.00  0.00    +0.039 C 
ATOM      3  C   UNL     1      -2.501   4.830   0.727  0.00  0.00    +0.003 A 
ATOM      4  C   UNL     1      -1.925   3.765   1.422  0.00  0.00    +0.059 A 
ATOM      5  C   UNL     1      -1.359   2.716   0.725  0.00  0.00    +0.167 A 
ATOM      6  C   UNL     1      -1.370   2.724  -0.671  0.00  0.00    +0.167 A 
ATOM      7  C   UNL     1      -1.944   3.784  -1.358  0.00  0.00    +0.054 A 
ATOM      8  C   UNL     1      -2.508   4.840  -0.669  0.00  0.00    -0.033 A 
ATOM      9  C   UNL     1      -3.113   5.982  -1.440  0.00  0.00    +0.054 C 
ATOM     10  C   UNL     1      -4.133   6.738  -0.589  0.00  0.00    +0.106 C 
ATOM     11  N   UNL     1      -3.531   7.043   0.720  0.00  0.00    -0.343 N 
ATOM     12  O   UNL     1      -0.759   1.588  -1.116  0.00  0.00    -0.453 OA
ATOM     13  C   UNL     1      -0.013   1.086   0.008  0.00  0.00    +0.466 C 
ATOM     14  O   UNL     1      -0.738   1.575   1.151  0.00  0.00    -0.453 OA
ATOM     15  H   UNL     1      -3.432   8.088   1.049  0.00  0.00    +0.146 HD
ENDROOT
BRANCH   1  16
ATOM     16  C   UNL     1      -3.854   7.005   3.502  0.00  0.00    +0.223 C 
ATOM     17  O   UNL     1      -4.231   7.980   2.872  0.00  0.00    -0.284 OA
BRANCH  16  20
ATOM     18  C   UNL     1      -4.518   7.493   7.062  0.00  0.00    +0.042 A 
ATOM     19  C   UNL     1      -4.567   7.948   5.734  0.00  0.00    +0.053 A 
ATOM     20  C   UNL     1      -4.016   6.967   4.963  0.00  0.00    +0.174 A 
ATOM     21  O   UNL     1      -3.650   5.953   5.774  0.00  0.00    -0.460 OA
ATOM     22  C   UNL     1      -3.946   6.269   7.042  0.00  0.00    +0.196 A 
ENDBRANCH  16  20
ENDBRANCH   1  16
TORSDOF 2
