REMARK  Name = ZINC42766925
REMARK  6 active torsions:
REMARK  status: ('A' for Active; 'I' for Inactive)
REMARK    1  A    between atoms: C_1  and  C_2
REMARK    2  A    between atoms: C_2  and  C_4
REMARK    3  A    between atoms: C_2  and  S_16
REMARK    4  A    between atoms: N_6  and  C_7
REMARK    5  A    between atoms: C_10  and  N_14
REMARK    6  A    between atoms: S_16  and  C_17
REMARK                            x       y       z     vdW  Elec       q    Type
REMARK                         _______ _______ _______ _____ _____    ______ ____
ROOT
ATOM      1  C   UNL     1       0.707  -0.492  -1.237  0.00  0.00    +0.230 C 
ATOM      2  O   UNL     1       0.066  -0.792  -2.222  0.00  0.00    -0.274 OA
ATOM      3  N   UNL     1       2.051  -0.601  -1.250  0.00  0.00    -0.284 N 
ATOM      4  H   UNL     1       2.569  -0.298  -0.487  0.00  0.00    +0.155 HD
ENDROOT
BRANCH   3   5
ATOM      5  C   UNL     1       2.699  -1.151  -2.364  0.00  0.00    +0.036 A 
ATOM      6  C   UNL     1       3.838  -1.926  -2.191  0.00  0.00    +0.045 A 
ATOM      7  C   UNL     1       4.478  -2.468  -3.289  0.00  0.00    +0.065 A 
ATOM      8  C   UNL     1       3.980  -2.238  -4.566  0.00  0.00    +0.062 A 
ATOM      9  C   UNL     1       2.841  -1.463  -4.738  0.00  0.00    +0.065 A 
ATOM     10  C   UNL     1       2.199  -0.925  -3.639  0.00  0.00    +0.045 A 
ATOM     11 CL   UNL     1       2.219  -1.175  -6.333  0.00  0.00    -0.082 Cl
ATOM     12 CL   UNL     1       5.902  -3.437  -3.074  0.00  0.00    -0.082 Cl
BRANCH   8  13
ATOM     13  N   UNL     1       4.628  -2.788  -5.679  0.00  0.00    -0.356 N 
ATOM     14  H   UNL     1       5.425  -3.329  -5.559  0.00  0.00    +0.142 HD
ATOM     15  H   UNL     1       4.281  -2.627  -6.571  0.00  0.00    +0.142 HD
ENDBRANCH   8  13
ENDBRANCH   3   5
BRANCH   1  17
ATOM     16  C   UNL     1      -0.020   1.532  -0.003  0.00  0.00    +0.029 C 
ATOM     17  C   UNL     1       0.003   0.002   0.000  0.00  0.00    +0.136 C 
BRANCH  17  18
ATOM     18  S   UNL     1      -1.698  -0.628   0.019  0.00  0.00    -0.085 S 
BRANCH  18  19
ATOM     19  C   UNL     1      -2.332  -0.095   1.575  0.00  0.00    +0.159 A 
ATOM     20  N   UNL     1      -1.751   0.608   2.538  0.00  0.00    -0.135 NA
ATOM     21  N   UNL     1      -2.359   0.906   3.603  0.00  0.00    -0.149 NA
ATOM     22  C   UNL     1      -3.604   0.540   3.826  0.00  0.00    +0.182 A 
ATOM     23  S   UNL     1      -3.949  -0.341   2.305  0.00  0.00    -0.048 S 
ENDBRANCH  18  19
ENDBRANCH  17  18
ENDBRANCH   1  17
TORSDOF 5
