REMARK  Name = ZINC49509376
REMARK  5 active torsions:
REMARK  status: ('A' for Active; 'I' for Inactive)
REMARK    1  A    between atoms: C_2  and  N_15
REMARK    2  A    between atoms: C_16  and  C_18
REMARK    3  A    between atoms: N_20  and  C_21
REMARK    4  A    between atoms: C_21  and  C_22
REMARK    5  A    between atoms: N_25  and  C_28
REMARK                            x       y       z     vdW  Elec       q    Type
REMARK                         _______ _______ _______ _____ _____    ______ ____
ROOT
ATOM      1  N   UNL     1       1.148   3.493   0.015  0.00  0.00    -0.278 N 
ATOM      2  C   UNL     1       2.301   4.186   0.109  0.00  0.00    +0.303 C 
ATOM      3  O   UNL     1       3.364   3.601   0.092  0.00  0.00    -0.265 OA
ATOM      4  H   UNL     1       0.303   3.965  -0.049  0.00  0.00    +0.155 HD
ENDROOT
BRANCH   1   6
ATOM      5  C   UNL     1       0.235   1.387  -0.732  0.00  0.00    +0.028 A 
ATOM      6  C   UNL     1       1.172   2.095   0.008  0.00  0.00    +0.034 A 
ATOM      7  C   UNL     1       2.132   1.412   0.742  0.00  0.00    +0.028 A 
ATOM      8  C   UNL     1       2.151   0.031   0.736  0.00  0.00    -0.023 A 
ATOM      9  C   UNL     1       1.208  -0.678   0.001  0.00  0.00    +0.043 A 
ATOM     10  C   UNL     1       0.252   0.004  -0.738  0.00  0.00    -0.024 A 
ATOM     11  C   UNL     1      -0.781  -0.727  -1.555  0.00  0.00    +0.038 C 
ATOM     12  C   UNL     1      -0.960  -2.154  -1.037  0.00  0.00    +0.024 C 
ATOM     13  C   UNL     1       0.418  -2.823  -0.954  0.00  0.00    +0.114 C 
ATOM     14  N   UNL     1       1.223  -2.079   0.024  0.00  0.00    -0.271 N 
ATOM     15  C   UNL     1       1.938  -2.748   0.944  0.00  0.00    +0.220 C 
ATOM     16  O   UNL     1       2.011  -3.958   0.881  0.00  0.00    -0.275 OA
ATOM     17  C   UNL     1       2.649  -2.018   2.050  0.00  0.00    +0.101 C 
ATOM     18  C   UNL     1       3.209  -0.698   1.523  0.00  0.00    +0.046 C 
ENDBRANCH   1   6
BRANCH   2  19
ATOM     19  C   UNL     1       2.269   5.674   0.235  0.00  0.00    +0.299 C 
ATOM     20  O   UNL     1       1.206   6.259   0.252  0.00  0.00    -0.265 OA
ATOM     21  N   UNL     1       3.421   6.367   0.329  0.00  0.00    -0.307 N 
ATOM     22  H   UNL     1       4.271   5.899   0.316  0.00  0.00    +0.149 HD
BRANCH  21  23
ATOM     23  C   UNL     1       3.390   7.826   0.453  0.00  0.00    +0.108 C 
BRANCH  23  24
ATOM     24  C   UNL     1       4.821   8.361   0.542  0.00  0.00    +0.003 C 
ATOM     25  C   UNL     1       5.472   7.867   1.838  0.00  0.00    -0.014 C 
ATOM     26  C   UNL     1       6.873   8.470   1.960  0.00  0.00    -0.078 C 
ATOM     27  N   UNL     1       6.780   9.934   1.984  0.00  0.00    +0.382 N 
ATOM     28  C   UNL     1       6.223  10.419   0.716  0.00  0.00    -0.078 C 
ATOM     29  C   UNL     1       4.796   9.892   0.546  0.00  0.00    -0.014 C 
ATOM     30  H   UNL     1       6.181  10.220   2.744  0.00  0.00    -0.081 HD
BRANCH  27  31
ATOM     31  C   UNL     1       8.119  10.506   2.179  0.00  0.00    -0.069 C 
ATOM     32  C   UNL     1       8.686  10.070   3.546  0.00  0.00    -0.015 C 
ATOM     33  C   UNL     1       9.458  11.314   4.051  0.00  0.00    -0.002 C 
ATOM     34  C   UNL     1       8.557  12.486   3.590  0.00  0.00    -0.002 C 
ATOM     35  C   UNL     1       8.038  12.042   2.207  0.00  0.00    -0.015 C 
ENDBRANCH  27  31
ENDBRANCH  23  24
ENDBRANCH  21  23
ENDBRANCH   2  19
TORSDOF 5
