REMARK  Name = ZINC16610156
REMARK  13 active torsions:
REMARK  status: ('A' for Active; 'I' for Inactive)
REMARK    1  A    between atoms: C_1  and  C_2
REMARK    2  A    between atoms: C_6  and  C_35
REMARK    3  A    between atoms: C_7  and  N_8
REMARK    4  A    between atoms: N_11  and  C_12
REMARK    5  A    between atoms: C_15  and  C_18
REMARK    6  A    between atoms: C_20  and  C_28
REMARK    7  A    between atoms: C_21  and  C_27
REMARK    8  A    between atoms: N_22  and  C_26
REMARK    9  A    between atoms: C_28  and  O_30
REMARK   10  A    between atoms: O_30  and  C_31
REMARK   11  A    between atoms: C_31  and  C_32
REMARK   12  A    between atoms: C_32  and  C_33
REMARK   13  A    between atoms: C_32  and  C_34
REMARK                            x       y       z     vdW  Elec       q    Type
REMARK                         _______ _______ _______ _____ _____    ______ ____
ROOT
ATOM      1  C   UNL     1       0.920   4.160   7.186  0.00  0.00    +0.035 A 
ATOM      2  C   UNL     1      -0.226   4.587   6.528  0.00  0.00    +0.024 A 
ATOM      3  C   UNL     1      -0.206   4.774   5.160  0.00  0.00    +0.007 A 
ATOM      4  C   UNL     1       0.954   4.537   4.445  0.00  0.00    -0.022 A 
ATOM      5  C   UNL     1       2.095   4.107   5.096  0.00  0.00    +0.007 A 
ATOM      6  C   UNL     1       2.083   3.923   6.465  0.00  0.00    +0.024 A 
ENDROOT
BRANCH   4   7
ATOM      7  C   UNL     1       0.972   4.742   2.952  0.00  0.00    +0.141 C 
ATOM      8  C   UNL     1       1.442   6.157   2.680  0.00  0.00    +0.078 C 
ATOM      9  C   UNL     1       2.546   6.317   1.918  0.00  0.00    +0.021 C 
ATOM     10  N   UNL     1       3.207   5.240   1.401  0.00  0.00    -0.289 N 
ATOM     11  C   UNL     1       2.836   3.971   1.609  0.00  0.00    +0.137 C 
ATOM     12  S   UNL     1       3.760   2.712   0.907  0.00  0.00    -0.018 S 
ATOM     13  N   UNL     1       1.759   3.651   2.353  0.00  0.00    -0.315 N 
ATOM     14  C   UNL     1       4.393   5.488   0.578  0.00  0.00    +0.137 C 
ATOM     15  C   UNL     1       3.052   7.706   1.627  0.00  0.00    +0.061 C 
ATOM     16  H   UNL     1       1.508   2.724   2.491  0.00  0.00    +0.149 HD
BRANCH   8  17
ATOM     17  C   UNL     1       0.753   7.271   3.212  0.00  0.00    +0.339 C 
ATOM     18  O   UNL     1       1.150   8.399   2.981  0.00  0.00    -0.245 OA
BRANCH  17  19
ATOM     19  O   UNL     1      -0.344   7.085   3.975  0.00  0.00    -0.461 OA
BRANCH  19  20
ATOM     20  C   UNL     1      -0.990   8.256   4.479  0.00  0.00    +0.235 C 
BRANCH  20  21
ATOM     21  C   UNL     1      -2.204   7.848   5.316  0.00  0.00    +0.020 C 
ATOM     22  C   UNL     1      -2.823   9.092   5.957  0.00  0.00    +0.010 C 
ATOM     23  C   UNL     1      -3.239   7.170   4.416  0.00  0.00    +0.010 C 
ENDBRANCH  20  21
ENDBRANCH  19  20
ENDBRANCH  17  19
ENDBRANCH   8  17
ENDBRANCH   4   7
BRANCH   1  27
ATOM     24  N   UNL     1       1.531   2.729  10.446  0.00  0.00    -0.269 N 
ATOM     25  C   UNL     1       1.621   2.972   9.124  0.00  0.00    +0.308 C 
ATOM     26  O   UNL     1       2.349   2.290   8.428  0.00  0.00    -0.252 OA
ATOM     27  N   UNL     1       0.904   3.970   8.572  0.00  0.00    -0.269 N 
ATOM     28  H   UNL     1       0.891   3.217  10.987  0.00  0.00    +0.156 HD
ATOM     29  H   UNL     1       0.376   4.557   9.136  0.00  0.00    +0.156 HD
BRANCH  24  36
ATOM     30  C   UNL     1       1.445   0.067   9.444  0.00  0.00    +0.045 C 
ATOM     31  C   UNL     1       2.352   0.461  10.582  0.00  0.00    -0.029 A 
ATOM     32  C   UNL     1       3.177  -0.480  11.166  0.00  0.00    +0.005 A 
ATOM     33  C   UNL     1       4.005  -0.120  12.213  0.00  0.00    +0.001 A 
ATOM     34  C   UNL     1       4.014   1.183  12.676  0.00  0.00    +0.005 A 
ATOM     35  C   UNL     1       3.195   2.130  12.092  0.00  0.00    -0.029 A 
ATOM     36  C   UNL     1       2.362   1.772  11.040  0.00  0.00    +0.041 A 
ATOM     37  C   UNL     1       3.204   3.550  12.597  0.00  0.00    +0.045 C 
ENDBRANCH  24  36
ENDBRANCH   1  27
TORSDOF 7
