REMARK  Name = ZINC59733287
REMARK  2 active torsions:
REMARK  status: ('A' for Active; 'I' for Inactive)
REMARK    1  A    between atoms: C_4  and  C_10
REMARK    2  A    between atoms: C_6  and  N_7
REMARK                            x       y       z     vdW  Elec       q    Type
REMARK                         _______ _______ _______ _____ _____    ______ ____
ROOT
ATOM      1  C   UNL     1       3.695  -0.686  -0.038  0.00  0.00    +0.248 C 
ATOM      2  O   UNL     1       2.636  -0.100   0.079  0.00  0.00    -0.270 OA
ATOM      3  N   UNL     1       3.713  -2.029  -0.147  0.00  0.00    -0.297 N 
ATOM      4  C   UNL     1       2.459  -2.787  -0.256  0.00  0.00    +0.110 C 
ATOM      5  C   UNL     1       2.438  -3.863   0.835  0.00  0.00    +0.054 C 
ATOM      6  C   UNL     1       3.707  -4.704   0.741  0.00  0.00    +0.115 C 
ATOM      7  C   UNL     1       4.947  -3.837   0.931  0.00  0.00    +0.054 C 
ATOM      8  C   UNL     1       4.987  -2.760  -0.166  0.00  0.00    +0.110 C 
ATOM      9  C   UNL     1       3.679  -5.816   1.764  0.00  0.00    +0.244 C 
ATOM     10  O   UNL     1       3.632  -5.703   2.970  0.00  0.00    -0.273 OA
ATOM     11  N   UNL     1       3.718  -6.962   1.052  0.00  0.00    -0.238 N 
ATOM     12  C   UNL     1       3.765  -6.723  -0.264  0.00  0.00    +0.307 C 
ATOM     13  O   UNL     1       3.806  -7.596  -1.109  0.00  0.00    -0.252 OA
ATOM     14  N   UNL     1       3.763  -5.406  -0.548  0.00  0.00    -0.285 N 
ATOM     15  H   UNL     1       3.713  -7.848   1.445  0.00  0.00    +0.159 HD
ATOM     16  H   UNL     1       3.792  -5.002  -1.429  0.00  0.00    +0.151 HD
ENDROOT
BRANCH   1  20
ATOM     17  C   UNL     1       7.338   1.498  -0.104  0.00  0.00    +0.034 A 
ATOM     18  C   UNL     1       6.455   1.664   0.948  0.00  0.00    +0.017 A 
ATOM     19  C   UNL     1       5.269   0.958   0.976  0.00  0.00    +0.026 A 
ATOM     20  C   UNL     1       4.962   0.074  -0.061  0.00  0.00    +0.052 A 
ATOM     21  C   UNL     1       5.858  -0.087  -1.120  0.00  0.00    +0.046 A 
ATOM     22  C   UNL     1       7.039   0.625  -1.135  0.00  0.00    +0.127 A 
ATOM     23  I   UNL     1       3.934   1.209   2.571  0.00  0.00    -0.043 I 
BRANCH  22  24
ATOM     24  N   UNL     1       7.990   0.454  -2.256  0.00  0.00    +0.056 N 
ATOM     25  O   UNL     1       9.025   1.078  -2.271  0.00  0.00    -0.126 OA
ATOM     26  O   UNL     1       7.731  -0.308  -3.158  0.00  0.00    -0.126 OA
ENDBRANCH  22  24
ENDBRANCH   1  20
TORSDOF 2
