REMARK  Name = ZINC12440312
REMARK  11 active torsions:
REMARK  status: ('A' for Active; 'I' for Inactive)
REMARK    1  A    between atoms: C_1  and  N_53
REMARK    2  A    between atoms: C_2  and  C_3
REMARK    3  A    between atoms: C_2  and  N_53
REMARK    4  A    between atoms: C_8  and  O_9
REMARK    5  A    between atoms: O_9  and  C_10
REMARK    6  A    between atoms: C_10  and  C_11
REMARK    7  A    between atoms: C_11  and  C_13
REMARK    8  A    between atoms: C_11  and  O_19
REMARK    9  A    between atoms: C_13  and  N_55
REMARK   10  A    between atoms: C_20  and  C_21
REMARK   11  A    between atoms: C_20  and  N_53
REMARK                            x       y       z     vdW  Elec       q    Type
REMARK                         _______ _______ _______ _____ _____    ______ ____
ROOT
ATOM      1  C   UNL     1       2.817   3.864  -0.467  0.00  0.00    -0.022 A 
ATOM      2  C   UNL     1       3.542   4.456   0.549  0.00  0.00    +0.005 A 
ATOM      3  C   UNL     1       4.836   4.884   0.316  0.00  0.00    +0.000 A 
ATOM      4  C   UNL     1       5.404   4.731  -0.935  0.00  0.00    +0.004 A 
ATOM      5  C   UNL     1       4.680   4.144  -1.956  0.00  0.00    +0.046 A 
ATOM      6  C   UNL     1       3.384   3.709  -1.724  0.00  0.00    +0.122 A 
ENDROOT
BRANCH   1   7
ATOM      7  C   UNL     1       1.408   3.392  -0.212  0.00  0.00    -0.039 C 
BRANCH   7   9
ATOM      8  C   UNL     1       2.123   1.597   1.246  0.00  0.00    -0.095 C 
ATOM      9  N   UNL     1       1.424   1.928  -0.013  0.00  0.00    +0.384 N 
ATOM     10  H   UNL     1       1.923   1.490  -0.796  0.00  0.00    -0.081 HD
BRANCH   9  11
ATOM     11  C   UNL     1       0.041   1.408   0.025  0.00  0.00    -0.023 C 
BRANCH  11  12
ATOM     12  C   UNL     1       0.087  -0.098   0.007  0.00  0.00    +0.020 A 
ATOM     13  C   UNL     1       0.035  -0.912   1.087  0.00  0.00    +0.042 A 
ATOM     14  C   UNL     1       0.105  -2.233   0.634  0.00  0.00    +0.134 A 
ATOM     15  N   UNL     1       0.197  -2.214  -0.671  0.00  0.00    -0.182 NA
ATOM     16  N   UNL     1       0.182  -0.878  -1.091  0.00  0.00    -0.283 N 
ATOM     17  H   UNL     1       0.234  -0.558  -2.037  0.00  0.00    +0.188 HD
ENDBRANCH  11  12
ENDBRANCH   9  11
ENDBRANCH   7   9
ENDBRANCH   1   7
BRANCH   6  18
ATOM     18  O   UNL     1       2.670   3.132  -2.726  0.00  0.00    -0.489 OA
BRANCH  18  19
ATOM     19  C   UNL     1       3.317   3.005  -3.993  0.00  0.00    +0.258 C 
BRANCH  19  20
ATOM     20  C   UNL     1       2.365   2.337  -4.988  0.00  0.00    +0.135 C 
BRANCH  20  21
ATOM     21  O   UNL     1       2.096   0.999  -4.565  0.00  0.00    -0.390 OA
ATOM     22  H   UNL     1       2.883   0.440  -4.504  0.00  0.00    +0.210 HD
ENDBRANCH  20  21
BRANCH  20  23
ATOM     23  C   UNL     1       3.010   2.314  -6.375  0.00  0.00    -0.044 C 
BRANCH  23  29
ATOM     24  C   UNL     1       2.818   1.171  -8.497  0.00  0.00    -0.068 C 
ATOM     25  C   UNL     1       1.955   0.142  -9.236  0.00  0.00    +0.050 C 
ATOM     26  S   UNL     1       0.440   0.970  -9.810  0.00  0.00    -0.164 S 
ATOM     27  C   UNL     1      -0.157   1.802  -8.305  0.00  0.00    +0.050 C 
ATOM     28  C   UNL     1       1.007   2.595  -7.699  0.00  0.00    -0.068 C 
ATOM     29  N   UNL     1       2.079   1.653  -7.306  0.00  0.00    +0.382 N 
ATOM     30  H   UNL     1       1.653   0.847  -6.834  0.00  0.00    -0.082 HD
ENDBRANCH  23  29
ENDBRANCH  20  23
ENDBRANCH  19  20
ENDBRANCH  18  19
ENDBRANCH   6  18
TORSDOF 10
