REMARK  Name = ZINC25667444
REMARK  8 active torsions:
REMARK  status: ('A' for Active; 'I' for Inactive)
REMARK    1  A    between atoms: C_1  and  C_2
REMARK    2  A    between atoms: C_4  and  O_5
REMARK    3  A    between atoms: C_14  and  C_16
REMARK    4  A    between atoms: C_22  and  C_24
REMARK    5  A    between atoms: C_24  and  N_25
REMARK    6  A    between atoms: C_26  and  O_28
REMARK    7  A    between atoms: O_28  and  C_29
REMARK    8  A    between atoms: C_29  and  C_30
REMARK                            x       y       z     vdW  Elec       q    Type
REMARK                         _______ _______ _______ _____ _____    ______ ____
ROOT
ATOM      1  C   UNL     1       0.346  -5.722   6.202  0.00  0.00    +0.162 C 
ATOM      2  C   UNL     1      -0.498  -6.992   5.917  0.00  0.00    +0.033 C 
ATOM      3  C   UNL     1       0.081  -7.447   4.551  0.00  0.00    +0.021 C 
ATOM      4  C   UNL     1       0.385  -6.111   3.842  0.00  0.00    +0.108 C 
ATOM      5  N   UNL     1       0.520  -5.083   4.885  0.00  0.00    -0.289 N 
ATOM      6  C   UNL     1       0.767  -3.776   4.673  0.00  0.00    +0.233 C 
ATOM      7  O   UNL     1       0.776  -3.001   5.605  0.00  0.00    -0.274 OA
ENDROOT
BRANCH   1  20
ATOM      8  C   UNL     1      -2.584  -1.117  13.252  0.00  0.00    +0.045 C 
ATOM      9  C   UNL     1      -3.191  -1.715  12.009  0.00  0.00    -0.033 A 
ATOM     10  C   UNL     1      -4.500  -1.517  11.707  0.00  0.00    +0.091 A 
ATOM     11  C   UNL     1      -5.045  -2.088  10.538  0.00  0.00    +0.285 A 
ATOM     12  O   UNL     1      -4.300  -2.830   9.703  0.00  0.00    -0.425 OA
ATOM     13  C   UNL     1      -2.993  -3.065   9.944  0.00  0.00    +0.141 A 
ATOM     14  C   UNL     1      -2.384  -2.526  11.094  0.00  0.00    +0.021 A 
ATOM     15  C   UNL     1      -1.029  -2.765  11.348  0.00  0.00    +0.013 A 
ATOM     16  C   UNL     1      -0.301  -3.529  10.482  0.00  0.00    +0.024 A 
ATOM     17  C   UNL     1      -0.896  -4.062   9.339  0.00  0.00    +0.037 A 
ATOM     18  C   UNL     1      -2.238  -3.833   9.072  0.00  0.00    +0.070 A 
ATOM     19  N   UNL     1      -0.137  -4.836   8.461  0.00  0.00    -0.284 N 
ATOM     20  C   UNL     1      -0.394  -4.801   7.138  0.00  0.00    +0.238 C 
ATOM     21  O   UNL     1      -1.221  -4.029   6.701  0.00  0.00    -0.273 OA
ATOM     22  H   UNL     1       0.671  -5.474   8.847  0.00  0.00    +0.155 HD
BRANCH  11  23
ATOM     23  O   UNL     1      -6.220  -1.903  10.279  0.00  0.00    -0.480 OA
ATOM     24  H   UNL     1      -6.659  -2.341   9.370  0.00  0.00    +0.295 HD
ENDBRANCH  11  23
ENDBRANCH   1  20
BRANCH   6  25
ATOM     25  C   UNL     1       1.032  -3.276   3.276  0.00  0.00    +0.203 C 
BRANCH  25  26
ATOM     26  N   UNL     1       1.270  -1.831   3.311  0.00  0.00    -0.273 N 
ATOM     27  C   UNL     1       1.530  -1.163   2.169  0.00  0.00    +0.401 C 
ATOM     28  O   UNL     1       1.567  -1.760   1.111  0.00  0.00    -0.226 OA
ATOM     29  H   UNL     1       1.237  -1.291   4.268  0.00  0.00    +0.153 HD
BRANCH  27  30
ATOM     30  O   UNL     1       1.749   0.165   2.201  0.00  0.00    -0.446 OA
BRANCH  30  31
ATOM     31  C   UNL     1       2.023   0.819   0.934  0.00  0.00    +0.269 C 
BRANCH  31  32
ATOM     32  C   UNL     1       2.241   2.292   1.166  0.00  0.00    -0.010 A 
ATOM     33  C   UNL     1       1.171   3.165   1.115  0.00  0.00    +0.007 A 
ATOM     34  C   UNL     1       1.369   4.516   1.331  0.00  0.00    +0.000 A 
ATOM     35  C   UNL     1       2.640   4.994   1.590  0.00  0.00    +0.000 A 
ATOM     36  C   UNL     1       3.711   4.122   1.636  0.00  0.00    +0.000 A 
ATOM     37  C   UNL     1       3.512   2.771   1.424  0.00  0.00    +0.007 A 
ENDBRANCH  31  32
ENDBRANCH  30  31
ENDBRANCH  27  30
ENDBRANCH  25  26
ENDBRANCH   6  25
TORSDOF 7
