REMARK  Name = ZINC22429255
REMARK  5 active torsions:
REMARK  status: ('A' for Active; 'I' for Inactive)
REMARK    1  A    between atoms: C_1  and  C_2
REMARK    2  A    between atoms: C_6  and  C_13
REMARK    3  A    between atoms: C_13  and  N_14
REMARK    4  A    between atoms: C_17  and  C_21
REMARK    5  A    between atoms: C_17  and  C_22
REMARK                            x       y       z     vdW  Elec       q    Type
REMARK                         _______ _______ _______ _____ _____    ______ ____
ROOT
ATOM      1  N   UNL     1       4.074  -1.135  -1.376  0.00  0.00    -0.220 N 
ATOM      2  C   UNL     1       3.639  -2.335  -1.810  0.00  0.00    +0.251 C 
ATOM      3  O   UNL     1       2.985  -3.145  -1.189  0.00  0.00    -0.272 OA
ATOM      4  C   UNL     1       4.137  -2.459  -3.236  0.00  0.00    +0.135 C 
ATOM      5  N   UNL     1       4.869  -1.201  -3.459  0.00  0.00    -0.281 N 
ATOM      6  C   UNL     1       4.777  -0.495  -2.318  0.00  0.00    +0.310 C 
ATOM      7  O   UNL     1       5.275   0.603  -2.160  0.00  0.00    -0.252 OA
ATOM      8  C   UNL     1       5.076  -3.660  -3.371  0.00  0.00    +0.047 C 
ATOM      9  H   UNL     1       5.353  -1.010  -4.428  0.00  0.00    +0.152 HD
ENDROOT
BRANCH   4  10
ATOM     10  C   UNL     1       2.984  -2.579  -4.199  0.00  0.00    -0.012 A 
ATOM     11  C   UNL     1       1.835  -3.248  -3.819  0.00  0.00    +0.010 A 
ATOM     12  C   UNL     1       0.773  -3.362  -4.697  0.00  0.00    +0.050 A 
ATOM     13  C   UNL     1       0.864  -2.805  -5.962  0.00  0.00    +0.162 A 
ATOM     14  C   UNL     1       2.017  -2.134  -6.343  0.00  0.00    +0.162 A 
ATOM     15  C   UNL     1       3.077  -2.016  -5.459  0.00  0.00    +0.055 A 
ATOM     16  O   UNL     1       2.098  -1.588  -7.591  0.00  0.00    -0.488 OA
ATOM     17  C   UNL     1       1.240  -0.473  -7.842  0.00  0.00    +0.232 C 
ATOM     18  C   UNL     1      -0.145  -0.942  -8.258  0.00  0.00    +0.082 C 
ATOM     19  C   UNL     1      -0.860  -1.696  -7.147  0.00  0.00    +0.232 C 
ATOM     20  O   UNL     1      -0.175  -2.912  -6.839  0.00  0.00    -0.488 OA
ENDBRANCH   4  10
BRANCH   1  21
ATOM     21  C   UNL     1       3.816  -0.601  -0.036  0.00  0.00    +0.154 C 
BRANCH  21  27
ATOM     22  C   UNL     1       0.221   2.157   4.831  0.00  0.00    +0.044 C 
ATOM     23  C   UNL     1       0.813   1.617   3.554  0.00  0.00    -0.047 A 
ATOM     24  C   UNL     1       2.044   0.978   3.585  0.00  0.00    +0.004 A 
ATOM     25  C   UNL     1       2.597   0.482   2.438  0.00  0.00    +0.012 A 
ATOM     26  C   UNL     1       1.916   0.620   1.224  0.00  0.00    +0.022 A 
ATOM     27  C   UNL     1       2.481   0.099  -0.024  0.00  0.00    -0.012 A 
ATOM     28  C   UNL     1       1.770   0.265  -1.168  0.00  0.00    +0.098 A 
ATOM     29  C   UNL     1       0.522   0.924  -1.129  0.00  0.00    +0.338 A 
ATOM     30  O   UNL     1      -0.106   1.066  -2.163  0.00  0.00    -0.245 OA
ATOM     31  O   UNL     1       0.011   1.399   0.017  0.00  0.00    -0.422 OA
ATOM     32  C   UNL     1       0.668   1.267   1.189  0.00  0.00    +0.140 A 
ATOM     33  C   UNL     1       0.125   1.764   2.368  0.00  0.00    +0.050 A 
ENDBRANCH  21  27
ENDBRANCH   1  21
TORSDOF 3
