REMARK  Name = ZINC16651131
REMARK  12 active torsions:
REMARK  status: ('A' for Active; 'I' for Inactive)
REMARK    1  A    between atoms: C_1  and  C_2
REMARK    2  A    between atoms: C_5  and  N_9
REMARK    3  A    between atoms: C_6  and  C_8
REMARK    4  A    between atoms: N_12  and  C_13
REMARK    5  A    between atoms: N_12  and  C_20
REMARK    6  A    between atoms: C_13  and  C_14
REMARK    7  A    between atoms: C_20  and  C_21
REMARK    8  A    between atoms: N_23  and  C_24
REMARK    9  A    between atoms: N_23  and  C_34
REMARK   10  A    between atoms: C_24  and  C_25
REMARK   11  A    between atoms: C_34  and  C_35
REMARK   12  A    between atoms: C_38  and  C_40
REMARK                            x       y       z     vdW  Elec       q    Type
REMARK                         _______ _______ _______ _____ _____    ______ ____
ROOT
ATOM      1  C   UNL     1      -2.193  -1.100   1.328  0.00  0.00    +0.205 C 
ENDROOT
BRANCH   1   5
ATOM      2  N   UNL     1      -3.101  -4.220   3.049  0.00  0.00    -0.269 N 
ATOM      3  C   UNL     1      -3.153  -3.150   2.231  0.00  0.00    +0.307 C 
ATOM      4  O   UNL     1      -4.115  -2.984   1.507  0.00  0.00    -0.252 OA
ATOM      5  N   UNL     1      -2.137  -2.264   2.217  0.00  0.00    -0.274 N 
ATOM      6  H   UNL     1      -2.300  -4.398   3.566  0.00  0.00    +0.156 HD
BRANCH   2  11
ATOM      7  C   UNL     1      -7.571  -7.689   3.467  0.00  0.00    +0.044 C 
ATOM      8  C   UNL     1      -6.384  -6.768   3.355  0.00  0.00    -0.050 A 
ATOM      9  C   UNL     1      -6.564  -5.455   2.960  0.00  0.00    +0.005 A 
ATOM     10  C   UNL     1      -5.478  -4.606   2.863  0.00  0.00    +0.024 A 
ATOM     11  C   UNL     1      -4.204  -5.076   3.151  0.00  0.00    +0.038 A 
ATOM     12  C   UNL     1      -4.026  -6.395   3.548  0.00  0.00    -0.029 A 
ATOM     13  C   UNL     1      -5.117  -7.237   3.648  0.00  0.00    +0.008 A 
ATOM     14  C   UNL     1      -2.645  -6.907   3.867  0.00  0.00    +0.045 C 
ENDBRANCH   2  11
BRANCH   5  15
ATOM     15  C   UNL     1      -0.978  -2.464   3.089  0.00  0.00    +0.141 C 
BRANCH  15  16
ATOM     16  C   UNL     1      -1.224  -1.772   4.431  0.00  0.00    +0.136 C 
ATOM     17  C   UNL     1       0.035  -1.863   5.322  0.00  0.00    +0.035 C 
ATOM     18  C   UNL     1      -0.527  -2.063   6.747  0.00  0.00    +0.031 C 
ATOM     19  C   UNL     1      -2.059  -2.070   6.549  0.00  0.00    +0.160 C 
ATOM     20  O   UNL     1      -2.252  -2.465   5.173  0.00  0.00    -0.375 OA
ENDBRANCH  15  16
ENDBRANCH   5  15
ENDBRANCH   1   5
BRANCH   1  21
ATOM     21  C   UNL     1      -2.853   0.049   2.046  0.00  0.00    +0.234 C 
ATOM     22  O   UNL     1      -3.238  -0.090   3.188  0.00  0.00    -0.274 OA
ATOM     23  N   UNL     1      -3.014   1.231   1.420  0.00  0.00    -0.289 N 
BRANCH  23  24
ATOM     24  C   UNL     1      -3.655   2.348   2.118  0.00  0.00    +0.143 C 
BRANCH  24  25
ATOM     25  C   UNL     1      -5.142   2.304   1.878  0.00  0.00    -0.026 A 
ATOM     26  C   UNL     1      -5.687   2.975   0.798  0.00  0.00    +0.009 A 
ATOM     27  C   UNL     1      -7.050   2.933   0.571  0.00  0.00    +0.050 A 
ATOM     28  C   UNL     1      -7.875   2.227   1.431  0.00  0.00    +0.166 A 
ATOM     29  C   UNL     1      -7.327   1.556   2.521  0.00  0.00    +0.167 A 
ATOM     30  C   UNL     1      -5.960   1.598   2.740  0.00  0.00    +0.054 A 
ATOM     31  O   UNL     1      -8.335   0.944   3.208  0.00  0.00    -0.453 OA
ATOM     32  C   UNL     1      -9.452   0.907   2.300  0.00  0.00    +0.466 C 
ATOM     33  O   UNL     1      -9.227   2.035   1.435  0.00  0.00    -0.453 OA
ENDBRANCH  24  25
ENDBRANCH  23  24
BRANCH  23  34
ATOM     34  C   UNL     1      -2.549   1.399   0.041  0.00  0.00    +0.182 C 
BRANCH  34  35
ATOM     35  C   UNL     1      -1.122   1.884   0.048  0.00  0.00    +0.122 A 
ATOM     36  C   UNL     1      -0.026   1.104   0.044  0.00  0.00    +0.046 A 
ATOM     37  C   UNL     1       1.092   1.969   0.048  0.00  0.00    +0.045 A 
ATOM     38  C   UNL     1       0.613   3.226   0.059  0.00  0.00    +0.102 A 
ATOM     39  O   UNL     1      -0.729   3.168   0.062  0.00  0.00    -0.463 OA
ATOM     40  C   UNL     1       1.440   4.485   0.066  0.00  0.00    +0.086 C 
ENDBRANCH  34  35
ENDBRANCH  23  34
ENDBRANCH   1  21
TORSDOF 9
