REMARK  Name = ZINC12242391
REMARK  9 active torsions:
REMARK  status: ('A' for Active; 'I' for Inactive)
REMARK    1  A    between atoms: C_1  and  C_2
REMARK    2  A    between atoms: C_9  and  O_13
REMARK    3  A    between atoms: O_13  and  C_14
REMARK    4  A    between atoms: C_15  and  C_16
REMARK    5  A    between atoms: C_15  and  N_58
REMARK    6  A    between atoms: N_18  and  C_19
REMARK    7  A    between atoms: N_18  and  C_20
REMARK    8  A    between atoms: C_20  and  C_21
REMARK    9  A    between atoms: C_21  and  C_22
REMARK                            x       y       z     vdW  Elec       q    Type
REMARK                         _______ _______ _______ _____ _____    ______ ____
ROOT
ATOM      1  C   UNL     1       5.911   3.982   0.494  0.00  0.00    +0.199 C 
ATOM      2  O   UNL     1       5.227   4.461  -0.386  0.00  0.00    -0.278 OA
ATOM      3  N   UNL     1       7.220   4.290   0.573  0.00  0.00    -0.306 N 
ATOM      4  C   UNL     1       8.046   3.711   1.636  0.00  0.00    +0.132 C 
ENDROOT
BRANCH   1   5
ATOM      5  C   UNL     1       5.295   3.042   1.499  0.00  0.00    +0.019 C 
BRANCH   5  17
ATOM      6  C   UNL     1       1.026   5.388   1.486  0.00  0.00    +0.050 C 
ATOM      7  C   UNL     1       1.656   4.008   1.286  0.00  0.00    +0.154 C 
ATOM      8  C   UNL     1       3.163   4.148   1.257  0.00  0.00    -0.033 C 
ATOM      9  C   UNL     1       3.680   2.182  -0.084  0.00  0.00    -0.038 C 
ATOM     10  C   UNL     1       2.381   1.401  -0.033  0.00  0.00    -0.022 A 
ATOM     11  C   UNL     1       2.402   0.021  -0.037  0.00  0.00    +0.009 A 
ATOM     12  C   UNL     1       1.212  -0.683  -0.016  0.00  0.00    +0.046 A 
ATOM     13  C   UNL     1       0.002  -0.004   0.002  0.00  0.00    +0.124 A 
ATOM     14  C   UNL     1      -0.017   1.383   0.010  0.00  0.00    +0.091 A 
ATOM     15  C   UNL     1       1.179   2.084   0.002  0.00  0.00    +0.126 A 
ATOM     16  O   UNL     1       1.174   3.445   0.060  0.00  0.00    -0.491 OA
ATOM     17  N   UNL     1       3.862   2.845   1.229  0.00  0.00    +0.391 N 
ATOM     18  H   UNL     1       3.466   2.243   1.960  0.00  0.00    -0.081 HD
BRANCH  13  19
ATOM     19  O   UNL     1      -1.166  -0.699   0.012  0.00  0.00    -0.495 OA
ATOM     20  C   UNL     1      -1.073  -2.125   0.003  0.00  0.00    +0.277 C 
ENDBRANCH  13  19
ENDBRANCH   5  17
ENDBRANCH   1   5
BRANCH   3  21
ATOM     21  C   UNL     1       7.819   5.203  -0.404  0.00  0.00    +0.115 C 
BRANCH  21  22
ATOM     22  C   UNL     1       7.712   6.640   0.110  0.00  0.00    +0.093 C 
BRANCH  22  23
ATOM     23  C   UNL     1       8.327   7.580  -0.895  0.00  0.00    +0.110 A 
ATOM     24  N   UNL     1       7.697   8.649  -1.450  0.00  0.00    -0.342 N 
ATOM     25  H   UNL     1       6.759   8.946  -1.266  0.00  0.00    +0.167 HD
ATOM     26  C   UNL     1       8.591   9.251  -2.314  0.00  0.00    +0.066 A 
ATOM     27  C   UNL     1       8.529  10.358  -3.150  0.00  0.00    +0.030 A 
ATOM     28  C   UNL     1       9.626  10.708  -3.907  0.00  0.00    +0.040 A 
ATOM     29  C   UNL     1      10.795   9.959  -3.841  0.00  0.00    +0.126 A 
ATOM     30  C   UNL     1      10.874   8.857  -3.017  0.00  0.00    +0.068 A 
ATOM     31  C   UNL     1       9.770   8.490  -2.243  0.00  0.00    +0.092 A 
ATOM     32  N   UNL     1       9.541   7.489  -1.355  0.00  0.00    -0.232 NA
ATOM     33  F   UNL     1      11.863  10.314  -4.589  0.00  0.00    -0.205 F 
ENDBRANCH  22  23
ENDBRANCH  21  22
ENDBRANCH   3  21
TORSDOF 6
