REMARK  Name = ZINC12079713
REMARK  6 active torsions:
REMARK  status: ('A' for Active; 'I' for Inactive)
REMARK    1  A    between atoms: C_4  and  O_27
REMARK    2  A    between atoms: C_5  and  C_7
REMARK    3  A    between atoms: C_7  and  N_54
REMARK    4  A    between atoms: C_11  and  C_14
REMARK    5  A    between atoms: C_14  and  N_15
REMARK    6  A    between atoms: C_17  and  C_20
REMARK                            x       y       z     vdW  Elec       q    Type
REMARK                         _______ _______ _______ _____ _____    ______ ____
ROOT
ATOM      1  C   UNL     1      -0.195   3.594   2.035  0.00  0.00    -0.078 C 
ATOM      2  C   UNL     1      -0.205   3.982   3.515  0.00  0.00    -0.018 C 
ATOM      3  C   UNL     1      -0.103   5.505   3.639  0.00  0.00    +0.002 C 
ATOM      4  C   UNL     1       1.173   5.982   2.939  0.00  0.00    -0.006 C 
ATOM      5  C   UNL     1       1.144   5.535   1.476  0.00  0.00    -0.073 C 
ATOM      6  N   UNL     1       1.069   4.059   1.426  0.00  0.00    +0.383 N 
ATOM      7  H   UNL     1       1.858   3.668   1.955  0.00  0.00    -0.081 HD
ENDROOT
BRANCH   6   8
ATOM      8  C   UNL     1       1.155   3.597   0.025  0.00  0.00    -0.039 C 
BRANCH   8  13
ATOM      9  C   UNL     1       0.695  -0.137  -0.294  0.00  0.00    +0.000 A 
ATOM     10  C   UNL     1       1.960  -0.602   0.015  0.00  0.00    +0.004 A 
ATOM     11  C   UNL     1       2.968   0.290   0.328  0.00  0.00    +0.045 A 
ATOM     12  C   UNL     1       2.709   1.654   0.332  0.00  0.00    +0.118 A 
ATOM     13  C   UNL     1       1.439   2.117   0.021  0.00  0.00    -0.022 A 
ATOM     14  C   UNL     1       0.435   1.221  -0.291  0.00  0.00    +0.005 A 
BRANCH  12  15
ATOM     15  O   UNL     1       3.697   2.533   0.645  0.00  0.00    -0.507 OA
ATOM     16  H   UNL     1       4.264   2.770  -0.101  0.00  0.00    +0.292 HD
ENDBRANCH  12  15
ENDBRANCH   8  13
ENDBRANCH   6   8
BRANCH   4  17
ATOM     17  C   UNL     1       1.253   7.508   3.006  0.00  0.00    +0.147 C 
BRANCH  17  18
ATOM     18  N   UNL     1       1.401   7.929   4.402  0.00  0.00    -0.251 N 
ATOM     19  C   UNL     1       2.380   8.706   4.907  0.00  0.00    +0.143 A 
ATOM     20  C   UNL     1       2.126   8.844   6.242  0.00  0.00    +0.167 A 
ATOM     21  N   UNL     1       1.013   8.151   6.537  0.00  0.00    -0.125 NA
ATOM     22  N   UNL     1       0.556   7.595   5.469  0.00  0.00    -0.065 NA
BRANCH  20  23
ATOM     23  C   UNL     1       2.939   9.618   7.199  0.00  0.00    +0.268 C 
ATOM     24  O   UNL     1       3.930  10.208   6.817  0.00  0.00    -0.268 OA
ATOM     25  N   UNL     1       2.582   9.671   8.498  0.00  0.00    -0.296 N 
ATOM     26  C   UNL     1       1.409   9.013   9.092  0.00  0.00    +0.108 C 
ATOM     27  C   UNL     1       1.393   9.373  10.593  0.00  0.00    +0.020 C 
ATOM     28  C   UNL     1       2.231  10.678  10.644  0.00  0.00    +0.020 C 
ATOM     29  C   UNL     1       3.300  10.404   9.557  0.00  0.00    +0.108 C 
ENDBRANCH  20  23
ENDBRANCH  17  18
ENDBRANCH   4  17
TORSDOF 6
