REMARK  Name = ZINC37125450
REMARK  6 active torsions:
REMARK  status: ('A' for Active; 'I' for Inactive)
REMARK    1  A    between atoms: C_1  and  C_2
REMARK    2  A    between atoms: C_9  and  C_16
REMARK    3  A    between atoms: C_11  and  O_12
REMARK    4  A    between atoms: C_16  and  O_17
REMARK    5  A    between atoms: O_17  and  C_18
REMARK    6  A    between atoms: C_18  and  C_20
REMARK                            x       y       z     vdW  Elec       q    Type
REMARK                         _______ _______ _______ _____ _____    ______ ____
ROOT
ATOM      1  C   UNL     1       4.775  -6.688   5.016  0.00  0.00    +0.109 C 
ATOM      2  C   UNL     1       3.671  -6.660   3.991  0.00  0.00    +0.214 C 
ATOM      3  O   UNL     1       2.593  -6.165   4.270  0.00  0.00    -0.276 OA
ATOM      4  N   UNL     1       3.870  -7.173   2.792  0.00  0.00    -0.286 N 
ATOM      5  C   UNL     1       2.922  -7.032   1.826  0.00  0.00    +0.037 A 
ATOM      6  C   UNL     1       2.954  -7.860   0.690  0.00  0.00    +0.024 A 
ATOM      7  C   UNL     1       2.013  -7.730  -0.282  0.00  0.00    +0.014 A 
ATOM      8  C   UNL     1       1.001  -6.763  -0.154  0.00  0.00    +0.024 A 
ATOM      9  C   UNL     1       0.014  -6.613  -1.151  0.00  0.00    +0.007 A 
ATOM     10  C   UNL     1      -0.958  -5.649  -0.977  0.00  0.00    +0.095 A 
ATOM     11  C   UNL     1      -0.949  -4.855   0.161  0.00  0.00    +0.285 A 
ATOM     12  O   UNL     1      -0.013  -5.000   1.104  0.00  0.00    -0.425 OA
ATOM     13  C   UNL     1       0.961  -5.927   0.984  0.00  0.00    +0.141 A 
ATOM     14  C   UNL     1       1.920  -6.071   1.970  0.00  0.00    +0.070 A 
ATOM     15  H   UNL     1       4.693  -7.649   2.600  0.00  0.00    +0.155 HD
ENDROOT
BRANCH  11  16
ATOM     16  O   UNL     1      -1.904  -3.918   0.319  0.00  0.00    -0.480 OA
ATOM     17  H   UNL     1      -1.825  -3.410   1.137  0.00  0.00    +0.295 HD
ENDBRANCH  11  16
BRANCH   9  18
ATOM     18  C   UNL     1       0.023  -7.486  -2.380  0.00  0.00    +0.268 C 
BRANCH  18  19
ATOM     19  O   UNL     1       0.080  -6.663  -3.547  0.00  0.00    -0.459 OA
BRANCH  19  20
ATOM     20  C   UNL     1       0.094  -7.290  -4.734  0.00  0.00    +0.314 C 
ATOM     21  O   UNL     1       0.059  -8.497  -4.780  0.00  0.00    -0.250 OA
BRANCH  20  22
ATOM     22  C   UNL     1       0.154  -6.489  -6.009  0.00  0.00    +0.070 C 
ATOM     23  C   UNL     1       1.430  -5.645  -6.022  0.00  0.00    +0.021 C 
ATOM     24  C   UNL     1       1.490  -4.831  -7.316  0.00  0.00    -0.008 C 
ATOM     25  C   UNL     1       1.495  -5.781  -8.515  0.00  0.00    +0.007 C 
ATOM     26  C   UNL     1       0.220  -6.625  -8.503  0.00  0.00    -0.008 C 
ATOM     27  C   UNL     1       0.159  -7.439  -7.209  0.00  0.00    +0.021 C 
ATOM     28  C   UNL     1      -1.001  -5.706  -8.585  0.00  0.00    +0.026 C 
ATOM     29  C   UNL     1      -1.006  -4.757  -7.386  0.00  0.00    +0.047 C 
ATOM     30  C   UNL     1       0.270  -3.912  -7.398  0.00  0.00    +0.026 C 
ATOM     31  C   UNL     1      -1.067  -5.570  -6.091  0.00  0.00    +0.041 C 
ATOM     32 CL   UNL     1      -2.445  -3.674  -7.483  0.00  0.00    -0.118 Cl
ENDBRANCH  20  22
ENDBRANCH  19  20
ENDBRANCH  18  19
ENDBRANCH   9  18
TORSDOF 5
