REMARK  Name = ZINC06421451
REMARK  4 active torsions:
REMARK  status: ('A' for Active; 'I' for Inactive)
REMARK    1  A    between atoms: C_1  and  O_2
REMARK    2  A    between atoms: O_2  and  C_3
REMARK    3  A    between atoms: C_4  and  C_10
REMARK    4  A    between atoms: C_8  and  O_9
REMARK                            x       y       z     vdW  Elec       q    Type
REMARK                         _______ _______ _______ _____ _____    ______ ____
ROOT
ATOM      1  C   UNL     1      -1.740  -0.403  -2.184  0.00  0.00    +0.096 C 
ATOM      2  C   UNL     1      -2.623  -1.624  -2.237  0.00  0.00    +0.045 C 
ATOM      3  C   UNL     1      -3.196  -1.993  -3.397  0.00  0.00    +0.113 C 
ATOM      4  C   UNL     1      -4.092  -3.206  -3.465  0.00  0.00    +0.075 C 
ATOM      5  C   UNL     1      -3.639  -4.241  -2.434  0.00  0.00    +0.016 C 
ATOM      6  C   UNL     1      -3.682  -3.596  -1.044  0.00  0.00    +0.080 C 
ATOM      7  C   UNL     1      -2.826  -2.358  -1.054  0.00  0.00    +0.163 C 
ATOM      8  O   UNL     1      -2.301  -1.987  -0.023  0.00  0.00    -0.292 OA
ATOM      9  O   UNL     1      -2.982  -1.289  -4.523  0.00  0.00    -0.464 OA
ATOM     10  C   UNL     1      -2.621   0.005  -4.460  0.00  0.00    +0.113 C 
ATOM     11  C   UNL     1      -2.014   0.495  -3.364  0.00  0.00    +0.045 C 
ATOM     12  C   UNL     1      -1.622   1.845  -3.286  0.00  0.00    +0.163 C 
ATOM     13  O   UNL     1      -1.088   2.255  -2.275  0.00  0.00    -0.292 OA
ATOM     14  C   UNL     1      -1.854   2.789  -4.435  0.00  0.00    +0.080 C 
ATOM     15  C   UNL     1      -1.853   1.990  -5.742  0.00  0.00    +0.016 C 
ATOM     16  C   UNL     1      -2.916   0.894  -5.644  0.00  0.00    +0.075 C 
ENDROOT
BRANCH   1  18
ATOM     17  C   UNL     1       0.487  -0.695  -1.073  0.00  0.00    +0.165 A 
ATOM     18  C   UNL     1      -0.295  -0.830  -2.209  0.00  0.00    +0.010 A 
ATOM     19  C   UNL     1       0.250  -1.358  -3.364  0.00  0.00    +0.008 A 
ATOM     20  C   UNL     1       1.575  -1.752  -3.390  0.00  0.00    +0.004 A 
ATOM     21  C   UNL     1       2.360  -1.621  -2.260  0.00  0.00    +0.049 A 
ATOM     22  C   UNL     1       1.822  -1.087  -1.100  0.00  0.00    +0.159 A 
BRANCH  17  24
ATOM     23  C   UNL     1       0.180   1.213   0.313  0.00  0.00    +0.277 C 
ATOM     24  O   UNL     1      -0.048  -0.175   0.065  0.00  0.00    -0.491 OA
ENDBRANCH  17  24
BRANCH  22  25
ATOM     25  O   UNL     1       2.595  -0.950   0.010  0.00  0.00    -0.503 OA
ATOM     26  H   UNL     1       2.586  -1.722   0.593  0.00  0.00    +0.292 HD
ENDBRANCH  22  25
ENDBRANCH   1  18
TORSDOF 3
