REMARK  Name = ZINC66948774
REMARK  7 active torsions:
REMARK  status: ('A' for Active; 'I' for Inactive)
REMARK    1  A    between atoms: C_1  and  N_2
REMARK    2  A    between atoms: N_2  and  C_3
REMARK    3  A    between atoms: N_2  and  C_4
REMARK    4  A    between atoms: C_4  and  C_5
REMARK    5  A    between atoms: C_12  and  C_14
REMARK    6  A    between atoms: C_14  and  C_15
REMARK    7  A    between atoms: C_15  and  N_16
REMARK                            x       y       z     vdW  Elec       q    Type
REMARK                         _______ _______ _______ _____ _____    ______ ____
ROOT
ATOM      1  C   UNL     1       0.665  -2.327  -3.152  0.00  0.00    +0.115 C 
ENDROOT
BRANCH   1   8
ATOM      2  C   UNL     1      -1.923  -0.214  -1.270  0.00  0.00    +0.059 C 
ATOM      3  C   UNL     1      -3.384  -0.664  -1.363  0.00  0.00    +0.021 C 
ATOM      4  C   UNL     1      -3.912  -0.382  -2.772  0.00  0.00    +0.003 C 
ATOM      5  C   UNL     1      -3.095  -1.177  -3.793  0.00  0.00    +0.019 C 
ATOM      6  C   UNL     1      -1.631  -0.732  -3.727  0.00  0.00    +0.108 C 
ATOM      7  N   UNL     1      -1.156  -0.862  -2.342  0.00  0.00    -0.300 N 
ATOM      8  C   UNL     1      -0.041  -1.564  -2.061  0.00  0.00    +0.217 C 
ATOM      9  O   UNL     1       0.395  -1.582  -0.929  0.00  0.00    -0.276 OA
BRANCH   2  10
ATOM     10  C   UNL     1      -1.348  -0.618   0.089  0.00  0.00    -0.057 C 
BRANCH  10  12
ATOM     11  C   UNL     1      -3.261  -0.923   1.503  0.00  0.00    -0.097 C 
ATOM     12  N   UNL     1      -2.155  -0.020   1.161  0.00  0.00    +0.377 N 
ATOM     13  C   UNL     1      -1.314   0.196   2.345  0.00  0.00    -0.097 C 
ATOM     14  H   UNL     1      -2.527   0.864   0.847  0.00  0.00    -0.083 HD
ENDBRANCH  10  12
ENDBRANCH   2  10
ENDBRANCH   1   8
BRANCH   1  15
ATOM     15  C   UNL     1       1.892  -3.031  -2.571  0.00  0.00    +0.127 C 
BRANCH  15  16
ATOM     16  N   UNL     1       2.578  -3.773  -3.632  0.00  0.00    -0.224 N 
ATOM     17  C   UNL     1       2.307  -5.054  -3.959  0.00  0.00    +0.247 C 
ATOM     18  O   UNL     1       1.481  -5.782  -3.451  0.00  0.00    -0.273 OA
ATOM     19  C   UNL     1       3.249  -5.389  -5.093  0.00  0.00    +0.113 C 
ATOM     20  C   UNL     1       2.462  -5.745  -6.349  0.00  0.00    +0.035 C 
ATOM     21  C   UNL     1       3.434  -6.051  -7.492  0.00  0.00    +0.003 C 
ATOM     22  C   UNL     1       4.342  -7.216  -7.090  0.00  0.00    +0.000 C 
ATOM     23  C   UNL     1       5.141  -6.834  -5.842  0.00  0.00    +0.003 C 
ATOM     24  C   UNL     1       4.176  -6.531  -4.693  0.00  0.00    +0.035 C 
ATOM     25  N   UNL     1       4.014  -4.152  -5.298  0.00  0.00    -0.285 N 
ATOM     26  C   UNL     1       3.548  -3.263  -4.401  0.00  0.00    +0.309 C 
ATOM     27  O   UNL     1       3.963  -2.125  -4.298  0.00  0.00    -0.252 OA
ATOM     28  H   UNL     1       4.715  -4.005  -5.952  0.00  0.00    +0.151 HD
ENDBRANCH  15  16
ENDBRANCH   1  15
TORSDOF 5
