REMARK  Name = ZINC09111192
REMARK  7 active torsions:
REMARK  status: ('A' for Active; 'I' for Inactive)
REMARK    1  A    between atoms: C_1  and  C_2
REMARK    2  A    between atoms: C_2  and  N_3
REMARK    3  A    between atoms: N_3  and  C_4
REMARK    4  A    between atoms: N_3  and  C_6
REMARK    5  A    between atoms: C_4  and  C_5
REMARK    6  A    between atoms: C_9  and  C_12
REMARK    7  A    between atoms: C_17  and  C_29
REMARK                            x       y       z     vdW  Elec       q    Type
REMARK                         _______ _______ _______ _____ _____    ______ ____
ROOT
ATOM      1  C   UNL     1       1.532  -6.314   0.727  0.00  0.00    +0.032 C 
ATOM      2  C   UNL     1       2.376  -6.545  -0.532  0.00  0.00    +0.088 C 
ATOM      3  C   UNL     1       2.675  -8.009  -0.645  0.00  0.00    +0.163 C 
ATOM      4  C   UNL     1       2.745  -8.858   0.485  0.00  0.00    +0.036 C 
ATOM      5  C   UNL     1       3.038 -10.300   0.147  0.00  0.00    +0.136 C 
ATOM      6  N   UNL     1       2.853 -11.222   1.248  0.00  0.00    -0.331 N 
ATOM      7  C   UNL     1       3.651 -11.153   2.388  0.00  0.00    +0.049 A 
ATOM      8  C   UNL     1       4.520 -12.177   2.727  0.00  0.00    +0.025 A 
ATOM      9  C   UNL     1       5.326 -12.044   3.845  0.00  0.00    +0.002 A 
ATOM     10  C   UNL     1       5.269 -10.897   4.616  0.00  0.00    +0.002 A 
ATOM     11  C   UNL     1       4.389  -9.879   4.289  0.00  0.00    +0.025 A 
ATOM     12  C   UNL     1       3.568 -10.020   3.184  0.00  0.00    +0.052 A 
ATOM     13  N   UNL     1       2.589  -9.087   2.863  0.00  0.00    -0.316 N 
ATOM     14  C   UNL     1       2.560  -8.359   1.718  0.00  0.00    +0.017 C 
ATOM     15  C   UNL     1       2.308  -6.873   1.917  0.00  0.00    +0.059 C 
ATOM     16  O   UNL     1       2.865  -8.485  -1.747  0.00  0.00    -0.292 OA
ATOM     17  H   UNL     1       2.162 -11.900   1.191  0.00  0.00    +0.147 HD
ATOM     18  H   UNL     1       1.875  -8.945   3.504  0.00  0.00    +0.152 HD
ENDROOT
BRANCH   5  19
ATOM     19  C   UNL     1       4.466 -10.401  -0.323  0.00  0.00    -0.023 A 
ATOM     20  C   UNL     1       4.741 -10.804  -1.616  0.00  0.00    +0.008 A 
ATOM     21  C   UNL     1       6.051 -10.896  -2.048  0.00  0.00    +0.038 A 
ATOM     22  C   UNL     1       7.088 -10.585  -1.184  0.00  0.00    +0.123 A 
ATOM     23  C   UNL     1       6.811 -10.182   0.111  0.00  0.00    +0.038 A 
ATOM     24  C   UNL     1       5.500 -10.085   0.539  0.00  0.00    +0.008 A 
ATOM     25  F   UNL     1       8.368 -10.675  -1.605  0.00  0.00    -0.205 F 
ENDBRANCH   5  19
BRANCH   1  29
ATOM     26  C   UNL     1       0.861  -2.131   1.275  0.00  0.00    +0.013 A 
ATOM     27  C   UNL     1      -0.213  -2.990   1.129  0.00  0.00    +0.022 A 
ATOM     28  C   UNL     1       0.004  -4.343   0.952  0.00  0.00    +0.006 A 
ATOM     29  C   UNL     1       1.295  -4.838   0.919  0.00  0.00    -0.043 A 
ATOM     30  C   UNL     1       2.368  -3.979   1.064  0.00  0.00    +0.006 A 
ATOM     31  C   UNL     1       2.151  -2.624   1.237  0.00  0.00    +0.022 A 
BRANCH  26  32
ATOM     32  N   UNL     1       0.641  -0.762   1.454  0.00  0.00    -0.394 NA
ATOM     33  H   UNL     1       1.527  -0.287   1.538  0.00  0.00    +0.126 HD
BRANCH  32  35
ATOM     34  C   UNL     1       0.788  -0.313  -0.949  0.00  0.00    +0.022 C 
ATOM     35  C   UNL     1      -0.093  -0.228   0.299  0.00  0.00    +0.081 C 
ENDBRANCH  32  35
BRANCH  32  36
ATOM     36  C   UNL     1      -0.146  -0.548   2.676  0.00  0.00    +0.081 C 
ATOM     37  C   UNL     1       0.672  -0.986   3.893  0.00  0.00    +0.022 C 
ENDBRANCH  32  36
ENDBRANCH  26  32
ENDBRANCH   1  29
TORSDOF 5
