REMARK  Name = ZINC02214163
REMARK  9 active torsions:
REMARK  status: ('A' for Active; 'I' for Inactive)
REMARK    1  A    between atoms: C_1  and  C_2
REMARK    2  A    between atoms: C_4  and  C_30
REMARK    3  A    between atoms: C_13  and  C_18
REMARK    4  A    between atoms: C_20  and  O_28
REMARK    5  A    between atoms: C_21  and  O_26
REMARK    6  A    between atoms: C_22  and  O_24
REMARK    7  A    between atoms: O_24  and  C_25
REMARK    8  A    between atoms: O_26  and  C_27
REMARK    9  A    between atoms: O_28  and  C_29
REMARK                            x       y       z     vdW  Elec       q    Type
REMARK                         _______ _______ _______ _____ _____    ______ ____
ROOT
ATOM      1  C   UNL     1      -4.832   4.244   0.570  0.00  0.00    +0.044 C 
ATOM      2  C   UNL     1      -3.583   3.449   0.292  0.00  0.00    -0.047 A 
ATOM      3  C   UNL     1      -3.640   2.062   0.283  0.00  0.00    +0.007 A 
ATOM      4  C   UNL     1      -2.516   1.325   0.033  0.00  0.00    -0.036 A 
ATOM      5  C   UNL     1      -1.309   1.974  -0.221  0.00  0.00    +0.067 A 
ATOM      6  C   UNL     1      -1.239   3.378  -0.210  0.00  0.00    +0.140 A 
ATOM      7  C   UNL     1      -2.397   4.107   0.048  0.00  0.00    +0.050 A 
ATOM      8  O   UNL     1      -0.074   4.005  -0.449  0.00  0.00    -0.450 OA
ATOM      9  C   UNL     1       1.082   3.362  -0.705  0.00  0.00    +0.199 A 
ATOM     10  C   UNL     1       1.141   2.008  -0.737  0.00  0.00    +0.072 A 
ATOM     11  C   UNL     1      -0.069   1.219  -0.490  0.00  0.00    +0.199 A 
ATOM     12  O   UNL     1      -0.054   0.001  -0.511  0.00  0.00    -0.287 OA
ATOM     13  C   UNL     1       2.564   1.623  -1.047  0.00  0.00    +0.142 C 
ATOM     14  N   UNL     1       3.303   2.885  -1.187  0.00  0.00    -0.298 N 
ATOM     15  C   UNL     1       2.439   3.895  -0.988  0.00  0.00    +0.281 C 
ATOM     16  O   UNL     1       2.727   5.074  -1.032  0.00  0.00    -0.267 OA
ATOM     17  C   UNL     1      -2.583  -0.180   0.025  0.00  0.00    +0.044 C 
ATOM     18  H   UNL     1       4.248   2.973  -1.387  0.00  0.00    +0.150 HD
ENDROOT
BRANCH  13  19
ATOM     19  C   UNL     1       3.139   0.808   0.082  0.00  0.00    -0.015 A 
ATOM     20  C   UNL     1       3.607   1.439   1.220  0.00  0.00    +0.055 A 
ATOM     21  C   UNL     1       4.132   0.691   2.263  0.00  0.00    +0.165 A 
ATOM     22  C   UNL     1       4.198  -0.693   2.159  0.00  0.00    +0.204 A 
ATOM     23  C   UNL     1       3.731  -1.323   1.012  0.00  0.00    +0.165 A 
ATOM     24  C   UNL     1       3.202  -0.569  -0.025  0.00  0.00    +0.055 A 
BRANCH  23  25
ATOM     25  O   UNL     1       3.792  -2.678   0.906  0.00  0.00    -0.491 OA
ATOM     26  C   UNL     1       3.293  -3.257  -0.301  0.00  0.00    +0.277 C 
ENDBRANCH  23  25
BRANCH  22  27
ATOM     27  O   UNL     1       4.718  -1.430   3.179  0.00  0.00    -0.488 OA
ATOM     28  C   UNL     1       6.123  -1.687   3.142  0.00  0.00    +0.277 C 
ENDBRANCH  22  27
BRANCH  21  29
ATOM     29  O   UNL     1       4.588   1.312   3.384  0.00  0.00    -0.491 OA
ATOM     30  C   UNL     1       4.489   2.738   3.421  0.00  0.00    +0.277 C 
ENDBRANCH  21  29
ENDBRANCH  13  19
TORSDOF 4
