REMARK  Name = ZINC13301219
REMARK  5 active torsions:
REMARK  status: ('A' for Active; 'I' for Inactive)
REMARK    1  A    between atoms: C_1  and  C_2
REMARK    2  A    between atoms: C_5  and  C_7
REMARK    3  A    between atoms: N_12  and  S_13
REMARK    4  A    between atoms: S_13  and  C_16
REMARK    5  A    between atoms: C_18  and  C_21
REMARK                            x       y       z     vdW  Elec       q    Type
REMARK                         _______ _______ _______ _____ _____    ______ ____
ROOT
ATOM      1  C   UNL     1       0.478   4.894  -4.270  0.00  0.00    +0.087 A 
ATOM      2  C   UNL     1      -0.689   4.743  -3.573  0.00  0.00    +0.077 A 
ATOM      3  S   UNL     1      -0.060   4.263  -1.970  0.00  0.00    -0.059 S 
ATOM      4  C   UNL     1       1.677   4.312  -2.384  0.00  0.00    +0.178 A 
ATOM      5  N   UNL     1       1.638   4.679  -3.652  0.00  0.00    -0.223 NA
ATOM      6  N   UNL     1       2.776   4.041  -1.585  0.00  0.00    -0.193 N 
ATOM      7  H   UNL     1       3.671   4.110  -1.952  0.00  0.00    +0.176 HD
ENDROOT
BRANCH   1  12
ATOM      8  C   UNL     1      -0.606   6.445  -9.580  0.00  0.00    +0.051 C 
ATOM      9  C   UNL     1      -0.063   6.041  -8.234  0.00  0.00    -0.013 A 
ATOM     10  C   UNL     1       1.228   5.880  -7.848  0.00  0.00    +0.011 A 
ATOM     11  C   UNL     1       1.499   5.506  -6.549  0.00  0.00    +0.018 A 
ATOM     12  C   UNL     1       0.452   5.298  -5.692  0.00  0.00    +0.038 A 
ATOM     13  S   UNL     1      -0.953   5.651  -6.736  0.00  0.00    -0.092 S 
ENDBRANCH   1  12
BRANCH   6  14
ATOM     14  S   UNL     1       2.561   3.601  -0.003  0.00  0.00    +0.080 S 
ATOM     15  O   UNL     1       1.660   4.543   0.562  0.00  0.00    -0.149 OA
ATOM     16  O   UNL     1       3.856   3.369   0.534  0.00  0.00    -0.149 OA
BRANCH  14  17
ATOM     17  C   UNL     1       1.731   2.046  -0.004  0.00  0.00    +0.147 A 
ATOM     18  C   UNL     1       2.267   0.811  -0.015  0.00  0.00    +0.051 A 
ATOM     19  C   UNL     1       1.350  -0.302  -0.013  0.00  0.00    +0.072 A 
ATOM     20  C   UNL     1       0.002  -0.004   0.002  0.00  0.00    +0.062 A 
ATOM     21  S   UNL     1      -0.021   1.727   0.011  0.00  0.00    -0.076 S 
BRANCH  19  22
ATOM     22  C   UNL     1       1.829  -1.692  -0.024  0.00  0.00    +0.387 C 
ATOM     23  O   UNL     1       3.022  -1.924  -0.036  0.00  0.00    -0.241 OA
ATOM     24  O   UNL     1       0.945  -2.710  -0.021  0.00  0.00    -0.241 OA
ENDBRANCH  19  22
ENDBRANCH  14  17
ENDBRANCH   6  14
TORSDOF 4
