REMARK  Name = ZINC29873870
REMARK  3 active torsions:
REMARK  status: ('A' for Active; 'I' for Inactive)
REMARK    1  A    between atoms: C_4  and  S_7
REMARK    2  A    between atoms: S_7  and  N_10
REMARK    3  A    between atoms: C_16  and  C_18
REMARK                            x       y       z     vdW  Elec       q    Type
REMARK                         _______ _______ _______ _____ _____    ______ ____
ROOT
ATOM      1  N   UNL     1       4.045  -0.782   1.564  0.00  0.00    -0.174 NA
ATOM      2  C   UNL     1       4.860   0.204   2.287  0.00  0.00    +0.128 C 
ATOM      3  C   UNL     1       4.212   0.469   3.652  0.00  0.00    +0.125 C 
ATOM      4  N   UNL     1       3.926  -0.821   4.295  0.00  0.00    -0.294 N 
ATOM      5  C   UNL     1       3.111  -1.808   3.571  0.00  0.00    +0.125 C 
ATOM      6  C   UNL     1       3.755  -2.070   2.209  0.00  0.00    +0.128 C 
ATOM      7  C   UNL     1       4.403  -1.096   5.525  0.00  0.00    +0.263 C 
ATOM      8  O   UNL     1       4.085  -2.128   6.084  0.00  0.00    -0.268 OA
ENDROOT
BRANCH   7   9
ATOM      9  C   UNL     1       5.309  -0.144   6.193  0.00  0.00    +0.105 A 
ATOM     10  C   UNL     1       4.778   0.857   6.939  0.00  0.00    +0.039 A 
ATOM     11  C   UNL     1       5.669   1.806   7.606  0.00  0.00    -0.011 A 
ATOM     12  C   UNL     1       5.176   2.854   8.386  0.00  0.00    +0.009 A 
ATOM     13  C   UNL     1       6.057   3.721   8.995  0.00  0.00    +0.001 A 
ATOM     14  C   UNL     1       7.427   3.563   8.840  0.00  0.00    +0.001 A 
ATOM     15  C   UNL     1       7.936   2.535   8.074  0.00  0.00    +0.014 A 
ATOM     16  C   UNL     1       7.065   1.646   7.450  0.00  0.00    +0.046 A 
ATOM     17  C   UNL     1       7.555   0.533   6.624  0.00  0.00    +0.257 A 
ATOM     18  O   UNL     1       8.751   0.365   6.468  0.00  0.00    -0.267 OA
ATOM     19  N   UNL     1       6.670  -0.302   6.045  0.00  0.00    -0.318 N 
ATOM     20  H   UNL     1       7.002  -1.036   5.505  0.00  0.00    +0.169 HD
ENDBRANCH   7   9
BRANCH   1  21
ATOM     21  S   UNL     1       3.459  -0.445   0.052  0.00  0.00    +0.061 S 
ATOM     22  O   UNL     1       3.224  -1.695  -0.580  0.00  0.00    -0.153 OA
ATOM     23  O   UNL     1       4.317   0.541  -0.505  0.00  0.00    -0.153 OA
BRANCH  21  27
ATOM     24  C   UNL     1      -0.586   1.514   0.589  0.00  0.00    +0.000 A 
ATOM     25  C   UNL     1       0.557   2.290   0.544  0.00  0.00    +0.002 A 
ATOM     26  C   UNL     1       1.792   1.692   0.380  0.00  0.00    +0.028 A 
ATOM     27  C   UNL     1       1.885   0.318   0.262  0.00  0.00    +0.105 A 
ATOM     28  C   UNL     1       0.742  -0.458   0.308  0.00  0.00    +0.028 A 
ATOM     29  C   UNL     1      -0.494   0.140   0.470  0.00  0.00    +0.002 A 
ENDBRANCH  21  27
ENDBRANCH   1  21
TORSDOF 3
