REMARK  Name = ZINC19445417
REMARK  10 active torsions:
REMARK  status: ('A' for Active; 'I' for Inactive)
REMARK    1  A    between atoms: C_1  and  C_2
REMARK    2  A    between atoms: C_2  and  C_3
REMARK    3  A    between atoms: C_2  and  C_4
REMARK    4  A    between atoms: C_4  and  C_6
REMARK    5  A    between atoms: C_4  and  N_22
REMARK    6  A    between atoms: C_13  and  C_15
REMARK    7  A    between atoms: N_22  and  C_23
REMARK    8  A    between atoms: C_23  and  C_24
REMARK    9  A    between atoms: C_29  and  O_30
REMARK   10  A    between atoms: O_30  and  C_31
REMARK                            x       y       z     vdW  Elec       q    Type
REMARK                         _______ _______ _______ _____ _____    ______ ____
ROOT
ATOM      1  C   UNL     1      -2.030   0.279  -1.134  0.00  0.00    +0.009 A 
ATOM      2  C   UNL     1      -2.913   1.304  -1.157  0.00  0.00    +0.091 A 
ATOM      3  C   UNL     1      -3.424   1.762  -2.388  0.00  0.00    +0.275 A 
ATOM      4  N   UNL     1      -3.031   1.177  -3.536  0.00  0.00    -0.180 N 
ATOM      5  C   UNL     1      -2.140   0.143  -3.506  0.00  0.00    +0.138 A 
ATOM      6  N   UNL     1      -1.633  -0.303  -2.300  0.00  0.00    -0.345 N 
ATOM      7  C   UNL     1      -1.927  -0.249  -4.793  0.00  0.00    +0.071 A 
ATOM      8  C   UNL     1      -2.704   0.562  -5.622  0.00  0.00    +0.069 A 
ATOM      9  N   UNL     1      -3.364   1.413  -4.876  0.00  0.00    -0.167 NA
ATOM     10  O   UNL     1      -4.220   2.684  -2.413  0.00  0.00    -0.266 OA
ATOM     11  H   UNL     1      -0.998  -1.036  -2.283  0.00  0.00    +0.167 HD
ENDROOT
BRANCH   8  12
ATOM     12  C   UNL     1      -2.773   0.473  -7.125  0.00  0.00    +0.044 C 
ATOM     13  C   UNL     1      -2.640  -0.990  -7.558  0.00  0.00    +0.038 C 
ATOM     14  C   UNL     1      -2.632  -1.062  -9.088  0.00  0.00    +0.160 C 
ATOM     15  O   UNL     1      -1.561  -0.263  -9.595  0.00  0.00    -0.380 OA
ATOM     16  C   UNL     1      -1.658   1.123  -9.261  0.00  0.00    +0.160 C 
ATOM     17  C   UNL     1      -1.627   1.283  -7.739  0.00  0.00    +0.038 C 
ENDBRANCH   8  12
BRANCH   1  18
ATOM     18  C   UNL     1      -1.480  -0.213   0.180  0.00  0.00    -0.021 C 
BRANCH  18  20
ATOM     19  C   UNL     1       0.280   1.555   0.049  0.00  0.00    +0.006 C 
ATOM     20  C   UNL     1       0.025   0.058   0.237  0.00  0.00    -0.026 C 
ATOM     21  C   UNL     1       0.572  -0.386   1.595  0.00  0.00    +0.006 C 
ENDBRANCH  18  20
BRANCH  18  22
ATOM     22  N   UNL     1      -1.722  -1.657   0.302  0.00  0.00    +0.387 N 
ATOM     23  H   UNL     1      -1.343  -2.131  -0.504  0.00  0.00    -0.084 HD
ATOM     24  H   UNL     1      -1.275  -2.003   1.137  0.00  0.00    -0.084 HD
BRANCH  22  25
ATOM     25  C   UNL     1      -3.168  -1.906   0.381  0.00  0.00    -0.042 C 
BRANCH  25  26
ATOM     26  C   UNL     1      -3.417  -3.388   0.483  0.00  0.00    -0.023 A 
ATOM     27  C   UNL     1      -3.783  -4.107  -0.639  0.00  0.00    +0.005 A 
ATOM     28  C   UNL     1      -4.012  -5.467  -0.546  0.00  0.00    +0.000 A 
ATOM     29  C   UNL     1      -3.876  -6.112   0.670  0.00  0.00    +0.004 A 
ATOM     30  C   UNL     1      -3.510  -5.398   1.795  0.00  0.00    +0.046 A 
ATOM     31  C   UNL     1      -3.275  -4.034   1.703  0.00  0.00    +0.121 A 
BRANCH  31  32
ATOM     32  O   UNL     1      -2.909  -3.331   2.807  0.00  0.00    -0.495 OA
ATOM     33  C   UNL     1      -2.781  -4.061   4.028  0.00  0.00    +0.277 C 
ENDBRANCH  31  32
ENDBRANCH  25  26
ENDBRANCH  22  25
ENDBRANCH  18  22
ENDBRANCH   1  18
TORSDOF 7
