REMARK  Name = ZINC32952851
REMARK  5 active torsions:
REMARK  status: ('A' for Active; 'I' for Inactive)
REMARK    1  A    between atoms: C_5  and  C_7
REMARK    2  A    between atoms: C_7  and  N_8
REMARK    3  A    between atoms: C_9  and  C_11
REMARK    4  A    between atoms: C_11  and  C_12
REMARK    5  A    between atoms: C_12  and  C_13
REMARK                            x       y       z     vdW  Elec       q    Type
REMARK                         _______ _______ _______ _____ _____    ______ ____
ROOT
ATOM      1  C   UNL     1      -3.459   3.938   0.034  0.00  0.00    +0.111 A 
ATOM      2  N   UNL     1      -3.654   2.595   0.048  0.00  0.00    -0.310 N 
ATOM      3  H   UNL     1      -4.676   2.187   0.064  0.00  0.00    +0.170 HD
ATOM      4  C   UNL     1      -2.617   1.736   0.043  0.00  0.00    +0.260 A 
ATOM      5  O   UNL     1      -2.808   0.532   0.057  0.00  0.00    -0.267 OA
ATOM      6  C   UNL     1      -1.284   2.262   0.020  0.00  0.00    +0.075 A 
ATOM      7  C   UNL     1      -0.019   1.522   0.010  0.00  0.00    -0.023 A 
ATOM      8  C   UNL     1       1.113   2.257   0.004  0.00  0.00    -0.004 A 
ATOM      9  S   UNL     1       0.569   3.945  -0.009  0.00  0.00    -0.073 S 
ATOM     10  C   UNL     1      -1.182   3.661   0.011  0.00  0.00    +0.116 A 
ATOM     11  N   UNL     1      -2.255   4.447   0.017  0.00  0.00    -0.227 NA
ATOM     12  C   UNL     1       2.527   1.764   0.011  0.00  0.00    +0.043 C 
ATOM     13  C   UNL     1       2.695   0.685  -1.067  0.00  0.00    +0.005 C 
ATOM     14  C   UNL     1       2.377  -0.670  -0.443  0.00  0.00    +0.001 C 
ATOM     15  C   UNL     1       1.296  -0.513   0.625  0.00  0.00    +0.005 C 
ATOM     16  C   UNL     1       0.002  -0.004   0.002  0.00  0.00    +0.037 C 
ENDROOT
BRANCH   1  17
ATOM     17  C   UNL     1      -4.651   4.859   0.040  0.00  0.00    +0.083 C 
BRANCH  17  18
ATOM     18  C   UNL     1      -4.173   6.313   0.022  0.00  0.00    +0.103 C 
BRANCH  18  20
ATOM     19  N   UNL     1      -5.186   8.569   0.014  0.00  0.00    -0.311 N 
ATOM     20  C   UNL     1      -5.366   7.234   0.027  0.00  0.00    +0.214 C 
ATOM     21  O   UNL     1      -6.488   6.773   0.044  0.00  0.00    -0.276 OA
ATOM     22  H   UNL     1      -4.168   8.987  -0.001  0.00  0.00    +0.149 HD
BRANCH  19  23
ATOM     23  C   UNL     1      -6.345   9.465   0.019  0.00  0.00    +0.142 C 
BRANCH  23  28
ATOM     24  C   UNL     1      -5.411  12.941   1.159  0.00  0.00    +0.000 A 
ATOM     25  C   UNL     1      -5.010  13.524  -0.029  0.00  0.00    +0.003 A 
ATOM     26  C   UNL     1      -5.041  12.795  -1.202  0.00  0.00    +0.038 A 
ATOM     27  C   UNL     1      -5.473  11.479  -1.188  0.00  0.00    +0.128 A 
ATOM     28  C   UNL     1      -5.874  10.896   0.002  0.00  0.00    +0.005 A 
ATOM     29  C   UNL     1      -5.848  11.630   1.173  0.00  0.00    +0.008 A 
ATOM     30  F   UNL     1      -5.504  10.765  -2.334  0.00  0.00    -0.205 F 
ENDBRANCH  23  28
ENDBRANCH  19  23
ENDBRANCH  18  20
ENDBRANCH  17  18
ENDBRANCH   1  17
TORSDOF 5
