REMARK  Name = ZINC08927649
REMARK  5 active torsions:
REMARK  status: ('A' for Active; 'I' for Inactive)
REMARK    1  A    between atoms: C_1  and  C_2
REMARK    2  A    between atoms: C_2  and  N_48
REMARK    3  A    between atoms: C_10  and  O_27
REMARK    4  A    between atoms: C_12  and  C_15
REMARK    5  A    between atoms: C_18  and  C_20
REMARK                            x       y       z     vdW  Elec       q    Type
REMARK                         _______ _______ _______ _____ _____    ______ ____
ROOT
ATOM      1  C   UNL     1      -0.204   0.937  -2.402  0.00  0.00    -0.074 C 
ATOM      2  C   UNL     1      -1.178   1.155  -3.563  0.00  0.00    +0.018 C 
ATOM      3  C   UNL     1      -1.487   2.646  -3.652  0.00  0.00    -0.027 A 
ATOM      4  C   UNL     1      -1.225   3.454  -2.597  0.00  0.00    -0.021 A 
ATOM      5  S   UNL     1      -1.726   5.070  -3.126  0.00  0.00    -0.080 S 
ATOM      6  C   UNL     1      -2.270   4.677  -4.700  0.00  0.00    +0.080 A 
ATOM      7  C   UNL     1      -2.058   3.296  -4.816  0.00  0.00    +0.067 A 
ATOM      8  C   UNL     1      -2.431   2.658  -6.105  0.00  0.00    +0.220 C 
ATOM      9  N   UNL     1      -3.146   3.357  -6.943  0.00  0.00    -0.220 NA
ATOM     10  C   UNL     1      -3.660   4.695  -6.681  0.00  0.00    +0.260 C 
ATOM     11  N   UNL     1      -2.812   5.424  -5.718  0.00  0.00    -0.311 N 
ATOM     12  C   UNL     1      -0.639   3.042  -1.284  0.00  0.00    -0.035 C 
ATOM     13  H   UNL     1      -2.648   6.376  -5.798  0.00  0.00    +0.149 HD
ATOM     14  N   UNL     1      -0.749   1.566  -1.181  0.00  0.00    +0.383 N 
ATOM     15  H   UNL     1      -1.739   1.310  -1.086  0.00  0.00    -0.081 HD
ENDROOT
BRANCH  10  16
ATOM     16  C   UNL     1      -5.055   4.586  -6.124  0.00  0.00    +0.148 A 
ATOM     17  C   UNL     1      -5.937   3.605  -6.400  0.00  0.00    +0.049 A 
ATOM     18  C   UNL     1      -7.110   3.887  -5.672  0.00  0.00    +0.050 A 
ATOM     19  C   UNL     1      -6.878   5.037  -4.985  0.00  0.00    +0.135 A 
ATOM     20  O   UNL     1      -5.625   5.446  -5.264  0.00  0.00    -0.456 OA
BRANCH  19  21
ATOM     21  C   UNL     1      -7.831   5.716  -4.083  0.00  0.00    +0.017 A 
ATOM     22  C   UNL     1      -9.105   5.183  -3.880  0.00  0.00    +0.012 A 
ATOM     23  C   UNL     1      -9.989   5.818  -3.032  0.00  0.00    +0.016 A 
ATOM     24  C   UNL     1      -9.618   6.989  -2.393  0.00  0.00    +0.018 A 
ATOM     25  C   UNL     1      -8.358   7.526  -2.595  0.00  0.00    +0.016 A 
ATOM     26  C   UNL     1      -7.464   6.897  -3.435  0.00  0.00    +0.012 A 
ATOM     27 BR   UNL     1     -10.839   7.858  -1.240  0.00  0.00    -0.050 Br
ENDBRANCH  19  21
ENDBRANCH  10  16
BRANCH  14  29
ATOM     28  C   UNL     1      -0.729   1.579   1.267  0.00  0.00    -0.017 C 
ATOM     29  C   UNL     1      -0.013   1.086   0.008  0.00  0.00    -0.082 C 
ENDBRANCH  14  29
BRANCH   8  30
ATOM     30  O   UNL     1      -2.042   1.395  -6.399  0.00  0.00    -0.492 OA
ATOM     31  H   UNL     1      -2.342   1.083  -7.264  0.00  0.00    +0.294 HD
ENDBRANCH   8  30
TORSDOF 4
