REMARK  Name = ZINC39588084
REMARK  8 active torsions:
REMARK  status: ('A' for Active; 'I' for Inactive)
REMARK    1  A    between atoms: C_1  and  C_2
REMARK    2  A    between atoms: C_3  and  C_24
REMARK    3  A    between atoms: C_7  and  S_9
REMARK    4  A    between atoms: S_9  and  C_10
REMARK    5  A    between atoms: C_10  and  C_11
REMARK    6  A    between atoms: C_14  and  C_17
REMARK    7  A    between atoms: C_24  and  C_25
REMARK    8  A    between atoms: C_25  and  O_26
REMARK                            x       y       z     vdW  Elec       q    Type
REMARK                         _______ _______ _______ _____ _____    ______ ____
ROOT
ATOM      1  C   UNL     1      -1.034   3.142  -6.074  0.00  0.00    +0.145 C 
ENDROOT
BRANCH   1   2
ATOM      2  C   UNL     1      -0.358   3.445  -7.413  0.00  0.00    +0.302 C 
ATOM      3  N   UNL     1       0.692   4.461  -7.240  0.00  0.00    -0.289 N 
ATOM      4  C   UNL     1       1.885   3.869  -7.614  0.00  0.00    +0.168 C 
ATOM      5  N   UNL     1       1.704   2.645  -7.986  0.00  0.00    -0.067 NA
ATOM      6  O   UNL     1       0.335   2.285  -7.898  0.00  0.00    -0.369 OA
ATOM      7  H   UNL     1       0.571   5.370  -6.925  0.00  0.00    +0.151 HD
BRANCH   4   8
ATOM      8  C   UNL     1       3.199   4.551  -7.590  0.00  0.00    +0.019 A 
ATOM      9  C   UNL     1       3.294   5.876  -7.165  0.00  0.00    +0.011 A 
ATOM     10  C   UNL     1       4.521   6.506  -7.145  0.00  0.00    +0.002 A 
ATOM     11  C   UNL     1       5.657   5.826  -7.546  0.00  0.00    +0.020 A 
ATOM     12  C   UNL     1       5.571   4.511  -7.969  0.00  0.00    +0.042 A 
ATOM     13  C   UNL     1       4.349   3.868  -7.987  0.00  0.00    +0.031 A 
ATOM     14 CL   UNL     1       7.002   3.666  -8.471  0.00  0.00    -0.084 Cl
ENDBRANCH   4   8
ENDBRANCH   1   2
BRANCH   1  15
ATOM     15  S   UNL     1       0.211   2.566  -4.886  0.00  0.00    -0.080 S 
BRANCH  15  22
ATOM     16  C   UNL     1      -0.013   1.086   0.008  0.00  0.00    +0.066 C 
ATOM     17  C   UNL     1      -0.742   1.585  -1.213  0.00  0.00    +0.050 A 
ATOM     18  C   UNL     1      -2.106   1.799  -1.173  0.00  0.00    +0.042 A 
ATOM     19  C   UNL     1      -2.742   2.262  -2.325  0.00  0.00    +0.277 A 
ATOM     20  O   UNL     1      -4.078   2.486  -2.329  0.00  0.00    -0.265 OA
ATOM     21  N   UNL     1      -2.019   2.481  -3.416  0.00  0.00    -0.183 NA
ATOM     22  C   UNL     1      -0.712   2.263  -3.415  0.00  0.00    +0.192 A 
ATOM     23  N   UNL     1      -0.080   1.829  -2.334  0.00  0.00    -0.227 NA
BRANCH  18  24
ATOM     24  C   UNL     1      -2.890   1.538   0.087  0.00  0.00    +0.070 C 
BRANCH  24  25
ATOM     25  C   UNL     1      -2.930   2.810   0.936  0.00  0.00    +0.160 C 
BRANCH  25  26
ATOM     26  O   UNL     1      -3.674   2.562   2.131  0.00  0.00    -0.395 OA
ATOM     27  H   UNL     1      -3.740   3.327   2.719  0.00  0.00    +0.209 HD
ENDBRANCH  25  26
ENDBRANCH  24  25
ENDBRANCH  18  24
ENDBRANCH  15  22
ENDBRANCH   1  15
TORSDOF 7
