REMARK  Name = ZINC39657020
REMARK  6 active torsions:
REMARK  status: ('A' for Active; 'I' for Inactive)
REMARK    1  A    between atoms: C_1  and  C_2
REMARK    2  A    between atoms: C_2  and  C_4
REMARK    3  A    between atoms: C_2  and  N_11
REMARK    4  A    between atoms: C_12  and  C_14
REMARK    5  A    between atoms: C_25  and  C_27
REMARK    6  A    between atoms: N_31  and  C_32
REMARK                            x       y       z     vdW  Elec       q    Type
REMARK                         _______ _______ _______ _____ _____    ______ ____
ROOT
ATOM      1  C   UNL     1       0.689  -0.071  -3.405  0.00  0.00    +0.100 C 
ATOM      2  C   UNL     1       1.745   0.757  -4.170  0.00  0.00    +0.121 C 
ATOM      3  N   UNL     1       1.652   0.281  -5.571  0.00  0.00    -0.295 N 
ATOM      4  C   UNL     1       0.200   0.090  -5.800  0.00  0.00    +0.115 C 
ATOM      5  C   UNL     1      -0.324  -0.506  -4.478  0.00  0.00    -0.004 C 
ATOM      6  C   UNL     1      -1.706   0.054  -4.158  0.00  0.00    -0.010 C 
ATOM      7  C   UNL     1      -2.708  -0.440  -5.206  0.00  0.00    -0.082 C 
ATOM      8  N   UNL     1      -2.740  -1.908  -5.201  0.00  0.00    +0.379 N 
ATOM      9  C   UNL     1      -1.431  -2.438  -5.600  0.00  0.00    -0.082 C 
ATOM     10  C   UNL     1      -0.376  -2.028  -4.569  0.00  0.00    -0.010 C 
ATOM     11  C   UNL     1       2.660   0.069  -6.440  0.00  0.00    +0.263 C 
ATOM     12  O   UNL     1       2.418  -0.135  -7.614  0.00  0.00    -0.268 OA
ATOM     13  H   UNL     1      -2.965  -2.234  -4.273  0.00  0.00    -0.086 HD
ATOM     14  H   UNL     1      -3.444  -2.230  -5.848  0.00  0.00    -0.086 HD
ENDROOT
BRANCH  11  15
ATOM     15  C   UNL     1       4.050   0.085  -5.969  0.00  0.00    +0.104 A 
ATOM     16  C   UNL     1       4.469  -0.046  -4.662  0.00  0.00    +0.032 A 
ATOM     17  C   UNL     1       5.866   0.026  -4.670  0.00  0.00    +0.020 A 
ATOM     18  C   UNL     1       6.266   0.196  -5.953  0.00  0.00    +0.086 A 
ATOM     19  N   UNL     1       5.172   0.229  -6.753  0.00  0.00    -0.346 N 
ATOM     20  C   UNL     1       5.183   0.392  -8.209  0.00  0.00    +0.149 C 
ENDBRANCH  11  15
BRANCH   1  22
ATOM     21  N   UNL     1      -0.567   0.196  -1.291  0.00  0.00    -0.308 N 
ATOM     22  C   UNL     1       0.013   0.778  -2.360  0.00  0.00    +0.219 C 
ATOM     23  O   UNL     1      -0.009   1.985  -2.480  0.00  0.00    -0.275 OA
ATOM     24  H   UNL     1      -0.549  -0.769  -1.195  0.00  0.00    +0.149 HD
BRANCH  21  26
ATOM     25  C   UNL     1      -0.185   1.507   0.738  0.00  0.00    +0.033 C 
ATOM     26  C   UNL     1      -1.224   1.022  -0.274  0.00  0.00    +0.100 C 
BRANCH  26  27
ATOM     27  C   UNL     1      -2.273   0.204   0.435  0.00  0.00    -0.027 A 
ATOM     28  C   UNL     1      -2.017  -1.114   0.762  0.00  0.00    +0.006 A 
ATOM     29  C   UNL     1      -2.978  -1.864   1.413  0.00  0.00    +0.015 A 
ATOM     30  C   UNL     1      -4.197  -1.295   1.738  0.00  0.00    +0.018 A 
ATOM     31  C   UNL     1      -4.452   0.025   1.411  0.00  0.00    +0.015 A 
ATOM     32  C   UNL     1      -3.488   0.775   0.764  0.00  0.00    +0.006 A 
ATOM     33 BR   UNL     1      -5.513  -2.320   2.628  0.00  0.00    -0.050 Br
ENDBRANCH  26  27
ENDBRANCH  21  26
ENDBRANCH   1  22
TORSDOF 4
