REMARK  Name = ZINC16958710
REMARK  11 active torsions:
REMARK  status: ('A' for Active; 'I' for Inactive)
REMARK    1  A    between atoms: C_1  and  C_2
REMARK    2  A    between atoms: C_4  and  C_21
REMARK    3  A    between atoms: C_13  and  N_53
REMARK    4  A    between atoms: C_15  and  C_16
REMARK    5  A    between atoms: C_15  and  N_53
REMARK    6  A    between atoms: C_16  and  O_17
REMARK    7  A    between atoms: C_23  and  O_30
REMARK    8  A    between atoms: C_24  and  O_29
REMARK    9  A    between atoms: C_25  and  O_27
REMARK   10  A    between atoms: O_27  and  C_28
REMARK   11  A    between atoms: O_30  and  C_31
REMARK                            x       y       z     vdW  Elec       q    Type
REMARK                         _______ _______ _______ _____ _____    ______ ____
ROOT
ATOM      1  C   UNL     1      -2.672   0.729  -2.466  0.00  0.00    +0.010 C 
ATOM      2  C   UNL     1      -3.326   1.339  -1.224  0.00  0.00    +0.020 C 
ATOM      3  C   UNL     1      -2.512   0.976   0.020  0.00  0.00    +0.057 C 
ATOM      4  C   UNL     1      -3.300   1.317   1.260  0.00  0.00    +0.006 A 
ATOM      5  C   UNL     1      -2.627   1.421   2.467  0.00  0.00    +0.057 A 
ATOM      6  C   UNL     1      -3.314   1.730   3.627  0.00  0.00    +0.167 A 
ATOM      7  C   UNL     1      -4.691   1.937   3.582  0.00  0.00    +0.170 A 
ATOM      8  C   UNL     1      -5.361   1.835   2.376  0.00  0.00    +0.095 A 
ATOM      9  C   UNL     1      -4.667   1.526   1.211  0.00  0.00    +0.126 A 
ATOM     10  O   UNL     1      -5.363   1.438   0.047  0.00  0.00    -0.506 OA
ATOM     11  C   UNL     1      -4.742   0.774  -1.055  0.00  0.00    +0.124 C 
ATOM     12  O   UNL     1      -5.130   2.223   4.842  0.00  0.00    -0.452 OA
ATOM     13  C   UNL     1      -3.954   2.592   5.585  0.00  0.00    +0.466 C 
ATOM     14  O   UNL     1      -2.892   1.887   4.917  0.00  0.00    -0.453 OA
ENDROOT
BRANCH   3  15
ATOM     15  C   UNL     1      -1.219   1.750   0.017  0.00  0.00    -0.032 A 
ATOM     16  C   UNL     1      -0.013   1.076   0.008  0.00  0.00    +0.054 A 
ATOM     17  C   UNL     1       1.179   1.784   0.000  0.00  0.00    +0.165 A 
ATOM     18  C   UNL     1       1.159   3.174   0.008  0.00  0.00    +0.201 A 
ATOM     19  C   UNL     1      -0.056   3.848   0.022  0.00  0.00    +0.165 A 
ATOM     20  C   UNL     1      -1.244   3.132   0.030  0.00  0.00    +0.054 A 
BRANCH  19  21
ATOM     21  O   UNL     1      -0.081   5.208   0.030  0.00  0.00    -0.491 OA
ATOM     22  C   UNL     1      -1.366   5.833   0.045  0.00  0.00    +0.277 C 
ENDBRANCH  19  21
BRANCH  18  23
ATOM     23  O   UNL     1       2.327   3.873   0.001  0.00  0.00    -0.501 OA
ATOM     24  H   UNL     1       2.656   4.080  -0.885  0.00  0.00    +0.292 HD
ENDBRANCH  18  23
BRANCH  17  25
ATOM     25  O   UNL     1       2.366   1.121  -0.015  0.00  0.00    -0.491 OA
ATOM     26  C   UNL     1       2.311  -0.307  -0.022  0.00  0.00    +0.277 C 
ENDBRANCH  17  25
ENDBRANCH   3  15
BRANCH  11  27
ATOM     27  N   UNL     1      -5.519   1.022  -2.284  0.00  0.00    +0.405 N 
ATOM     28  H   UNL     1      -4.875   1.115  -3.079  0.00  0.00    -0.080 HD
ATOM     29  H   UNL     1      -6.057   1.890  -2.176  0.00  0.00    -0.080 HD
BRANCH  27  30
ATOM     30  C   UNL     1      -6.446  -0.097  -2.538  0.00  0.00    -0.049 C 
BRANCH  30  31
ATOM     31  C   UNL     1      -7.237   0.187  -3.817  0.00  0.00    +0.137 C 
BRANCH  31  32
ATOM     32  O   UNL     1      -6.345   0.205  -4.934  0.00  0.00    -0.397 OA
ATOM     33  H   UNL     1      -6.778   0.380  -5.780  0.00  0.00    +0.209 HD
ENDBRANCH  31  32
ENDBRANCH  30  31
ENDBRANCH  27  30
ENDBRANCH  11  27
TORSDOF 8
