REMARK  Name = ZINC04222696
REMARK  2 active torsions:
REMARK  status: ('A' for Active; 'I' for Inactive)
REMARK    1  A    between atoms: C_3  and  C_6
REMARK    2  A    between atoms: C_21  and  C_26
REMARK                            x       y       z     vdW  Elec       q    Type
REMARK                         _______ _______ _______ _____ _____    ______ ____
ROOT
ATOM      1  C   UNL     1       2.539   3.616  -0.426  0.00  0.00    +0.253 C 
ATOM      2  O   UNL     1       2.901   4.489  -1.194  0.00  0.00    -0.269 OA
ATOM      3  N   UNL     1       1.588   2.739  -0.804  0.00  0.00    -0.293 N 
ATOM      4  C   UNL     1       1.034   2.834  -2.145  0.00  0.00    +0.127 C 
ATOM      5  C   UNL     1      -0.480   2.757  -2.127  0.00  0.00    +0.128 C 
ATOM      6  N   UNL     1      -0.996   1.811  -1.155  0.00  0.00    -0.283 N 
ATOM      7  C   UNL     1      -0.334   1.475   0.089  0.00  0.00    +0.180 C 
ATOM      8  C   UNL     1       1.147   1.728   0.142  0.00  0.00    +0.140 C 
ATOM      9  C   UNL     1      -1.078   2.091   1.234  0.00  0.00    +0.239 C 
ATOM     10  O   UNL     1      -0.540   2.936   1.917  0.00  0.00    -0.273 OA
ATOM     11  N   UNL     1      -2.313   1.718   1.530  0.00  0.00    -0.283 N 
ATOM     12  C   UNL     1      -2.976   0.670   0.911  0.00  0.00    +0.046 A 
ATOM     13  C   UNL     1      -3.732  -0.164   1.744  0.00  0.00    +0.024 A 
ATOM     14  C   UNL     1      -4.384  -1.263   1.242  0.00  0.00    +0.010 A 
ATOM     15  C   UNL     1      -4.300  -1.562  -0.120  0.00  0.00    -0.017 A 
ATOM     16  C   UNL     1      -3.569  -0.737  -0.960  0.00  0.00    +0.023 A 
ATOM     17  C   UNL     1      -2.911   0.395  -0.453  0.00  0.00    +0.059 A 
ATOM     18  C   UNL     1      -2.188   1.232  -1.419  0.00  0.00    +0.249 C 
ATOM     19  O   UNL     1      -2.686   1.412  -2.514  0.00  0.00    -0.270 OA
ATOM     20  H   UNL     1      -2.787   2.212   2.217  0.00  0.00    +0.155 HD
ENDROOT
BRANCH  15  21
ATOM     21  C   UNL     1      -4.988  -2.758  -0.665  0.00  0.00    -0.014 A 
ATOM     22  C   UNL     1      -4.903  -3.055  -2.023  0.00  0.00    +0.012 A 
ATOM     23  C   UNL     1      -5.544  -4.167  -2.529  0.00  0.00    +0.050 A 
ATOM     24  C   UNL     1      -6.275  -4.993  -1.688  0.00  0.00    +0.166 A 
ATOM     25  C   UNL     1      -6.364  -4.701  -0.328  0.00  0.00    +0.167 A 
ATOM     26  C   UNL     1      -5.717  -3.590   0.183  0.00  0.00    +0.058 A 
ATOM     27  O   UNL     1      -7.131  -5.656   0.274  0.00  0.00    -0.453 OA
ATOM     28  C   UNL     1      -7.172  -6.757  -0.653  0.00  0.00    +0.466 C 
ATOM     29  O   UNL     1      -6.987  -6.131  -1.937  0.00  0.00    -0.453 OA
ENDBRANCH  15  21
BRANCH   1  32
ATOM     30  C   UNL     1       4.391   4.075   2.821  0.00  0.00    +0.008 A 
ATOM     31  C   UNL     1       3.972   4.415   1.558  0.00  0.00    +0.021 A 
ATOM     32  C   UNL     1       3.138   3.519   0.908  0.00  0.00    +0.074 A 
ATOM     33  S   UNL     1       2.989   2.214   2.115  0.00  0.00    -0.092 S 
ATOM     34  C   UNL     1       3.985   2.895   3.360  0.00  0.00    +0.046 A 
ENDBRANCH   1  32
TORSDOF 2
