REMARK  Name = ZINC15548700
REMARK  4 active torsions:
REMARK  status: ('A' for Active; 'I' for Inactive)
REMARK    1  A    between atoms: C_3  and  C_6
REMARK    2  A    between atoms: C_15  and  C_16
REMARK    3  A    between atoms: C_15  and  N_54
REMARK    4  A    between atoms: N_18  and  N_19
REMARK                            x       y       z     vdW  Elec       q    Type
REMARK                         _______ _______ _______ _____ _____    ______ ____
ROOT
ATOM      1  C   UNL     1       4.163   0.251  -1.164  0.00  0.00    +0.213 C 
ATOM      2  O   UNL     1       3.530   0.026  -2.173  0.00  0.00    -0.276 OA
ATOM      3  N   UNL     1       3.522   0.593  -0.028  0.00  0.00    -0.225 N 
ATOM      4  H   UNL     1       4.028   0.773   0.779  0.00  0.00    +0.173 HD
ENDROOT
BRANCH   3   5
ATOM      5  N   UNL     1       2.124   0.687  -0.015  0.00  0.00    -0.137 N 
ATOM      6  C   UNL     1       1.443   1.851  -0.002  0.00  0.00    +0.263 C 
ATOM      7  O   UNL     1       1.905   2.972  -0.001  0.00  0.00    -0.271 OA
ATOM      8  C   UNL     1      -0.018   1.464   0.010  0.00  0.00    +0.114 C 
ATOM      9  C   UNL     1      -0.696   1.982   1.274  0.00  0.00    +0.035 C 
ATOM     10  C   UNL     1      -2.164   1.549   1.281  0.00  0.00    +0.003 C 
ATOM     11  C   UNL     1      -2.865   2.106   0.041  0.00  0.00    +0.000 C 
ATOM     12  C   UNL     1      -2.188   1.562  -1.219  0.00  0.00    +0.003 C 
ATOM     13  C   UNL     1      -0.720   1.995  -1.235  0.00  0.00    +0.035 C 
ATOM     14  N   UNL     1       0.002  -0.004   0.002  0.00  0.00    -0.284 N 
ATOM     15  C   UNL     1       1.299  -0.367  -0.012  0.00  0.00    +0.326 C 
ATOM     16  O   UNL     1       1.677  -1.522  -0.022  0.00  0.00    -0.251 OA
ATOM     17  H   UNL     1      -0.767  -0.596   0.007  0.00  0.00    +0.151 HD
ENDBRANCH   3   5
BRANCH   1  18
ATOM     18  C   UNL     1       5.667   0.150  -1.179  0.00  0.00    +0.021 C 
BRANCH  18  27
ATOM     19  C   UNL     1       7.539  -0.605  -2.515  0.00  0.00    +0.002 C 
ATOM     20  C   UNL     1       7.956  -0.970  -3.936  0.00  0.00    -0.046 A 
ATOM     21  C   UNL     1       9.094  -1.710  -4.246  0.00  0.00    +0.010 A 
ATOM     22  C   UNL     1       9.388  -1.991  -5.537  0.00  0.00    +0.045 A 
ATOM     23  S   UNL     1       8.036  -1.206  -6.403  0.00  0.00    -0.101 S 
ATOM     24  C   UNL     1       7.189  -0.564  -4.987  0.00  0.00    -0.010 A 
ATOM     25  C   UNL     1       5.930   0.237  -4.915  0.00  0.00    +0.024 C 
ATOM     26  C   UNL     1       5.830   0.826  -3.498  0.00  0.00    -0.072 C 
ATOM     27  N   UNL     1       6.097  -0.263  -2.529  0.00  0.00    +0.393 N 
ATOM     28  H   UNL     1       5.563  -1.094  -2.809  0.00  0.00    -0.080 HD
BRANCH  19  31
ATOM     29  C   UNL     1       8.744  -3.200   0.000  0.00  0.00    +0.008 A 
ATOM     30  C   UNL     1       8.760  -2.033  -0.740  0.00  0.00    +0.010 A 
ATOM     31  C   UNL     1       7.747  -1.790  -1.607  0.00  0.00    -0.019 A 
ATOM     32  S   UNL     1       6.720  -3.234  -1.389  0.00  0.00    -0.103 S 
ATOM     33  C   UNL     1       7.715  -4.068  -0.163  0.00  0.00    +0.045 A 
ENDBRANCH  19  31
ENDBRANCH  18  27
ENDBRANCH   1  18
TORSDOF 4
