REMARK  Name = ZINC00887583
REMARK  9 active torsions:
REMARK  status: ('A' for Active; 'I' for Inactive)
REMARK    1  A    between atoms: C_4  and  C_7
REMARK    2  A    between atoms: C_7  and  N_8
REMARK    3  A    between atoms: C_9  and  C_11
REMARK    4  A    between atoms: C_11  and  C_13
REMARK    5  A    between atoms: C_11  and  N_18
REMARK    6  A    between atoms: N_18  and  C_19
REMARK    7  A    between atoms: C_29  and  C_31
REMARK    8  A    between atoms: C_31  and  N_32
REMARK    9  A    between atoms: C_34  and  C_37
REMARK                            x       y       z     vdW  Elec       q    Type
REMARK                         _______ _______ _______ _____ _____    ______ ____
ROOT
ATOM      1  N   UNL     1       7.053  -2.551   3.056  0.00  0.00    -0.250 N 
ATOM      2  C   UNL     1       8.022  -2.072   3.860  0.00  0.00    +0.244 C 
ATOM      3  O   UNL     1       7.878  -1.002   4.412  0.00  0.00    -0.273 OA
ENDROOT
BRANCH   1   4
ATOM      4  C   UNL     1       7.218  -3.786   2.419  0.00  0.00    +0.041 A 
ATOM      5  C   UNL     1       7.757  -3.837   1.143  0.00  0.00    +0.024 A 
ATOM      6  C   UNL     1       7.919  -5.057   0.517  0.00  0.00    +0.002 A 
ATOM      7  C   UNL     1       7.541  -6.217   1.163  0.00  0.00    +0.004 A 
ATOM      8  C   UNL     1       7.000  -6.172   2.442  0.00  0.00    -0.042 A 
ATOM      9  C   UNL     1       6.846  -4.960   3.075  0.00  0.00    -0.023 A 
ATOM     10  C   UNL     1       6.286  -4.838   4.468  0.00  0.00    +0.037 C 
ATOM     11  C   UNL     1       5.546  -6.114   4.864  0.00  0.00    +0.005 C 
ATOM     12  C   UNL     1       6.467  -7.310   4.597  0.00  0.00    +0.005 C 
ATOM     13  C   UNL     1       6.604  -7.477   3.082  0.00  0.00    +0.035 C 
ENDBRANCH   1   4
BRANCH   1  14
ATOM     14  C   UNL     1       5.825  -1.779   2.848  0.00  0.00    +0.233 C 
BRANCH  14  15
ATOM     15  C   UNL     1       4.629  -2.649   3.137  0.00  0.00    +0.135 A 
ATOM     16  C   UNL     1       3.580  -2.313   3.908  0.00  0.00    +0.047 A 
ATOM     17  C   UNL     1       2.697  -3.417   3.904  0.00  0.00    +0.041 A 
ATOM     18  C   UNL     1       3.260  -4.363   3.130  0.00  0.00    +0.195 A 
ATOM     19  O   UNL     1       4.427  -3.890   2.663  0.00  0.00    -0.465 OA
ENDBRANCH  14  15
BRANCH  14  21
ATOM     20  N   UNL     1       4.720  -0.569   0.996  0.00  0.00    -0.309 N 
ATOM     21  C   UNL     1       5.767  -1.304   1.419  0.00  0.00    +0.242 C 
ATOM     22  O   UNL     1       6.662  -1.582   0.650  0.00  0.00    -0.273 OA
ATOM     23  H   UNL     1       4.003  -0.346   1.611  0.00  0.00    +0.149 HD
BRANCH  20  24
ATOM     24  C   UNL     1       4.663  -0.106  -0.394  0.00  0.00    +0.139 C 
BRANCH  24  28
ATOM     25  C   UNL     1       1.084   2.146  -1.002  0.00  0.00    +0.000 A 
ATOM     26  C   UNL     1       2.241   2.783  -0.593  0.00  0.00    +0.000 A 
ATOM     27  C   UNL     1       3.399   2.054  -0.396  0.00  0.00    +0.005 A 
ATOM     28  C   UNL     1       3.400   0.688  -0.607  0.00  0.00    -0.030 A 
ATOM     29  C   UNL     1       2.243   0.051  -1.016  0.00  0.00    +0.005 A 
ATOM     30  C   UNL     1       1.086   0.780  -1.214  0.00  0.00    +0.000 A 
ENDBRANCH  24  28
ENDBRANCH  20  24
ENDBRANCH  14  21
ENDBRANCH   1  14
BRANCH   2  31
ATOM     31  C   UNL     1       9.285  -2.867   4.074  0.00  0.00    +0.264 C 
BRANCH  31  32
ATOM     32  N   UNL     1      10.173  -2.137   4.982  0.00  0.00    -0.154 N 
ATOM     33  N   UNL     1      11.065  -1.279   4.622  0.00  0.00    -0.129 NA
ATOM     34  C   UNL     1      11.662  -0.835   5.713  0.00  0.00    +0.211 A 
ATOM     35  N   UNL     1      11.087  -1.468   6.748  0.00  0.00    -0.107 NA
ATOM     36  N   UNL     1      10.181  -2.248   6.264  0.00  0.00    -0.045 NA
BRANCH  34  37
ATOM     37  C   UNL     1      12.751   0.162   5.780  0.00  0.00    +0.060 A 
ATOM     38  C   UNL     1      13.406   0.651   6.878  0.00  0.00    +0.019 A 
ATOM     39  C   UNL     1      14.401   1.586   6.695  0.00  0.00    +0.008 A 
ATOM     40  C   UNL     1      14.701   1.994   5.435  0.00  0.00    +0.046 A 
ATOM     41  S   UNL     1      13.560   1.037   4.451  0.00  0.00    -0.093 S 
ENDBRANCH  34  37
ENDBRANCH  31  32
ENDBRANCH   2  31
TORSDOF 9
