REMARK  Name = ZINC21468557
REMARK  4 active torsions:
REMARK  status: ('A' for Active; 'I' for Inactive)
REMARK    1  A    between atoms: C_6  and  C_7
REMARK    2  A    between atoms: C_13  and  C_15
REMARK    3  A    between atoms: C_15  and  S_16
REMARK    4  A    between atoms: S_16  and  C_17
REMARK                            x       y       z     vdW  Elec       q    Type
REMARK                         _______ _______ _______ _____ _____    ______ ____
ROOT
ATOM      1  C   UNL     1       1.225  -2.187  -0.023  0.00  0.00    +0.106 C 
ATOM      2  C   UNL     1       1.518  -2.716   1.397  0.00  0.00    +0.029 C 
ATOM      3  C   UNL     1       2.437  -3.937   1.131  0.00  0.00    +0.021 C 
ATOM      4  C   UNL     1       3.257  -3.448  -0.089  0.00  0.00    +0.108 C 
ATOM      5  N   UNL     1       2.302  -2.671  -0.899  0.00  0.00    -0.294 N 
ATOM      6  C   UNL     1       2.400  -2.440  -2.223  0.00  0.00    +0.226 C 
ATOM      7  O   UNL     1       1.552  -1.783  -2.789  0.00  0.00    -0.275 OA
ENDROOT
BRANCH   1  13
ATOM      8  C   UNL     1       2.397   0.023  -0.025  0.00  0.00    +0.009 A 
ATOM      9  C   UNL     1       2.386   1.406  -0.016  0.00  0.00    +0.050 A 
ATOM     10  C   UNL     1       1.180   2.090   0.002  0.00  0.00    +0.162 A 
ATOM     11  C   UNL     1      -0.017   1.382   0.010  0.00  0.00    +0.162 A 
ATOM     12  C   UNL     1       0.002  -0.004   0.002  0.00  0.00    +0.055 A 
ATOM     13  C   UNL     1       1.208  -0.680  -0.015  0.00  0.00    -0.023 A 
ATOM     14  O   UNL     1      -1.211   2.034   0.019  0.00  0.00    -0.485 OA
ATOM     15  C   UNL     1      -1.188   3.413   0.408  0.00  0.00    +0.270 C 
ATOM     16  C   UNL     1      -0.040   4.103  -0.340  0.00  0.00    +0.270 C 
ATOM     17  O   UNL     1       1.184   3.451   0.018  0.00  0.00    -0.485 OA
ENDBRANCH   1  13
BRANCH   6  18
ATOM     18  C   UNL     1       3.563  -2.999  -3.001  0.00  0.00    +0.172 C 
BRANCH  18  19
ATOM     19  S   UNL     1       3.412  -2.520  -4.744  0.00  0.00    -0.088 S 
BRANCH  19  20
ATOM     20  C   UNL     1       4.826  -3.240  -5.509  0.00  0.00    +0.160 A 
ATOM     21  N   UNL     1       5.789  -3.964  -4.972  0.00  0.00    -0.133 NA
ATOM     22  N   UNL     1       6.814  -4.434  -5.761  0.00  0.00    -0.125 NA
ATOM     23  C   UNL     1       6.828  -4.158  -7.051  0.00  0.00    +0.180 A 
ATOM     24  S   UNL     1       5.335  -3.191  -7.221  0.00  0.00    -0.025 S 
ATOM     25  N   UNL     1       7.754  -4.526  -8.020  0.00  0.00    -0.336 N 
ATOM     26  H   UNL     1       7.614  -4.208  -9.063  0.00  0.00    +0.144 HD
ATOM     27  H   UNL     1       8.627  -5.136  -7.743  0.00  0.00    +0.144 HD
ENDBRANCH  19  20
ENDBRANCH  18  19
ENDBRANCH   6  18
TORSDOF 4
