REMARK  Name = ZINC64409703
REMARK  7 active torsions:
REMARK  status: ('A' for Active; 'I' for Inactive)
REMARK    1  A    between atoms: C_1  and  C_2
REMARK    2  A    between atoms: C_8  and  C_10
REMARK    3  A    between atoms: C_10  and  S_11
REMARK    4  A    between atoms: S_11  and  C_12
REMARK    5  A    between atoms: C_16  and  N_19
REMARK    6  A    between atoms: C_25  and  C_27
REMARK    7  A    between atoms: C_27  and  C_28
REMARK                            x       y       z     vdW  Elec       q    Type
REMARK                         _______ _______ _______ _____ _____    ______ ____
ROOT
ATOM      1  N   UNL     1      -4.434  -8.822  -0.783  0.00  0.00    -0.268 NA
ATOM      2  C   UNL     1      -3.250  -7.957  -0.686  0.00  0.00    +0.106 C 
ATOM      3  C   UNL     1      -2.026  -8.710  -1.219  0.00  0.00    +0.123 C 
ATOM      4  N   UNL     1      -1.920  -9.992  -0.505  0.00  0.00    -0.299 N 
ATOM      5  C   UNL     1      -3.111 -10.854  -0.442  0.00  0.00    +0.123 C 
ATOM      6  C   UNL     1      -4.292 -10.016   0.060  0.00  0.00    +0.106 C 
ATOM      7  C   UNL     1      -0.763 -10.368   0.074  0.00  0.00    +0.220 C 
ATOM      8  O   UNL     1       0.209  -9.646   0.011  0.00  0.00    -0.275 OA
ENDROOT
BRANCH   1  12
ATOM      9  C   UNL     1      -6.294  -5.466   0.001  0.00  0.00    +0.246 C 
ATOM     10  N   UNL     1      -5.862  -6.340   1.116  0.00  0.00    -0.165 NA
ATOM     11  N   UNL     1      -5.578  -7.505   0.918  0.00  0.00    -0.160 NA
ATOM     12  C   UNL     1      -5.656  -8.080  -0.444  0.00  0.00    +0.259 C 
ATOM     13  S   UNL     1      -5.798  -6.523  -1.433  0.00  0.00    -0.078 S 
BRANCH   9  14
ATOM     14  S   UNL     1      -5.390  -3.893   0.006  0.00  0.00    -0.113 S 
BRANCH  14  15
ATOM     15  C   UNL     1      -3.646  -4.389  -0.006  0.00  0.00    +0.168 C 
BRANCH  15  23
ATOM     16  C   UNL     1      -0.018   1.503   0.010  0.00  0.00    +0.089 C 
ATOM     17  C   UNL     1       0.002  -0.004   0.002  0.00  0.00    +0.136 A 
ATOM     18  C   UNL     1      -1.076  -0.808   0.003  0.00  0.00    +0.091 A 
ATOM     19  C   UNL     1      -0.625  -2.147  -0.007  0.00  0.00    +0.168 A 
ATOM     20  N   UNL     1       0.683  -2.130  -0.013  0.00  0.00    -0.063 NA
ATOM     21  O   UNL     1       1.100  -0.776  -0.013  0.00  0.00    -0.358 OA
ATOM     22  N   UNL     1      -1.432  -3.285  -0.010  0.00  0.00    -0.267 N 
ATOM     23  C   UNL     1      -2.774  -3.159  -0.003  0.00  0.00    +0.228 C 
ATOM     24  O   UNL     1      -3.280  -2.057   0.006  0.00  0.00    -0.275 OA
ATOM     25  H   UNL     1      -1.027  -4.166  -0.017  0.00  0.00    +0.156 HD
ENDBRANCH  15  23
ENDBRANCH  14  15
ENDBRANCH   9  14
ENDBRANCH   1  12
BRANCH   7  26
ATOM     26  C   UNL     1      -0.676 -11.686   0.799  0.00  0.00    +0.129 C 
BRANCH  26  27
ATOM     27  C   UNL     1       0.714 -11.865   1.352  0.00  0.00    -0.033 C 
ATOM     28  C   UNL     1       1.138 -11.567   2.601  0.00  0.00    -0.001 A 
ATOM     29  C   UNL     1       0.457 -11.007   3.775  0.00  0.00    +0.010 A 
ATOM     30  C   UNL     1       1.161 -10.817   4.913  0.00  0.00    +0.001 A 
ATOM     31  C   UNL     1       2.522 -11.140   5.000  0.00  0.00    +0.002 A 
ATOM     32  C   UNL     1       3.217 -11.658   3.965  0.00  0.00    +0.026 A 
ATOM     33  C   UNL     1       2.575 -11.900   2.719  0.00  0.00    +0.043 A 
ATOM     34  N   UNL     1       3.023 -12.386   1.587  0.00  0.00    -0.380 N 
ATOM     35  C   UNL     1       1.917 -12.421   0.623  0.00  0.00    +0.145 C 
ATOM     36  H   UNL     1       3.932 -12.677   1.416  0.00  0.00    +0.160 HD
ENDBRANCH  26  27
ENDBRANCH   7  26
TORSDOF 6
