REMARK  Name = ZINC46761511
REMARK  5 active torsions:
REMARK  status: ('A' for Active; 'I' for Inactive)
REMARK    1  A    between atoms: C_1  and  C_2
REMARK    2  A    between atoms: C_4  and  O_5
REMARK    3  A    between atoms: C_14  and  C_16
REMARK    4  A    between atoms: C_19  and  O_22
REMARK    5  A    between atoms: O_22  and  C_23
REMARK                            x       y       z     vdW  Elec       q    Type
REMARK                         _______ _______ _______ _____ _____    ______ ____
ROOT
ATOM      1  C   UNL     1       0.530   1.446  -0.021  0.00  0.00    +0.045 C 
ATOM      2  C   UNL     1       0.067   0.013   0.024  0.00  0.00    -0.033 A 
ATOM      3  C   UNL     1      -0.397  -0.614  -1.115  0.00  0.00    +0.091 A 
ATOM      4  C   UNL     1      -0.819  -1.934  -1.055  0.00  0.00    +0.285 A 
ATOM      5  O   UNL     1      -0.788  -2.624   0.090  0.00  0.00    -0.425 OA
ATOM      6  C   UNL     1      -0.343  -2.060   1.232  0.00  0.00    +0.141 A 
ATOM      7  C   UNL     1       0.104  -0.720   1.229  0.00  0.00    +0.021 A 
ATOM      8  C   UNL     1       0.574  -0.130   2.416  0.00  0.00    +0.013 A 
ATOM      9  C   UNL     1       0.602  -0.851   3.567  0.00  0.00    +0.024 A 
ATOM     10  C   UNL     1       0.163  -2.188   3.579  0.00  0.00    +0.037 A 
ATOM     11  C   UNL     1      -0.316  -2.784   2.410  0.00  0.00    +0.070 A 
ATOM     12  N   UNL     1       0.196  -2.899   4.736  0.00  0.00    -0.281 N 
ATOM     13  C   UNL     1       0.091  -4.221   4.705  0.00  0.00    +0.250 C 
ATOM     14  O   UNL     1       0.088  -4.809   3.635  0.00  0.00    -0.270 OA
ATOM     15  H   UNL     1       0.296  -2.440   5.585  0.00  0.00    +0.155 HD
ENDROOT
BRANCH  13  16
ATOM     16  C   UNL     1      -0.022  -4.985   5.969  0.00  0.00    +0.055 A 
ATOM     17  C   UNL     1      -0.127  -6.382   5.949  0.00  0.00    +0.020 A 
ATOM     18  C   UNL     1      -0.230  -7.049   7.153  0.00  0.00    +0.068 A 
ATOM     19  C   UNL     1      -0.225  -6.320   8.337  0.00  0.00    +0.220 A 
ATOM     20  N   UNL     1      -0.124  -5.000   8.322  0.00  0.00    -0.220 NA
ATOM     21  C   UNL     1      -0.019  -4.325   7.197  0.00  0.00    +0.127 A 
BRANCH  19  22
ATOM     22  O   UNL     1      -0.326  -6.969   9.523  0.00  0.00    -0.438 OA
BRANCH  22  23
ATOM     23  C   UNL     1      -0.426  -6.222  10.653  0.00  0.00    +0.131 A 
ATOM     24  C   UNL     1      -1.551  -5.439  10.871  0.00  0.00    +0.046 A 
ATOM     25  C   UNL     1      -1.651  -4.680  12.021  0.00  0.00    +0.005 A 
ATOM     26  C   UNL     1      -0.631  -4.699  12.954  0.00  0.00    +0.015 A 
ATOM     27  C   UNL     1       0.492  -5.478  12.739  0.00  0.00    +0.021 A 
ATOM     28  C   UNL     1       0.594  -6.244  11.593  0.00  0.00    +0.061 A 
ATOM     29 BR   UNL     1       1.885  -5.500  14.018  0.00  0.00    -0.050 Br
ENDBRANCH  22  23
ENDBRANCH  19  22
ENDBRANCH  13  16
BRANCH   4  30
ATOM     30  O   UNL     1      -1.270  -2.534  -2.174  0.00  0.00    -0.480 OA
ATOM     31  H   UNL     1      -1.544  -3.453  -2.044  0.00  0.00    +0.295 HD
ENDBRANCH   4  30
TORSDOF 4
