REMARK  Name = ZINC05721458
REMARK  10 active torsions:
REMARK  status: ('A' for Active; 'I' for Inactive)
REMARK    1  A    between atoms: C_1  and  C_2
REMARK    2  A    between atoms: C_3  and  C_22
REMARK    3  A    between atoms: C_4  and  O_21
REMARK    4  A    between atoms: C_10  and  C_13
REMARK    5  A    between atoms: C_13  and  N_60
REMARK    6  A    between atoms: C_17  and  C_20
REMARK    7  A    between atoms: C_25  and  O_30
REMARK    8  A    between atoms: C_26  and  O_28
REMARK    9  A    between atoms: O_28  and  C_29
REMARK   10  A    between atoms: O_30  and  C_31
REMARK                            x       y       z     vdW  Elec       q    Type
REMARK                         _______ _______ _______ _____ _____    ______ ____
ROOT
ATOM      1  C   UNL     1       3.706   2.111  -0.021  0.00  0.00    +0.087 C 
ATOM      2  C   UNL     1       2.392   1.373  -0.013  0.00  0.00    +0.114 A 
ATOM      3  C   UNL     1       1.219   2.090   0.002  0.00  0.00    +0.062 A 
ATOM      4  C   UNL     1      -0.017   1.407   0.010  0.00  0.00    +0.138 A 
ATOM      5  C   UNL     1       0.002  -0.004   0.002  0.00  0.00    +0.060 A 
ATOM      6  C   UNL     1      -1.196  -0.741   0.010  0.00  0.00    +0.019 A 
ATOM      7  C   UNL     1      -1.156  -2.098   0.002  0.00  0.00    +0.052 A 
ATOM      8  C   UNL     1       0.079  -2.774  -0.013  0.00  0.00    +0.184 A 
ATOM      9  O   UNL     1       0.106  -4.107  -0.021  0.00  0.00    -0.288 OA
ATOM     10  C   UNL     1       1.277  -2.055  -0.021  0.00  0.00    +0.026 A 
ATOM     11  C   UNL     1       1.248  -0.673  -0.013  0.00  0.00    +0.144 A 
ATOM     12  O   UNL     1       2.395   0.037  -0.020  0.00  0.00    -0.459 OA
ENDROOT
BRANCH   3  13
ATOM     13  C   UNL     1       1.252   3.574   0.009  0.00  0.00    -0.007 A 
ATOM     14  C   UNL     1       1.772   4.266  -1.083  0.00  0.00    +0.012 A 
ATOM     15  C   UNL     1       1.797   5.646  -1.078  0.00  0.00    +0.050 A 
ATOM     16  C   UNL     1       1.316   6.346   0.017  0.00  0.00    +0.162 A 
ATOM     17  C   UNL     1       0.800   5.660   1.113  0.00  0.00    +0.162 A 
ATOM     18  C   UNL     1       0.768   4.277   1.110  0.00  0.00    +0.058 A 
BRANCH  17  19
ATOM     19  O   UNL     1       0.328   6.349   2.187  0.00  0.00    -0.491 OA
ATOM     20  C   UNL     1      -0.186   5.581   3.276  0.00  0.00    +0.277 C 
ENDBRANCH  17  19
BRANCH  16  21
ATOM     21  O   UNL     1       1.348   7.706   0.021  0.00  0.00    -0.491 OA
ATOM     22  C   UNL     1       1.890   8.345  -1.137  0.00  0.00    +0.277 C 
ENDBRANCH  16  21
ENDBRANCH   3  13
BRANCH   4  23
ATOM     23  O   UNL     1      -1.184   2.085   0.019  0.00  0.00    -0.505 OA
ATOM     24  H   UNL     1      -1.520   2.277   0.905  0.00  0.00    +0.292 HD
ENDBRANCH   4  23
BRANCH  10  25
ATOM     25  C   UNL     1       2.597  -2.783  -0.038  0.00  0.00    -0.035 C 
BRANCH  25  32
ATOM     26  C   UNL     1       3.340  -1.764   2.029  0.00  0.00    -0.078 C 
ATOM     27  C   UNL     1       3.656  -2.046   3.499  0.00  0.00    -0.018 C 
ATOM     28  C   UNL     1       4.854  -2.994   3.587  0.00  0.00    -0.001 C 
ATOM     29  C   UNL     1       4.534  -4.281   2.822  0.00  0.00    -0.031 C 
ATOM     30  C   UNL     1       4.192  -3.935   1.371  0.00  0.00    -0.075 C 
ATOM     31  C   UNL     1       5.749  -5.210   2.854  0.00  0.00    +0.005 C 
ATOM     32  N   UNL     1       3.016  -3.040   1.355  0.00  0.00    +0.383 N 
ATOM     33  H   UNL     1       2.244  -3.495   1.857  0.00  0.00    -0.081 HD
ENDBRANCH  25  32
ENDBRANCH  10  25
TORSDOF 6
