REMARK  Name = ZINC47145564
REMARK  6 active torsions:
REMARK  status: ('A' for Active; 'I' for Inactive)
REMARK    1  A    between atoms: C_1  and  C_2
REMARK    2  A    between atoms: C_2  and  O_3
REMARK    3  A    between atoms: O_3  and  C_4
REMARK    4  A    between atoms: C_6  and  C_11
REMARK    5  A    between atoms: C_9  and  O_10
REMARK    6  A    between atoms: N_26  and  C_29
REMARK                            x       y       z     vdW  Elec       q    Type
REMARK                         _______ _______ _______ _____ _____    ______ ____
ROOT
ATOM      1  C   UNL     1      -0.229  -4.969   0.477  0.00  0.00    +0.072 C 
ATOM      2  C   UNL     1       0.861  -5.835   0.987  0.00  0.00    +0.035 A 
ATOM      3  C   UNL     1       0.862  -7.184   1.172  0.00  0.00    +0.113 A 
ATOM      4  N   UNL     1       1.990  -7.675   1.692  0.00  0.00    -0.196 NA
ATOM      5  C   UNL     1       3.020  -6.911   1.969  0.00  0.00    +0.311 A 
ATOM      6  O   UNL     1       4.219  -7.269   2.490  0.00  0.00    -0.258 OA
ATOM      7  S   UNL     1       2.491  -5.377   1.518  0.00  0.00    -0.028 S 
ATOM      8  S   UNL     1      -0.539  -8.170   0.716  0.00  0.00    -0.091 S 
ATOM      9  C   UNL     1      -1.887  -6.957   0.547  0.00  0.00    +0.152 C 
ATOM     10  C   UNL     1      -1.375  -5.684  -0.133  0.00  0.00    +0.110 C 
ATOM     11  C   UNL     1      -1.316  -6.058  -1.581  0.00  0.00    +0.232 C 
ATOM     12  O   UNL     1      -0.586  -5.588  -2.428  0.00  0.00    -0.274 OA
ATOM     13  N   UNL     1      -2.244  -7.029  -1.751  0.00  0.00    -0.209 N 
ATOM     14  C   UNL     1      -2.771  -7.488  -0.596  0.00  0.00    +0.240 C 
ATOM     15  O   UNL     1      -3.750  -8.193  -0.480  0.00  0.00    -0.274 OA
ENDROOT
BRANCH  13  16
ATOM     16  C   UNL     1      -2.630  -7.506  -3.012  0.00  0.00    +0.044 A 
ATOM     17  C   UNL     1      -2.049  -6.985  -4.160  0.00  0.00    +0.025 A 
ATOM     18  C   UNL     1      -2.431  -7.457  -5.401  0.00  0.00    +0.022 A 
ATOM     19  C   UNL     1      -3.391  -8.448  -5.500  0.00  0.00    +0.041 A 
ATOM     20  C   UNL     1      -3.972  -8.969  -4.357  0.00  0.00    +0.022 A 
ATOM     21  C   UNL     1      -3.589  -8.505  -3.114  0.00  0.00    +0.025 A 
ATOM     22 CL   UNL     1      -3.869  -9.039  -7.061  0.00  0.00    -0.084 Cl
ENDBRANCH  13  16
BRANCH   1  25
ATOM     23  C   UNL     1       0.370  -1.904  -1.649  0.00  0.00    +0.162 A 
ATOM     24  C   UNL     1      -0.163  -2.762  -0.700  0.00  0.00    +0.053 A 
ATOM     25  C   UNL     1       0.352  -4.037  -0.555  0.00  0.00    -0.035 A 
ATOM     26  C   UNL     1       1.398  -4.459  -1.354  0.00  0.00    +0.008 A 
ATOM     27  C   UNL     1       1.934  -3.608  -2.302  0.00  0.00    +0.049 A 
ATOM     28  C   UNL     1       1.419  -2.331  -2.458  0.00  0.00    +0.158 A 
BRANCH  28  29
ATOM     29  O   UNL     1       1.942  -1.495  -3.394  0.00  0.00    -0.503 OA
ATOM     30  H   UNL     1       2.673  -0.951  -3.071  0.00  0.00    +0.292 HD
ENDBRANCH  28  29
BRANCH  23  31
ATOM     31  O   UNL     1      -0.135  -0.650  -1.794  0.00  0.00    -0.489 OA
BRANCH  31  33
ATOM     32  C   UNL     1      -1.643   1.155  -1.238  0.00  0.00    +0.048 C 
ATOM     33  C   UNL     1      -1.212  -0.280  -0.930  0.00  0.00    +0.226 C 
ENDBRANCH  31  33
ENDBRANCH  23  31
ENDBRANCH   1  25
TORSDOF 5
