REMARK  Name = ZINC65265769
REMARK  5 active torsions:
REMARK  status: ('A' for Active; 'I' for Inactive)
REMARK    1  A    between atoms: C_1  and  O_2
REMARK    2  A    between atoms: O_2  and  C_3
REMARK    3  A    between atoms: C_3  and  C_4
REMARK    4  A    between atoms: C_4  and  N_5
REMARK    5  A    between atoms: C_21  and  C_23
REMARK                            x       y       z     vdW  Elec       q    Type
REMARK                         _______ _______ _______ _____ _____    ______ ____
ROOT
ATOM      1  N   UNL     1      -0.515  -2.565   1.245  0.00  0.00    -0.373 N 
ATOM      2  C   UNL     1      -0.296  -3.823   1.450  0.00  0.00    +0.095 C 
ATOM      3  N   UNL     1      -0.643  -4.776   0.524  0.00  0.00    -0.303 N 
ATOM      4  C   UNL     1       0.290  -5.147  -0.440  0.00  0.00    +0.037 A 
ATOM      5  C   UNL     1      -0.093  -5.266  -1.768  0.00  0.00    +0.023 A 
ATOM      6  C   UNL     1       0.826  -5.648  -2.724  0.00  0.00    +0.002 A 
ATOM      7  C   UNL     1       2.131  -5.911  -2.346  0.00  0.00    +0.000 A 
ATOM      8  C   UNL     1       2.513  -5.787  -1.028  0.00  0.00    +0.007 A 
ATOM      9  C   UNL     1       1.601  -5.396  -0.052  0.00  0.00    -0.012 A 
ATOM     10  C   UNL     1       2.127  -5.252   1.353  0.00  0.00    +0.119 C 
ATOM     11  N   UNL     1       1.110  -5.535   2.373  0.00  0.00    -0.299 NA
ATOM     12  C   UNL     1       0.350  -4.311   2.702  0.00  0.00    +0.091 C 
ATOM     13  C   UNL     1       1.291  -3.251   3.306  0.00  0.00    +0.050 C 
ATOM     14  C   UNL     1       1.320  -3.678   4.796  0.00  0.00    +0.110 C 
ATOM     15  N   UNL     1      -0.045  -4.163   5.079  0.00  0.00    -0.294 N 
ATOM     16  C   UNL     1      -0.665  -4.590   3.813  0.00  0.00    +0.138 C 
ATOM     17  C   UNL     1      -0.627  -4.208   6.294  0.00  0.00    +0.265 C 
ATOM     18  O   UNL     1      -1.761  -4.629   6.409  0.00  0.00    -0.268 OA
ATOM     19  H   UNL     1      -0.257  -1.913   1.914  0.00  0.00    +0.161 HD
ATOM     20  H   UNL     1       0.494  -6.277   2.074  0.00  0.00    +0.123 HD
ATOM     21  H   UNL     1      -1.523  -5.183   0.540  0.00  0.00    +0.153 HD
ENDROOT
BRANCH  17  22
ATOM     22  C   UNL     1       0.116  -3.743   7.490  0.00  0.00    +0.126 A 
ATOM     23  C   UNL     1      -0.503  -3.802   8.747  0.00  0.00    +0.033 A 
ATOM     24  C   UNL     1       0.171  -3.378   9.856  0.00  0.00    +0.012 A 
ATOM     25  C   UNL     1       1.481  -2.890   9.694  0.00  0.00    +0.000 A 
ATOM     26  C   UNL     1       2.232  -2.437  10.790  0.00  0.00    +0.010 A 
ATOM     27  C   UNL     1       3.496  -1.972  10.595  0.00  0.00    +0.001 A 
ATOM     28  C   UNL     1       4.058  -1.938   9.319  0.00  0.00    +0.002 A 
ATOM     29  C   UNL     1       3.361  -2.368   8.234  0.00  0.00    +0.028 A 
ATOM     30  C   UNL     1       2.050  -2.856   8.394  0.00  0.00    +0.072 A 
ATOM     31  N   UNL     1       1.346  -3.289   7.348  0.00  0.00    -0.242 NA
ENDBRANCH  17  22
BRANCH   1  32
ATOM     32  C   UNL     1      -1.154  -2.126   0.002  0.00  0.00    +0.141 C 
BRANCH  32  33
ATOM     33  C   UNL     1      -1.295  -0.603   0.011  0.00  0.00    +0.180 C 
BRANCH  33  35
ATOM     34  C   UNL     1      -0.017   1.425   0.010  0.00  0.00    +0.194 C 
ATOM     35  O   UNL     1       0.002  -0.004   0.002  0.00  0.00    -0.381 OA
ENDBRANCH  33  35
ENDBRANCH  32  33
ENDBRANCH   1  32
TORSDOF 4
