REMARK  Name = ZINC65966077
REMARK  4 active torsions:
REMARK  status: ('A' for Active; 'I' for Inactive)
REMARK    1  A    between atoms: C_8  and  C_11
REMARK    2  A    between atoms: N_14  and  C_17
REMARK    3  A    between atoms: C_17  and  C_18
REMARK    4  A    between atoms: C_18  and  C_19
REMARK                            x       y       z     vdW  Elec       q    Type
REMARK                         _______ _______ _______ _____ _____    ______ ____
ROOT
ATOM      1  C   UNL     1       3.768  -3.404  -0.053  0.00  0.00    +0.032 C 
ATOM      2  C   UNL     1       4.147  -3.750  -1.496  0.00  0.00    -0.009 C 
ATOM      3  C   UNL     1       5.047  -4.987  -1.498  0.00  0.00    -0.078 C 
ATOM      4  N   UNL     1       6.263  -4.713  -0.723  0.00  0.00    +0.380 N 
ATOM      5  C   UNL     1       5.913  -4.450   0.678  0.00  0.00    -0.078 C 
ATOM      6  C   UNL     1       5.046  -3.192   0.763  0.00  0.00    -0.009 C 
ATOM      7  H   UNL     1       6.732  -3.906  -1.109  0.00  0.00    -0.082 HD
ENDROOT
BRANCH   1  15
ATOM      8  C   UNL     1      -0.017   1.362   0.009  0.00  0.00    +0.001 A 
ATOM      9  C   UNL     1       1.170   2.083   0.002  0.00  0.00    +0.002 A 
ATOM     10  C   UNL     1       2.386   1.436  -0.013  0.00  0.00    +0.026 A 
ATOM     11  C   UNL     1       2.428   0.046  -0.021  0.00  0.00    +0.047 A 
ATOM     12  C   UNL     1       1.223  -0.681  -0.013  0.00  0.00    -0.000 A 
ATOM     13  C   UNL     1       0.002  -0.004   0.002  0.00  0.00    +0.010 A 
ATOM     14  C   UNL     1       1.604  -2.095  -0.025  0.00  0.00    +0.031 A 
ATOM     15  C   UNL     1       2.945  -2.141  -0.038  0.00  0.00    +0.020 A 
ATOM     16  N   UNL     1       3.455  -0.871  -0.036  0.00  0.00    -0.358 N 
ATOM     17  H   UNL     1       4.399  -0.650  -0.044  0.00  0.00    +0.166 HD
ENDBRANCH   1  15
BRANCH   4  18
ATOM     18  C   UNL     1       7.159  -5.875  -0.793  0.00  0.00    -0.071 C 
BRANCH  18  19
ATOM     19  C   UNL     1       8.478  -5.545  -0.091  0.00  0.00    +0.056 C 
BRANCH  19  20
ATOM     20  C   UNL     1       9.397  -6.737  -0.163  0.00  0.00    +0.109 A 
ATOM     21  N   UNL     1      10.624  -6.640   0.413  0.00  0.00    -0.310 N 
ATOM     22  H   UNL     1      10.884  -5.816   0.854  0.00  0.00    +0.170 HD
ATOM     23  C   UNL     1      11.486  -7.683   0.377  0.00  0.00    +0.259 A 
ATOM     24  O   UNL     1      12.588  -7.610   0.889  0.00  0.00    -0.267 OA
ATOM     25  C   UNL     1      11.040  -8.907  -0.305  0.00  0.00    +0.065 A 
ATOM     26  C   UNL     1      11.851 -10.036  -0.398  0.00  0.00    +0.015 A 
ATOM     27  C   UNL     1      11.382 -11.156  -1.049  0.00  0.00    +0.001 A 
ATOM     28  C   UNL     1      10.112 -11.168  -1.610  0.00  0.00    +0.002 A 
ATOM     29  C   UNL     1       9.295 -10.062  -1.529  0.00  0.00    +0.028 A 
ATOM     30  C   UNL     1       9.748  -8.915  -0.874  0.00  0.00    +0.078 A 
ATOM     31  N   UNL     1       8.974  -7.806  -0.766  0.00  0.00    -0.234 NA
ENDBRANCH  19  20
ENDBRANCH  18  19
ENDBRANCH   4  18
TORSDOF 4
