REMARK  Name = ZINC66599560
REMARK  11 active torsions:
REMARK  status: ('A' for Active; 'I' for Inactive)
REMARK    1  A    between atoms: C_1  and  C_2
REMARK    2  A    between atoms: C_2  and  C_3
REMARK    3  A    between atoms: C_3  and  C_4
REMARK    4  A    between atoms: C_4  and  N_5
REMARK    5  A    between atoms: C_10  and  C_12
REMARK    6  A    between atoms: C_12  and  N_13
REMARK    7  A    between atoms: N_16  and  C_17
REMARK    8  A    between atoms: C_17  and  C_18
REMARK    9  A    between atoms: C_18  and  N_19
REMARK   10  A    between atoms: C_20  and  C_22
REMARK   11  A    between atoms: C_25  and  O_28
REMARK                            x       y       z     vdW  Elec       q    Type
REMARK                         _______ _______ _______ _____ _____    ______ ____
ROOT
ATOM      1  N   UNL     1      -0.448  -3.886  -1.189  0.00  0.00    -0.301 N 
ATOM      2  C   UNL     1       0.460  -4.008  -2.177  0.00  0.00    +0.300 C 
ATOM      3  O   UNL     1       0.147  -4.529  -3.230  0.00  0.00    -0.253 OA
ATOM      4  N   UNL     1       1.716  -3.552  -1.998  0.00  0.00    -0.298 N 
ATOM      5  H   UNL     1      -0.199  -3.470  -0.349  0.00  0.00    +0.150 HD
ATOM      6  H   UNL     1       1.966  -3.136  -1.158  0.00  0.00    +0.150 HD
ENDROOT
BRANCH   1   7
ATOM      7  C   UNL     1      -1.813  -4.381  -1.384  0.00  0.00    +0.090 C 
BRANCH   7  13
ATOM      8  N   UNL     1      -2.021  -4.517   1.051  0.00  0.00    +0.383 N 
ATOM      9  C   UNL     1      -2.870  -4.238   2.215  0.00  0.00    -0.078 C 
ATOM     10  C   UNL     1      -3.022  -2.725   2.390  0.00  0.00    -0.019 C 
ATOM     11  C   UNL     1      -3.666  -2.134   1.133  0.00  0.00    -0.003 C 
ATOM     12  C   UNL     1      -2.811  -2.495  -0.085  0.00  0.00    -0.014 C 
ATOM     13  C   UNL     1      -2.667  -4.016  -0.168  0.00  0.00    -0.051 C 
ATOM     14  H   UNL     1      -1.129  -4.060   1.170  0.00  0.00    -0.081 HD
BRANCH   8  15
ATOM     15  C   UNL     1      -1.814  -5.966   0.933  0.00  0.00    -0.078 C 
BRANCH  15  16
ATOM     16  C   UNL     1      -1.016  -6.467   2.138  0.00  0.00    -0.019 C 
BRANCH  16  18
ATOM     17  C   UNL     1      -0.002  -8.478   3.221  0.00  0.00    +0.004 C 
ATOM     18  C   UNL     1      -0.800  -7.977   2.016  0.00  0.00    -0.005 C 
ENDBRANCH  16  18
ENDBRANCH  15  16
ENDBRANCH   8  15
ENDBRANCH   7  13
ENDBRANCH   1   7
BRANCH   4  19
ATOM     19  C   UNL     1       2.704  -3.685  -3.072  0.00  0.00    +0.124 C 
BRANCH  19  20
ATOM     20  C   UNL     1       4.038  -3.092  -2.613  0.00  0.00    +0.123 C 
BRANCH  20  21
ATOM     21  N   UNL     1       5.026  -3.225  -3.687  0.00  0.00    -0.310 N 
ATOM     22  C   UNL     1       6.281  -2.769  -3.508  0.00  0.00    +0.244 C 
ATOM     23  O   UNL     1       6.594  -2.248  -2.455  0.00  0.00    -0.270 OA
ATOM     24  H   UNL     1       4.776  -3.641  -4.527  0.00  0.00    +0.149 HD
BRANCH  22  25
ATOM     25  C   UNL     1       7.277  -2.903  -4.590  0.00  0.00    +0.037 A 
ATOM     26  C   UNL     1       6.917  -3.496  -5.803  0.00  0.00    +0.016 A 
ATOM     27  C   UNL     1       7.848  -3.619  -6.810  0.00  0.00    +0.046 A 
ATOM     28  C   UNL     1       9.144  -3.153  -6.621  0.00  0.00    +0.117 A 
ATOM     29  C   UNL     1       9.506  -2.563  -5.415  0.00  0.00    +0.046 A 
ATOM     30  C   UNL     1       8.579  -2.431  -4.406  0.00  0.00    +0.016 A 
BRANCH  28  31
ATOM     31  O   UNL     1      10.059  -3.276  -7.615  0.00  0.00    -0.507 OA
ATOM     32  H   UNL     1      10.087  -2.522  -8.220  0.00  0.00    +0.292 HD
ENDBRANCH  28  31
ENDBRANCH  22  25
ENDBRANCH  20  21
ENDBRANCH  19  20
ENDBRANCH   4  19
TORSDOF 10
