REMARK  Name = ZINC10637344
REMARK  6 active torsions:
REMARK  status: ('A' for Active; 'I' for Inactive)
REMARK    1  A    between atoms: C_1  and  C_2
REMARK    2  A    between atoms: C_2  and  C_4
REMARK    3  A    between atoms: C_2  and  C_22
REMARK    4  A    between atoms: C_4  and  N_5
REMARK    5  A    between atoms: C_6  and  C_8
REMARK    6  A    between atoms: N_30  and  C_31
REMARK                            x       y       z     vdW  Elec       q    Type
REMARK                         _______ _______ _______ _____ _____    ______ ____
ROOT
ATOM      1  N   UNL     1       2.534   8.723  -1.291  0.00  0.00    -0.311 N 
ATOM      2  C   UNL     1       2.331   9.585  -2.307  0.00  0.00    +0.244 C 
ATOM      3  O   UNL     1       1.516   9.325  -3.171  0.00  0.00    -0.270 OA
ATOM      4  H   UNL     1       3.184   8.931  -0.602  0.00  0.00    +0.149 HD
ENDROOT
BRANCH   2   5
ATOM      5  C   UNL     1       3.099  10.845  -2.371  0.00  0.00    +0.037 A 
ATOM      6  C   UNL     1       4.035  11.146  -1.371  0.00  0.00    +0.015 A 
ATOM      7  C   UNL     1       4.756  12.302  -1.420  0.00  0.00    +0.027 A 
ATOM      8  C   UNL     1       4.563  13.207  -2.462  0.00  0.00    +0.047 A 
ATOM      9  C   UNL     1       3.620  12.919  -3.471  0.00  0.00    +0.004 A 
ATOM     10  C   UNL     1       2.890  11.734  -3.420  0.00  0.00    +0.023 A 
ATOM     11  C   UNL     1       3.664  14.051  -4.391  0.00  0.00    -0.019 A 
ATOM     12  C   UNL     1       4.582  14.916  -3.920  0.00  0.00    +0.020 A 
ATOM     13  N   UNL     1       5.126  14.424  -2.767  0.00  0.00    -0.358 N 
ATOM     14  H   UNL     1       5.810  14.867  -2.241  0.00  0.00    +0.166 HD
ATOM     15  C   UNL     1       4.925  16.223  -4.596  0.00  0.00    +0.053 C 
ATOM     16  C   UNL     1       4.406  16.178  -6.038  0.00  0.00    +0.006 C 
ATOM     17  C   UNL     1       2.939  15.738  -6.039  0.00  0.00    +0.005 C 
ATOM     18  C   UNL     1       2.853  14.259  -5.644  0.00  0.00    +0.037 C 
ENDBRANCH   2   5
BRANCH   1  19
ATOM     19  C   UNL     1       1.772   7.474  -1.227  0.00  0.00    +0.115 C 
BRANCH  19  21
ATOM     20  C   UNL     1       1.795   7.463   1.271  0.00  0.00    +0.017 C 
ATOM     21  C   UNL     1       2.190   6.684   0.015  0.00  0.00    +0.069 C 
BRANCH  21  22
ATOM     22  C   UNL     1       1.497   5.345   0.015  0.00  0.00    +0.119 A 
ATOM     23  N   UNL     1       0.208   5.173   0.027  0.00  0.00    -0.232 NA
ATOM     24  C   UNL     1      -0.075   3.845   0.023  0.00  0.00    +0.089 A 
ATOM     25  C   UNL     1      -1.266   3.114   0.031  0.00  0.00    +0.030 A 
ATOM     26  C   UNL     1      -1.226   1.748   0.017  0.00  0.00    +0.002 A 
ATOM     27  C   UNL     1      -0.013   1.076   0.008  0.00  0.00    +0.002 A 
ATOM     28  C   UNL     1       1.175   1.777   0.000  0.00  0.00    +0.028 A 
ATOM     29  C   UNL     1       1.154   3.165   0.008  0.00  0.00    +0.074 A 
ATOM     30  N   UNL     1       2.130   4.141   0.003  0.00  0.00    -0.270 N 
BRANCH  30  31
ATOM     31  C   UNL     1       3.578   3.921  -0.012  0.00  0.00    +0.449 C 
ATOM     32  F   UNL     1       3.861   2.725  -0.680  0.00  0.00    -0.185 F 
ATOM     33  F   UNL     1       4.205   4.983  -0.672  0.00  0.00    -0.185 F 
ENDBRANCH  30  31
ENDBRANCH  21  22
ENDBRANCH  19  21
ENDBRANCH   1  19
TORSDOF 5
