REMARK  Name = ZINC12495851
REMARK  8 active torsions:
REMARK  status: ('A' for Active; 'I' for Inactive)
REMARK    1  A    between atoms: C_1  and  N_2
REMARK    2  A    between atoms: C_7  and  C_26
REMARK    3  A    between atoms: C_9  and  C_14
REMARK    4  A    between atoms: C_9  and  C_22
REMARK    5  A    between atoms: C_14  and  C_15
REMARK    6  A    between atoms: C_18  and  O_21
REMARK    7  A    between atoms: C_22  and  O_24
REMARK    8  A    between atoms: O_24  and  C_25
REMARK                            x       y       z     vdW  Elec       q    Type
REMARK                         _______ _______ _______ _____ _____    ______ ____
ROOT
ATOM      1  C   UNL     1       1.523  -1.697   1.255  0.00  0.00    +0.141 C 
ATOM      2  N   UNL     1       1.220  -0.352   0.759  0.00  0.00    -0.245 N 
ATOM      3  C   UNL     1       2.011   0.737   0.992  0.00  0.00    +0.224 C 
ATOM      4  O   UNL     1       2.885   0.842   1.827  0.00  0.00    -0.275 OA
ATOM      5  C   UNL     1       1.574   1.780  -0.001  0.00  0.00    +0.077 C 
ATOM      6  C   UNL     1       1.420   3.231   0.452  0.00  0.00    -0.027 C 
ATOM      7  C   UNL     1      -0.559   2.503  -0.740  0.00  0.00    +0.048 C 
ATOM      8  C   UNL     1       0.042   1.390   0.015  0.00  0.00    +0.086 C 
ATOM      9  C   UNL     1       0.110  -0.050   0.009  0.00  0.00    +0.225 C 
ATOM     10  O   UNL     1      -0.646  -0.824  -0.538  0.00  0.00    -0.275 OA
ATOM     11  N   UNL     1       0.137   3.687  -0.143  0.00  0.00    +0.396 N 
ATOM     12  H   UNL     1       0.322   4.384  -0.874  0.00  0.00    -0.083 HD
ATOM     13  H   UNL     1      -0.454   4.104   0.586  0.00  0.00    -0.083 HD
ENDROOT
BRANCH   6  14
ATOM     14  C   UNL     1       1.357   3.304   1.956  0.00  0.00    -0.060 A 
ATOM     15  C   UNL     1       0.143   3.166   2.604  0.00  0.00    +0.005 A 
ATOM     16  C   UNL     1       0.085   3.227   3.983  0.00  0.00    +0.038 A 
ATOM     17  C   UNL     1       1.241   3.437   4.716  0.00  0.00    +0.123 A 
ATOM     18  C   UNL     1       2.455   3.580   4.066  0.00  0.00    +0.038 A 
ATOM     19  C   UNL     1       2.512   3.513   2.686  0.00  0.00    +0.005 A 
ATOM     20  F   UNL     1       1.184   3.502   6.064  0.00  0.00    -0.205 F 
ENDBRANCH   6  14
BRANCH   7  21
ATOM     21  C   UNL     1      -2.046   2.570  -0.506  0.00  0.00    +0.297 C 
ATOM     22  O   UNL     1      -2.652   1.577  -0.180  0.00  0.00    -0.252 OA
BRANCH  21  23
ATOM     23  O   UNL     1      -2.698   3.734  -0.659  0.00  0.00    -0.469 OA
ATOM     24  C   UNL     1      -4.130   3.724  -0.417  0.00  0.00    +0.280 C 
ENDBRANCH  21  23
ENDBRANCH   7  21
BRANCH   7  25
ATOM     25  C   UNL     1      -0.248   2.382  -2.233  0.00  0.00    +0.034 C 
BRANCH  25  26
ATOM     26  C   UNL     1      -0.771   3.597  -2.955  0.00  0.00    -0.048 A 
ATOM     27  C   UNL     1      -2.057   3.596  -3.464  0.00  0.00    +0.007 A 
ATOM     28  C   UNL     1      -2.541   4.711  -4.122  0.00  0.00    +0.045 A 
ATOM     29  C   UNL     1      -1.731   5.826  -4.282  0.00  0.00    +0.117 A 
ATOM     30  C   UNL     1      -0.440   5.822  -3.775  0.00  0.00    +0.045 A 
ATOM     31  C   UNL     1       0.037   4.707  -3.113  0.00  0.00    +0.007 A 
BRANCH  29  32
ATOM     32  O   UNL     1      -2.203   6.921  -4.934  0.00  0.00    -0.507 OA
ATOM     33  H   UNL     1      -2.040   6.912  -5.887  0.00  0.00    +0.292 HD
ENDBRANCH  29  32
ENDBRANCH  25  26
ENDBRANCH   7  25
TORSDOF 6
