REMARK  Name = ZINC35807041
REMARK  13 active torsions:
REMARK  status: ('A' for Active; 'I' for Inactive)
REMARK    1  A    between atoms: C_1  and  O_2
REMARK    2  A    between atoms: O_2  and  C_3
REMARK    3  A    between atoms: C_5  and  C_10
REMARK    4  A    between atoms: C_8  and  O_9
REMARK    5  A    between atoms: C_18  and  O_43
REMARK    6  A    between atoms: N_21  and  C_22
REMARK    7  A    between atoms: C_22  and  C_23
REMARK    8  A    between atoms: N_25  and  C_26
REMARK    9  A    between atoms: C_26  and  C_28
REMARK   10  A    between atoms: C_26  and  C_39
REMARK   11  A    between atoms: C_28  and  C_29
REMARK   12  A    between atoms: C_39  and  O_41
REMARK   13  A    between atoms: O_41  and  C_42
REMARK                            x       y       z     vdW  Elec       q    Type
REMARK                         _______ _______ _______ _____ _____    ______ ____
ROOT
ATOM      1  C   UNL     1      -4.871   0.257   0.037  0.00  0.00    -0.031 C 
ATOM      2  C   UNL     1      -5.427   0.315   1.464  0.00  0.00    +0.011 C 
ATOM      3  C   UNL     1      -5.719  -1.108   1.945  0.00  0.00    +0.005 C 
ATOM      4  C   UNL     1      -6.307  -1.062   3.357  0.00  0.00    +0.000 C 
ATOM      5  C   UNL     1      -7.611  -0.261   3.337  0.00  0.00    +0.003 C 
ATOM      6  C   UNL     1      -7.322   1.165   2.864  0.00  0.00    +0.035 C 
ATOM      7  C   UNL     1      -6.716   1.141   1.461  0.00  0.00    +0.066 C 
ATOM      8  C   UNL     1      -7.713   0.512   0.485  0.00  0.00    +0.016 C 
ATOM      9  C   UNL     1      -7.076   0.437  -0.905  0.00  0.00    -0.075 C 
ATOM     10  N   UNL     1      -5.857  -0.378  -0.846  0.00  0.00    +0.390 N 
ATOM     11  H   UNL     1      -6.084  -1.294  -0.491  0.00  0.00    -0.080 HD
ENDROOT
BRANCH   1  14
ATOM     12  C   UNL     1      -1.201  -0.638   0.010  0.00  0.00    +0.161 A 
ATOM     13  C   UNL     1      -2.374   0.099   0.019  0.00  0.00    +0.051 A 
ATOM     14  C   UNL     1      -3.596  -0.546   0.027  0.00  0.00    -0.057 A 
ATOM     15  C   UNL     1      -3.652  -1.928   0.026  0.00  0.00    +0.006 A 
ATOM     16  C   UNL     1      -2.485  -2.669   0.017  0.00  0.00    +0.049 A 
ATOM     17  C   UNL     1      -1.257  -2.028   0.003  0.00  0.00    +0.158 A 
BRANCH  12  19
ATOM     18  C   UNL     1      -0.017   1.425   0.010  0.00  0.00    +0.277 C 
ATOM     19  O   UNL     1       0.002  -0.004   0.002  0.00  0.00    -0.491 OA
ENDBRANCH  12  19
BRANCH  17  20
ATOM     20  O   UNL     1      -0.108  -2.756  -0.012  0.00  0.00    -0.503 OA
ATOM     21  H   UNL     1       0.232  -2.972   0.867  0.00  0.00    +0.292 HD
ENDBRANCH  17  20
ENDBRANCH   1  14
BRANCH   7  22
ATOM     22  O   UNL     1      -6.424   2.474   1.037  0.00  0.00    -0.388 OA
ATOM     23  H   UNL     1      -7.195   3.056   1.011  0.00  0.00    +0.210 HD
ENDBRANCH   7  22
BRANCH  10  24
ATOM     24  C   UNL     1      -5.291  -0.506  -2.196  0.00  0.00    +0.019 C 
BRANCH  24  25
ATOM     25  C   UNL     1      -6.252  -1.267  -3.073  0.00  0.00    +0.197 C 
ATOM     26  O   UNL     1      -7.304  -1.663  -2.619  0.00  0.00    -0.278 OA
ATOM     27  N   UNL     1      -5.941  -1.507  -4.362  0.00  0.00    -0.304 N 
ATOM     28  H   UNL     1      -5.099  -1.190  -4.725  0.00  0.00    +0.149 HD
BRANCH  27  29
ATOM     29  C   UNL     1      -6.875  -2.247  -5.215  0.00  0.00    +0.186 C 
BRANCH  29  30
ATOM     30  C   UNL     1      -6.654  -3.727  -5.037  0.00  0.00    +0.328 C 
ATOM     31  O   UNL     1      -5.804  -4.123  -4.275  0.00  0.00    -0.249 OA
BRANCH  30  32
ATOM     32  O   UNL     1      -7.402  -4.604  -5.724  0.00  0.00    -0.467 OA
ATOM     33  C   UNL     1      -7.138  -5.992  -5.505  0.00  0.00    +0.280 C 
ENDBRANCH  30  32
ENDBRANCH  29  30
BRANCH  29  34
ATOM     34  C   UNL     1      -6.638  -1.868  -6.678  0.00  0.00    +0.071 C 
BRANCH  34  35
ATOM     35  C   UNL     1      -6.977  -0.414  -6.883  0.00  0.00    -0.020 A 
ATOM     36  C   UNL     1      -8.150   0.080  -7.310  0.00  0.00    +0.087 A 
ATOM     37  N   UNL     1      -8.086   1.445  -7.373  0.00  0.00    -0.360 N 
ATOM     38  H   UNL     1      -8.812   2.024  -7.654  0.00  0.00    +0.165 HD
ATOM     39  C   UNL     1      -6.840   1.874  -6.977  0.00  0.00    +0.047 A 
ATOM     40  C   UNL     1      -6.092   0.729  -6.646  0.00  0.00    +0.003 A 
ATOM     41  C   UNL     1      -4.776   0.861  -6.201  0.00  0.00    +0.010 A 
ATOM     42  C   UNL     1      -4.220   2.104  -6.085  0.00  0.00    +0.001 A 
ATOM     43  C   UNL     1      -4.954   3.237  -6.406  0.00  0.00    +0.002 A 
ATOM     44  C   UNL     1      -6.252   3.129  -6.856  0.00  0.00    +0.026 A 
ENDBRANCH  34  35
ENDBRANCH  29  34
ENDBRANCH  27  29
ENDBRANCH  24  25
ENDBRANCH  10  24
TORSDOF 11
