REMARK  Name = ZINC03136337
REMARK  5 active torsions:
REMARK  status: ('A' for Active; 'I' for Inactive)
REMARK    1  A    between atoms: C_1  and  C_2
REMARK    2  A    between atoms: C_5  and  S_8
REMARK    3  A    between atoms: S_8  and  N_11
REMARK    4  A    between atoms: N_11  and  N_12
REMARK    5  A    between atoms: C_16  and  C_23
REMARK                            x       y       z     vdW  Elec       q    Type
REMARK                         _______ _______ _______ _____ _____    ______ ____
ROOT
ATOM      1  N   UNL     1       2.465  -3.673   4.094  0.00  0.00    -0.136 N 
ATOM      2  H   UNL     1       1.523  -3.900   4.059  0.00  0.00    +0.197 HD
ENDROOT
BRANCH   1   3
ATOM      3  N   UNL     1       2.891  -2.392   3.718  0.00  0.00    -0.167 NA
ATOM      4  C   UNL     1       2.017  -1.502   3.319  0.00  0.00    +0.083 C 
ATOM      5  C   UNL     1       0.553  -1.789   3.243  0.00  0.00    +0.026 C 
ATOM      6  C   UNL     1      -0.067  -1.291   2.156  0.00  0.00    -0.014 C 
ATOM      7  C   UNL     1       0.789  -0.569   1.153  0.00  0.00    +0.008 C 
ATOM      8  C   UNL     1       0.002  -0.004   0.002  0.00  0.00    +0.015 C 
ATOM      9  C   UNL     1      -0.019   1.523   0.010  0.00  0.00    +0.001 C 
ATOM     10  C   UNL     1       1.436   2.017  -0.001  0.00  0.00    +0.004 C 
ATOM     11  C   UNL     1       2.005   1.768   1.404  0.00  0.00    +0.032 C 
ATOM     12  C   UNL     1       1.755   0.348   1.820  0.00  0.00    -0.058 C 
ATOM     13  C   UNL     1       2.406  -0.121   2.906  0.00  0.00    +0.029 C 
ATOM     14  C   UNL     1       1.658  -1.665   0.532  0.00  0.00    +0.020 C 
ENDBRANCH   1   3
BRANCH   1  15
ATOM     15  S   UNL     1       3.570  -4.798   4.598  0.00  0.00    +0.086 S 
ATOM     16  O   UNL     1       2.828  -5.926   5.040  0.00  0.00    -0.149 OA
ATOM     17  O   UNL     1       4.554  -4.886   3.576  0.00  0.00    -0.149 OA
BRANCH  15  22
ATOM     18  C   UNL     1       6.330  -2.534   9.462  0.00  0.00    +0.044 C 
ATOM     19  C   UNL     1       5.641  -3.100   8.247  0.00  0.00    -0.050 A 
ATOM     20  C   UNL     1       4.495  -3.859   8.393  0.00  0.00    +0.005 A 
ATOM     21  C   UNL     1       3.863  -4.378   7.279  0.00  0.00    +0.029 A 
ATOM     22  C   UNL     1       4.376  -4.137   6.018  0.00  0.00    +0.110 A 
ATOM     23  C   UNL     1       5.525  -3.383   5.872  0.00  0.00    +0.029 A 
ATOM     24  C   UNL     1       6.155  -2.861   6.987  0.00  0.00    +0.005 A 
ENDBRANCH  15  22
ENDBRANCH   1  15
TORSDOF 3
