REMARK  Name = ZINC39657087
REMARK  8 active torsions:
REMARK  status: ('A' for Active; 'I' for Inactive)
REMARK    1  A    between atoms: C_1  and  C_2
REMARK    2  A    between atoms: C_2  and  C_4
REMARK    3  A    between atoms: C_2  and  N_11
REMARK    4  A    between atoms: C_12  and  C_14
REMARK    5  A    between atoms: C_25  and  C_27
REMARK    6  A    between atoms: C_27  and  C_28
REMARK    7  A    between atoms: C_28  and  C_29
REMARK    8  A    between atoms: C_29  and  C_30
REMARK                            x       y       z     vdW  Elec       q    Type
REMARK                         _______ _______ _______ _____ _____    ______ ____
ROOT
ATOM      1  C   UNL     1       2.783  -1.099   2.395  0.00  0.00    +0.100 C 
ATOM      2  C   UNL     1       2.678  -0.070   3.542  0.00  0.00    +0.121 C 
ATOM      3  N   UNL     1       3.999  -0.120   4.212  0.00  0.00    -0.300 N 
ATOM      4  C   UNL     1       4.971  -0.257   3.101  0.00  0.00    +0.115 C 
ATOM      5  C   UNL     1       4.289  -1.219   2.107  0.00  0.00    -0.004 C 
ATOM      6  C   UNL     1       4.589  -0.794   0.673  0.00  0.00    -0.010 C 
ATOM      7  C   UNL     1       6.083  -0.977   0.393  0.00  0.00    -0.082 C 
ATOM      8  N   UNL     1       6.452  -2.383   0.596  0.00  0.00    +0.379 N 
ATOM      9  C   UNL     1       6.248  -2.757   2.001  0.00  0.00    -0.082 C 
ATOM     10  C   UNL     1       4.761  -2.649   2.349  0.00  0.00    -0.010 C 
ATOM     11  C   UNL     1       4.258  -0.057   5.533  0.00  0.00    +0.216 C 
ATOM     12  O   UNL     1       5.402  -0.111   5.930  0.00  0.00    -0.276 OA
ATOM     13  H   UNL     1       5.879  -2.968   0.007  0.00  0.00    -0.086 HD
ATOM     14  H   UNL     1       7.423  -2.513   0.352  0.00  0.00    -0.086 HD
ENDROOT
BRANCH   1  16
ATOM     15  N   UNL     1       1.519  -1.478   0.302  0.00  0.00    -0.308 N 
ATOM     16  C   UNL     1       2.054  -0.600   1.174  0.00  0.00    +0.219 C 
ATOM     17  O   UNL     1       1.948   0.592   0.976  0.00  0.00    -0.275 OA
ATOM     18  H   UNL     1       1.603  -2.431   0.461  0.00  0.00    +0.149 HD
BRANCH  15  20
ATOM     19  C   UNL     1      -0.645  -0.691  -0.522  0.00  0.00    +0.033 C 
ATOM     20  C   UNL     1       0.810  -0.993  -0.885  0.00  0.00    +0.100 C 
BRANCH  20  21
ATOM     21  C   UNL     1       0.852  -2.047  -1.961  0.00  0.00    -0.027 A 
ATOM     22  C   UNL     1       0.689  -3.379  -1.629  0.00  0.00    +0.006 A 
ATOM     23  C   UNL     1       0.726  -4.347  -2.615  0.00  0.00    +0.015 A 
ATOM     24  C   UNL     1       0.926  -3.982  -3.935  0.00  0.00    +0.018 A 
ATOM     25  C   UNL     1       1.090  -2.649  -4.266  0.00  0.00    +0.015 A 
ATOM     26  C   UNL     1       1.047  -1.681  -3.279  0.00  0.00    +0.006 A 
ATOM     27 BR   UNL     1       0.978  -5.305  -5.285  0.00  0.00    -0.050 Br
ENDBRANCH  20  21
ENDBRANCH  15  20
ENDBRANCH   1  16
BRANCH  11  28
ATOM     28  C   UNL     1       3.125   0.083   6.517  0.00  0.00    +0.096 C 
BRANCH  28  29
ATOM     29  C   UNL     1       3.688   0.131   7.939  0.00  0.00    +0.014 C 
BRANCH  29  30
ATOM     30  C   UNL     1       2.538   0.273   8.938  0.00  0.00    +0.035 C 
BRANCH  30  31
ATOM     31  C   UNL     1       3.092   0.321  10.339  0.00  0.00    -0.047 A 
ATOM     32  C   UNL     1       3.269  -0.850  11.053  0.00  0.00    +0.003 A 
ATOM     33  C   UNL     1       3.778  -0.805  12.337  0.00  0.00    +0.000 A 
ATOM     34  C   UNL     1       4.110   0.409  12.908  0.00  0.00    +0.000 A 
ATOM     35  C   UNL     1       3.933   1.579  12.194  0.00  0.00    +0.000 A 
ATOM     36  C   UNL     1       3.429   1.535  10.908  0.00  0.00    +0.003 A 
ENDBRANCH  30  31
ENDBRANCH  29  30
ENDBRANCH  28  29
ENDBRANCH  11  28
TORSDOF 7
