REMARK  Name = ZINC22195812
REMARK  5 active torsions:
REMARK  status: ('A' for Active; 'I' for Inactive)
REMARK    1  A    between atoms: C_1  and  C_2
REMARK    2  A    between atoms: C_5  and  C_8
REMARK    3  A    between atoms: C_8  and  N_9
REMARK    4  A    between atoms: C_10  and  C_21
REMARK    5  A    between atoms: C_26  and  C_27
REMARK                            x       y       z     vdW  Elec       q    Type
REMARK                         _______ _______ _______ _____ _____    ______ ____
ROOT
ATOM      1  N   UNL     1       2.635  -0.129  -0.658  0.00  0.00    -0.270 N 
ATOM      2  C   UNL     1       2.413   1.303  -0.462  0.00  0.00    +0.196 C 
ATOM      3  N   UNL     1       3.231   2.076  -1.404  0.00  0.00    -0.321 N 
ATOM      4  C   UNL     1       3.287   1.662  -2.730  0.00  0.00    +0.041 A 
ATOM      5  C   UNL     1       3.481   2.555  -3.770  0.00  0.00    +0.024 A 
ATOM      6  C   UNL     1       3.524   2.091  -5.070  0.00  0.00    +0.002 A 
ATOM      7  C   UNL     1       3.374   0.740  -5.342  0.00  0.00    +0.001 A 
ATOM      8  C   UNL     1       3.181  -0.164  -4.317  0.00  0.00    +0.015 A 
ATOM      9  C   UNL     1       3.137   0.290  -3.002  0.00  0.00    +0.058 A 
ATOM     10  C   UNL     1       2.942  -0.632  -1.869  0.00  0.00    +0.250 C 
ATOM     11  O   UNL     1       3.057  -1.833  -2.026  0.00  0.00    -0.270 OA
ATOM     12  H   UNL     1       3.783   2.961  -1.056  0.00  0.00    +0.148 HD
ENDROOT
BRANCH   2  13
ATOM     13  C   UNL     1       0.957   1.618  -0.690  0.00  0.00    +0.036 A 
ATOM     14  C   UNL     1       0.103   0.916  -1.465  0.00  0.00    +0.112 A 
ATOM     15  N   UNL     1      -1.103   1.521  -1.412  0.00  0.00    -0.284 N 
ATOM     16  H   UNL     1      -1.949   1.111  -1.983  0.00  0.00    +0.188 HD
ATOM     17  N   UNL     1      -0.997   2.633  -0.567  0.00  0.00    -0.173 NA
ATOM     18  C   UNL     1       0.244   2.699  -0.131  0.00  0.00    +0.106 A 
BRANCH  18  19
ATOM     19  C   UNL     1       0.793   3.725   0.782  0.00  0.00    +0.040 A 
ATOM     20  C   UNL     1       0.487   5.056   0.868  0.00  0.00    +0.018 A 
ATOM     21  C   UNL     1       1.132   5.825   1.812  0.00  0.00    +0.008 A 
ATOM     22  C   UNL     1       2.056   5.244   2.619  0.00  0.00    +0.046 A 
ATOM     23  S   UNL     1       2.032   3.550   2.056  0.00  0.00    -0.095 S 
ENDBRANCH  18  19
ENDBRANCH   2  13
BRANCH   1  24
ATOM     24  C   UNL     1       2.521  -1.038   0.485  0.00  0.00    +0.145 C 
BRANCH  24  29
ATOM     25  C   UNL     1      -2.926  -2.920   0.914  0.00  0.00    +0.044 C 
ATOM     26  C   UNL     1      -1.505  -2.430   0.802  0.00  0.00    -0.050 A 
ATOM     27  C   UNL     1      -0.621  -3.060  -0.053  0.00  0.00    +0.003 A 
ATOM     28  C   UNL     1       0.682  -2.610  -0.156  0.00  0.00    +0.005 A 
ATOM     29  C   UNL     1       1.101  -1.529   0.596  0.00  0.00    -0.030 A 
ATOM     30  C   UNL     1       0.218  -0.901   1.455  0.00  0.00    +0.005 A 
ATOM     31  C   UNL     1      -1.086  -1.349   1.555  0.00  0.00    +0.003 A 
ENDBRANCH  24  29
ENDBRANCH   1  24
TORSDOF 4
