REMARK  Name = ZINC39355138
REMARK  6 active torsions:
REMARK  status: ('A' for Active; 'I' for Inactive)
REMARK    1  A    between atoms: C_4  and  C_7
REMARK    2  A    between atoms: C_9  and  C_17
REMARK    3  A    between atoms: N_18  and  N_19
REMARK    4  A    between atoms: C_24  and  C_27
REMARK    5  A    between atoms: C_27  and  C_28
REMARK    6  A    between atoms: N_30  and  C_31
REMARK                            x       y       z     vdW  Elec       q    Type
REMARK                         _______ _______ _______ _____ _____    ______ ____
ROOT
ATOM      1  N   UNL     1       4.729  -0.294   4.704  0.00  0.00    -0.127 NA
ATOM      2  C   UNL     1       5.017  -0.891   5.858  0.00  0.00    +0.183 C 
ATOM      3  N   UNL     1       5.156  -2.231   6.079  0.00  0.00    -0.263 N 
ATOM      4  C   UNL     1       5.446  -2.728   7.274  0.00  0.00    +0.233 C 
ATOM      5  O   UNL     1       5.574  -3.914   7.490  0.00  0.00    -0.274 OA
ATOM      6  C   UNL     1       5.602  -1.659   8.345  0.00  0.00    +0.149 C 
ATOM      7  S   UNL     1       5.291  -0.150   7.343  0.00  0.00    -0.075 S 
ATOM      8  H   UNL     1       5.038  -2.841   5.335  0.00  0.00    +0.157 HD
ENDROOT
BRANCH   1  10
ATOM      9  C   UNL     1       4.257  -0.407   2.494  0.00  0.00    +0.141 C 
ATOM     10  N   UNL     1       4.543  -1.000   3.641  0.00  0.00    -0.155 NA
BRANCH   9  12
ATOM     11  C   UNL     1       3.725  -0.663  -0.038  0.00  0.00    +0.142 C 
ATOM     12  C   UNL     1       4.057  -1.167   1.350  0.00  0.00    +0.008 C 
ATOM     13  C   UNL     1       4.122  -2.563   1.237  0.00  0.00    +0.005 A 
ATOM     14  C   UNL     1       4.389  -3.582   2.172  0.00  0.00    +0.010 A 
ATOM     15  C   UNL     1       4.386  -4.881   1.773  0.00  0.00    +0.001 A 
ATOM     16  C   UNL     1       4.123  -5.238   0.450  0.00  0.00    +0.002 A 
ATOM     17  C   UNL     1       3.857  -4.308  -0.502  0.00  0.00    +0.026 A 
ATOM     18  C   UNL     1       3.844  -2.932  -0.159  0.00  0.00    +0.044 A 
ATOM     19  N   UNL     1       3.618  -1.853  -0.888  0.00  0.00    -0.373 N 
ATOM     20  H   UNL     1       3.413  -1.848  -1.836  0.00  0.00    +0.161 HD
BRANCH  11  24
ATOM     21  C   UNL     1       0.010   1.446   0.013  0.00  0.00    +0.000 A 
ATOM     22  C   UNL     1       1.202   2.145   0.009  0.00  0.00    +0.000 A 
ATOM     23  C   UNL     1       2.405   1.463  -0.007  0.00  0.00    +0.006 A 
ATOM     24  C   UNL     1       2.414   0.081  -0.019  0.00  0.00    -0.021 A 
ATOM     25  C   UNL     1       1.222  -0.619  -0.014  0.00  0.00    +0.006 A 
ATOM     26  C   UNL     1       0.020   0.063   0.001  0.00  0.00    +0.000 A 
ENDBRANCH  11  24
ENDBRANCH   9  12
ENDBRANCH   1  10
BRANCH   6  27
ATOM     27  C   UNL     1       4.557  -1.824   9.451  0.00  0.00    +0.120 C 
BRANCH  27  28
ATOM     28  C   UNL     1       4.824  -0.826  10.547  0.00  0.00    +0.219 C 
ATOM     29  O   UNL     1       5.758  -0.058  10.454  0.00  0.00    -0.275 OA
ATOM     30  N   UNL     1       4.024  -0.786  11.632  0.00  0.00    -0.285 N 
ATOM     31  H   UNL     1       3.239  -1.353  11.676  0.00  0.00    +0.155 HD
BRANCH  30  32
ATOM     32  C   UNL     1       4.328   0.073  12.694  0.00  0.00    +0.033 A 
ATOM     33  C   UNL     1       4.064  -0.316  14.001  0.00  0.00    +0.025 A 
ATOM     34  C   UNL     1       4.364   0.534  15.047  0.00  0.00    +0.022 A 
ATOM     35  C   UNL     1       4.928   1.772  14.794  0.00  0.00    +0.041 A 
ATOM     36  C   UNL     1       5.192   2.162  13.493  0.00  0.00    +0.022 A 
ATOM     37  C   UNL     1       4.899   1.314  12.444  0.00  0.00    +0.025 A 
ATOM     38 CL   UNL     1       5.304   2.839  16.112  0.00  0.00    -0.084 Cl
ENDBRANCH  30  32
ENDBRANCH  27  28
ENDBRANCH   6  27
TORSDOF 6
