REMARK  Name = ZINC00632662
REMARK  10 active torsions:
REMARK  status: ('A' for Active; 'I' for Inactive)
REMARK    1  A    between atoms: C_1  and  C_2
REMARK    2  A    between atoms: C_2  and  C_3
REMARK    3  A    between atoms: C_4  and  C_26
REMARK    4  A    between atoms: C_5  and  N_25
REMARK    5  A    between atoms: C_10  and  O_16
REMARK    6  A    between atoms: C_12  and  S_14
REMARK    7  A    between atoms: S_14  and  C_15
REMARK    8  A    between atoms: O_16  and  C_17
REMARK    9  A    between atoms: C_20  and  C_24
REMARK   10  A    between atoms: C_21  and  C_23
REMARK                            x       y       z     vdW  Elec       q    Type
REMARK                         _______ _______ _______ _____ _____    ______ ____
ROOT
ATOM      1  C   UNL     1       5.643  -1.236  -0.434  0.00  0.00    +0.077 A 
ATOM      2  C   UNL     1       5.013  -2.377   0.118  0.00  0.00    +0.099 A 
ATOM      3  C   UNL     1       3.674  -2.050   0.313  0.00  0.00    +0.134 A 
ATOM      4  N   UNL     1       3.512  -0.770  -0.114  0.00  0.00    -0.200 N 
ATOM      5  N   UNL     1       4.749  -0.297  -0.566  0.00  0.00    -0.168 NA
ATOM      6  C   UNL     1       2.318  -0.050  -0.100  0.00  0.00    +0.164 A 
ATOM      7  C   UNL     1       2.334   1.340  -0.050  0.00  0.00    +0.116 A 
ATOM      8  C   UNL     1       1.120   2.018  -0.038  0.00  0.00    +0.226 A 
ATOM      9  N   UNL     1      -0.011   1.320  -0.073  0.00  0.00    -0.187 NA
ATOM     10  C   UNL     1       0.011  -0.004  -0.119  0.00  0.00    +0.193 A 
ATOM     11  N   UNL     1       1.149  -0.682  -0.133  0.00  0.00    -0.202 NA
ENDROOT
BRANCH   2  12
ATOM     12  C   UNL     1       5.653  -3.660   0.432  0.00  0.00    +0.247 C 
ATOM     13  O   UNL     1       6.139  -3.845   1.532  0.00  0.00    -0.270 OA
ATOM     14  N   UNL     1       5.702  -4.634  -0.498  0.00  0.00    -0.325 N 
ATOM     15  H   UNL     1       5.315  -4.487  -1.376  0.00  0.00    +0.145 HD
ATOM     16  H   UNL     1       6.125  -5.482  -0.291  0.00  0.00    +0.145 HD
ENDBRANCH   2  12
BRANCH   3  17
ATOM     17  N   UNL     1       2.697  -2.870   0.837  0.00  0.00    -0.342 N 
ATOM     18  H   UNL     1       1.788  -2.544   0.928  0.00  0.00    +0.144 HD
ATOM     19  H   UNL     1       2.918  -3.773   1.113  0.00  0.00    +0.144 HD
ENDBRANCH   3  17
BRANCH   1  21
ATOM     20  C   UNL     1       7.894  -0.612   0.397  0.00  0.00    +0.010 C 
ATOM     21  C   UNL     1       7.099  -1.125  -0.805  0.00  0.00    +0.055 C 
ENDBRANCH   1  21
BRANCH  10  22
ATOM     22  S   UNL     1      -1.514  -0.886  -0.164  0.00  0.00    -0.089 S 
ATOM     23  C   UNL     1      -2.679   0.498  -0.126  0.00  0.00    +0.093 C 
ENDBRANCH  10  22
BRANCH   8  24
ATOM     24  O   UNL     1       1.089   3.372   0.009  0.00  0.00    -0.438 OA
BRANCH  24  25
ATOM     25  C   UNL     1      -0.120   3.986  -0.081  0.00  0.00    +0.131 A 
ATOM     26  C   UNL     1      -0.971   4.011   1.015  0.00  0.00    +0.046 A 
ATOM     27  C   UNL     1      -2.196   4.640   0.922  0.00  0.00    +0.007 A 
ATOM     28  C   UNL     1      -2.581   5.236  -0.265  0.00  0.00    -0.047 A 
ATOM     29  C   UNL     1      -1.737   5.209  -1.360  0.00  0.00    -0.044 A 
ATOM     30  C   UNL     1      -0.507   4.585  -1.270  0.00  0.00    +0.050 A 
ATOM     31  C   UNL     1      -2.159   5.861  -2.651  0.00  0.00    +0.044 C 
ATOM     32  C   UNL     1      -3.921   5.917  -0.365  0.00  0.00    +0.044 C 
ENDBRANCH  24  25
ENDBRANCH   8  24
TORSDOF 6
