REMARK  Name = ZINC62960030
REMARK  7 active torsions:
REMARK  status: ('A' for Active; 'I' for Inactive)
REMARK    1  A    between atoms: C_1  and  C_2
REMARK    2  A    between atoms: C_2  and  C_3
REMARK    3  A    between atoms: C_3  and  C_21
REMARK    4  A    between atoms: N_6  and  S_9
REMARK    5  A    between atoms: S_9  and  C_12
REMARK    6  A    between atoms: C_17  and  N_18
REMARK    7  A    between atoms: N_18  and  N_19
REMARK                            x       y       z     vdW  Elec       q    Type
REMARK                         _______ _______ _______ _____ _____    ______ ____
ROOT
ATOM      1  S   UNL     1      -4.272  -2.866   1.589  0.00  0.00    +0.064 S 
ATOM      2  O   UNL     1      -3.722  -4.154   1.351  0.00  0.00    -0.153 OA
ATOM      3  O   UNL     1      -4.065  -2.161   2.805  0.00  0.00    -0.153 OA
ENDROOT
BRANCH   1   7
ATOM      4  C   UNL     1      -1.839  -0.532  -1.248  0.00  0.00    -0.030 C 
ATOM      5  C   UNL     1      -2.077  -0.090   0.198  0.00  0.00    +0.024 C 
ATOM      6  C   UNL     1      -3.508  -0.450   0.608  0.00  0.00    +0.110 C 
ATOM      7  N   UNL     1      -3.720  -1.885   0.374  0.00  0.00    -0.176 NA
ATOM      8  C   UNL     1      -3.434  -2.433  -0.959  0.00  0.00    +0.110 C 
ATOM      9  C   UNL     1      -2.003  -2.050  -1.352  0.00  0.00    +0.024 C 
ATOM     10  C   UNL     1      -2.852   0.154  -2.165  0.00  0.00    +0.011 C 
BRANCH   4  12
ATOM     11  C   UNL     1      -0.256   1.374  -1.569  0.00  0.00    +0.004 C 
ATOM     12  C   UNL     1      -0.421  -0.143  -1.673  0.00  0.00    +0.003 C 
ENDBRANCH   4  12
ENDBRANCH   1   7
BRANCH   1  13
ATOM     13  C   UNL     1      -6.016  -3.017   1.385  0.00  0.00    +0.147 A 
ATOM     14  C   UNL     1      -6.580  -4.239   1.064  0.00  0.00    +0.048 A 
ATOM     15  C   UNL     1      -7.959  -4.312   0.913  0.00  0.00    +0.038 A 
ATOM     16  C   UNL     1      -8.720  -3.172   1.086  0.00  0.00    +0.128 A 
ATOM     17  N   UNL     1      -8.153  -2.021   1.391  0.00  0.00    -0.236 NA
ATOM     18  C   UNL     1      -6.843  -1.912   1.550  0.00  0.00    +0.159 A 
ATOM     19 BR   UNL     1      -8.786  -5.955   0.475  0.00  0.00    -0.049 Br
BRANCH  18  20
ATOM     20  N   UNL     1      -6.289  -0.679   1.878  0.00  0.00    -0.266 N 
ATOM     21  H   UNL     1      -5.348  -0.616   2.104  0.00  0.00    +0.167 HD
BRANCH  20  22
ATOM     22  N   UNL     1      -7.070   0.441   1.883  0.00  0.00    -0.255 NA
ATOM     23  H   UNL     1      -6.532   1.256   2.139  0.00  0.00    +0.140 HD
ATOM     24  H   UNL     1      -7.521   0.572   0.989  0.00  0.00    +0.140 HD
ENDBRANCH  20  22
ENDBRANCH  18  20
ENDBRANCH   1  13
TORSDOF 5
