REMARK  Name = ZINC41144580
REMARK  5 active torsions:
REMARK  status: ('A' for Active; 'I' for Inactive)
REMARK    1  A    between atoms: C_1  and  C_2
REMARK    2  A    between atoms: C_2  and  S_3
REMARK    3  A    between atoms: S_3  and  C_4
REMARK    4  A    between atoms: C_7  and  C_10
REMARK    5  A    between atoms: C_20  and  C_21
REMARK                            x       y       z     vdW  Elec       q    Type
REMARK                         _______ _______ _______ _____ _____    ______ ____
ROOT
ATOM      1  C   UNL     1      -1.046  -6.606  -0.025  0.00  0.00    +0.040 A 
ATOM      2  C   UNL     1      -1.496  -7.406  -1.178  0.00  0.00    +0.000 A 
ATOM      3  C   UNL     1      -1.858  -6.835  -2.392  0.00  0.00    +0.009 A 
ATOM      4  C   UNL     1      -2.274  -7.649  -3.427  0.00  0.00    +0.001 A 
ATOM      5  C   UNL     1      -2.335  -9.026  -3.266  0.00  0.00    +0.001 A 
ATOM      6  C   UNL     1      -1.978  -9.612  -2.067  0.00  0.00    +0.015 A 
ATOM      7  C   UNL     1      -1.555  -8.810  -1.016  0.00  0.00    +0.067 A 
ATOM      8  C   UNL     1      -1.150  -9.355   0.294  0.00  0.00    +0.345 A 
ATOM      9  O   UNL     1      -1.564 -10.428   0.690  0.00  0.00    -0.245 OA
ATOM     10  O   UNL     1      -0.298  -8.608   1.034  0.00  0.00    -0.414 OA
ATOM     11  C   UNL     1      -0.463  -7.263   1.047  0.00  0.00    +0.228 A 
ENDROOT
BRANCH   1  15
ATOM     12  C   UNL     1      -1.508  -2.383   0.004  0.00  0.00    +0.008 A 
ATOM     13  C   UNL     1      -0.233  -2.943  -0.006  0.00  0.00    +0.015 A 
ATOM     14  C   UNL     1      -0.080  -4.310  -0.015  0.00  0.00    +0.010 A 
ATOM     15  C   UNL     1      -1.206  -5.138  -0.015  0.00  0.00    -0.013 A 
ATOM     16  C   UNL     1      -2.486  -4.574  -0.004  0.00  0.00    +0.010 A 
ATOM     17  C   UNL     1      -2.632  -3.206   0.010  0.00  0.00    +0.015 A 
BRANCH  12  18
ATOM     18  S   UNL     1      -1.700  -0.632   0.015  0.00  0.00    -0.125 S 
BRANCH  18  20
ATOM     19  C   UNL     1      -0.019   1.526   0.010  0.00  0.00    +0.015 C 
ATOM     20  C   UNL     1       0.002  -0.004   0.002  0.00  0.00    +0.071 C 
ENDBRANCH  18  20
ENDBRANCH  12  18
ENDBRANCH   1  15
BRANCH  11  21
ATOM     21  C   UNL     1      -0.024  -6.495   2.210  0.00  0.00    +0.422 C 
ATOM     22  O   UNL     1      -0.172  -5.279   2.233  0.00  0.00    -0.237 OA
ATOM     23  O   UNL     1       0.493  -7.067   3.162  0.00  0.00    -0.237 OA
ENDBRANCH  11  21
TORSDOF 4
