REMARK  Name = ZINC12329519
REMARK  5 active torsions:
REMARK  status: ('A' for Active; 'I' for Inactive)
REMARK    1  A    between atoms: C_6  and  C_11
REMARK    2  A    between atoms: C_11  and  C_13
REMARK    3  A    between atoms: C_11  and  O_31
REMARK    4  A    between atoms: C_13  and  N_56
REMARK    5  A    between atoms: C_20  and  O_30
REMARK                            x       y       z     vdW  Elec       q    Type
REMARK                         _______ _______ _______ _____ _____    ______ ____
ROOT
ATOM      1  C   UNL     1       2.201   9.964  -0.537  0.00  0.00    -0.075 C 
ATOM      2  C   UNL     1       2.138  11.494  -0.539  0.00  0.00    +0.029 C 
ATOM      3  C   UNL     1       2.424  12.009  -1.951  0.00  0.00    +0.110 C 
ATOM      4  C   UNL     1       1.418  11.399  -2.929  0.00  0.00    +0.029 C 
ATOM      5  C   UNL     1       1.501   9.873  -2.855  0.00  0.00    -0.075 C 
ATOM      6  C   UNL     1       2.299  13.536  -1.973  0.00  0.00    +0.084 C 
ATOM      7  C   UNL     1       2.487  14.016  -3.414  0.00  0.00    +0.152 C 
ATOM      8  C   UNL     1       3.711  13.367  -4.009  0.00  0.00    +0.024 A 
ATOM      9  C   UNL     1       4.278  13.928  -5.142  0.00  0.00    +0.029 A 
ATOM     10  C   UNL     1       5.396  13.355  -5.719  0.00  0.00    +0.042 A 
ATOM     11  C   UNL     1       5.952  12.215  -5.165  0.00  0.00    +0.023 A 
ATOM     12  C   UNL     1       5.392  11.654  -4.036  0.00  0.00    +0.047 A 
ATOM     13  C   UNL     1       4.269  12.230  -3.451  0.00  0.00    +0.127 A 
ATOM     14  O   UNL     1       3.750  11.652  -2.336  0.00  0.00    -0.485 OA
ATOM     15 CL   UNL     1       6.101  14.065  -7.138  0.00  0.00    -0.084 Cl
ATOM     16  N   UNL     1       1.187   9.441  -1.477  0.00  0.00    +0.382 N 
ATOM     17  H   UNL     1       0.266   9.811  -1.213  0.00  0.00    -0.082 HD
ENDROOT
BRANCH   7  18
ATOM     18  O   UNL     1       2.648  15.436  -3.426  0.00  0.00    -0.387 OA
ATOM     19  H   UNL     1       2.769  15.810  -4.309  0.00  0.00    +0.210 HD
ENDBRANCH   7  18
BRANCH  16  20
ATOM     20  C   UNL     1       1.149   7.966  -1.407  0.00  0.00    -0.042 C 
BRANCH  20  21
ATOM     21  C   UNL     1      -0.056   7.466  -2.208  0.00  0.00    +0.128 C 
BRANCH  21  27
ATOM     22  C   UNL     1       0.195   1.040  -2.801  0.00  0.00    +0.001 A 
ATOM     23  C   UNL     1       0.843   1.629  -3.886  0.00  0.00    +0.001 A 
ATOM     24  C   UNL     1       0.924   2.982  -4.003  0.00  0.00    +0.008 A 
ATOM     25  C   UNL     1       0.358   3.801  -3.011  0.00  0.00    -0.018 A 
ATOM     26  C   UNL     1       0.427   5.202  -3.095  0.00  0.00    +0.014 A 
ATOM     27  C   UNL     1      -0.132   5.964  -2.115  0.00  0.00    -0.020 A 
ATOM     28  C   UNL     1      -0.775   5.375  -1.028  0.00  0.00    +0.007 A 
ATOM     29  C   UNL     1      -0.862   4.021  -0.913  0.00  0.00    +0.009 A 
ATOM     30  C   UNL     1      -0.296   3.203  -1.905  0.00  0.00    -0.018 A 
ATOM     31  C   UNL     1      -0.365   1.801  -1.822  0.00  0.00    +0.008 A 
ENDBRANCH  21  27
BRANCH  21  32
ATOM     32  O   UNL     1      -1.252   8.038  -1.675  0.00  0.00    -0.389 OA
ATOM     33  H   UNL     1      -1.415   7.817  -0.748  0.00  0.00    +0.210 HD
ENDBRANCH  21  32
ENDBRANCH  20  21
ENDBRANCH  16  20
TORSDOF 5
