REMARK  Name = ZINC09257975
REMARK  6 active torsions:
REMARK  status: ('A' for Active; 'I' for Inactive)
REMARK    1  A    between atoms: C_1  and  C_2
REMARK    2  A    between atoms: C_2  and  C_4
REMARK    3  A    between atoms: C_2  and  N_16
REMARK    4  A    between atoms: C_7  and  C_10
REMARK    5  A    between atoms: C_17  and  C_19
REMARK    6  A    between atoms: C_19  and  N_20
REMARK                            x       y       z     vdW  Elec       q    Type
REMARK                         _______ _______ _______ _____ _____    ______ ____
ROOT
ATOM      1  N   UNL     1      -0.526   6.189   4.710  0.00  0.00    -0.307 N 
ATOM      2  C   UNL     1      -0.654   5.009   4.069  0.00  0.00    +0.231 C 
ATOM      3  O   UNL     1      -1.675   4.366   4.181  0.00  0.00    -0.274 OA
ATOM      4  H   UNL     1       0.291   6.703   4.620  0.00  0.00    +0.149 HD
ENDROOT
BRANCH   1   6
ATOM      5  C   UNL     1      -2.624   7.445   4.662  0.00  0.00    +0.033 C 
ATOM      6  C   UNL     1      -1.622   6.693   5.541  0.00  0.00    +0.100 C 
BRANCH   6   7
ATOM      7  C   UNL     1      -1.070   7.627   6.586  0.00  0.00    -0.027 A 
ATOM      8  C   UNL     1      -0.059   8.511   6.256  0.00  0.00    +0.006 A 
ATOM      9  C   UNL     1       0.447   9.372   7.209  0.00  0.00    +0.009 A 
ATOM     10  C   UNL     1      -0.056   9.343   8.508  0.00  0.00    -0.018 A 
ATOM     11  C   UNL     1      -1.072   8.448   8.836  0.00  0.00    +0.009 A 
ATOM     12  C   UNL     1      -1.574   7.594   7.874  0.00  0.00    +0.006 A 
BRANCH  10  13
ATOM     13  C   UNL     1       0.488  10.263   9.538  0.00  0.00    -0.018 A 
ATOM     14  C   UNL     1      -0.019  10.238  10.835  0.00  0.00    +0.008 A 
ATOM     15  C   UNL     1       0.493  11.092  11.790  0.00  0.00    +0.001 A 
ATOM     16  C   UNL     1       1.502  11.979  11.459  0.00  0.00    +0.000 A 
ATOM     17  C   UNL     1       2.005  12.012  10.171  0.00  0.00    +0.001 A 
ATOM     18  C   UNL     1       1.503  11.158   9.209  0.00  0.00    +0.008 A 
ENDBRANCH  10  13
ENDBRANCH   6   7
ENDBRANCH   1   6
BRANCH   2  19
ATOM     19  C   UNL     1       0.474   4.490   3.214  0.00  0.00    +0.213 C 
BRANCH  19  20
ATOM     20  N   UNL     1       0.092   3.201   2.632  0.00  0.00    -0.215 N 
ATOM     21  C   UNL     1      -0.535   3.061   1.445  0.00  0.00    +0.251 C 
ATOM     22  O   UNL     1      -0.877   3.942   0.686  0.00  0.00    -0.272 OA
ATOM     23  C   UNL     1      -0.720   1.574   1.264  0.00  0.00    +0.139 C 
ATOM     24  C   UNL     1      -0.013   1.086   0.008  0.00  0.00    +0.040 C 
ATOM     25  C   UNL     1      -0.749   1.591  -1.238  0.00  0.00    +0.008 C 
ATOM     26  C   UNL     1      -2.107   0.880  -1.335  0.00  0.00    +0.043 C 
ATOM     27  C   UNL     1      -2.772   0.937   0.001  0.00  0.00    -0.005 A 
ATOM     28  C   UNL     1      -2.198   1.242   1.199  0.00  0.00    -0.005 A 
ATOM     29  C   UNL     1      -3.038   1.226   2.312  0.00  0.00    +0.014 A 
ATOM     30  C   UNL     1      -4.348   0.920   2.170  0.00  0.00    +0.046 A 
ATOM     31  S   UNL     1      -4.469   0.630   0.411  0.00  0.00    -0.101 S 
ATOM     32  N   UNL     1      -0.128   0.986   2.469  0.00  0.00    -0.281 N 
ATOM     33  C   UNL     1       0.321   2.016   3.212  0.00  0.00    +0.310 C 
ATOM     34  O   UNL     1       0.873   1.885   4.287  0.00  0.00    -0.252 OA
ATOM     35  H   UNL     1      -0.072   0.043   2.688  0.00  0.00    +0.152 HD
ENDBRANCH  19  20
ENDBRANCH   2  19
TORSDOF 5
