REMARK  Name = ZINC39630754
REMARK  13 active torsions:
REMARK  status: ('A' for Active; 'I' for Inactive)
REMARK    1  A    between atoms: C_1  and  C_2
REMARK    2  A    between atoms: C_2  and  C_4
REMARK    3  A    between atoms: C_2  and  O_28
REMARK    4  A    between atoms: C_8  and  C_17
REMARK    5  A    between atoms: N_19  and  C_20
REMARK    6  A    between atoms: C_20  and  C_21
REMARK    7  A    between atoms: C_21  and  C_22
REMARK    8  A    between atoms: C_21  and  C_23
REMARK    9  A    between atoms: C_21  and  C_24
REMARK   10  A    between atoms: C_24  and  N_25
REMARK   11  A    between atoms: N_25  and  C_26
REMARK   12  A    between atoms: N_25  and  C_27
REMARK   13  A    between atoms: O_28  and  C_29
REMARK                            x       y       z     vdW  Elec       q    Type
REMARK                         _______ _______ _______ _____ _____    ______ ____
ROOT
ATOM      1  C   UNL     1       0.574  -1.503  -1.582  0.00  0.00    +0.256 C 
ATOM      2  O   UNL     1       0.569  -2.364  -0.727  0.00  0.00    -0.272 OA
ATOM      3  N   UNL     1      -0.529  -1.283  -2.323  0.00  0.00    -0.297 N 
ATOM      4  C   UNL     1      -0.711  -0.290  -3.409  0.00  0.00    +0.121 C 
ATOM      5  C   UNL     1      -1.549  -1.028  -4.477  0.00  0.00    +0.100 C 
ATOM      6  C   UNL     1      -2.285  -2.134  -3.702  0.00  0.00    -0.004 C 
ATOM      7  C   UNL     1      -1.833  -1.984  -2.243  0.00  0.00    +0.115 C 
ATOM      8  C   UNL     1      -1.885  -3.508  -4.233  0.00  0.00    -0.010 C 
ATOM      9  C   UNL     1      -2.673  -4.588  -3.487  0.00  0.00    -0.082 C 
ATOM     10  N   UNL     1      -4.112  -4.367  -3.678  0.00  0.00    +0.379 N 
ATOM     11  C   UNL     1      -4.505  -3.085  -3.082  0.00  0.00    -0.082 C 
ATOM     12  C   UNL     1      -3.795  -1.941  -3.812  0.00  0.00    -0.010 C 
ATOM     13  H   UNL     1      -4.320  -4.356  -4.665  0.00  0.00    -0.086 HD
ATOM     14  H   UNL     1      -4.627  -5.114  -3.237  0.00  0.00    -0.086 HD
ENDROOT
BRANCH   5  15
ATOM     15  C   UNL     1      -2.536  -0.085  -5.114  0.00  0.00    +0.218 C 
ATOM     16  O   UNL     1      -2.919   0.893  -4.507  0.00  0.00    -0.275 OA
ATOM     17  N   UNL     1      -2.992  -0.327  -6.359  0.00  0.00    -0.315 N 
ATOM     18  H   UNL     1      -2.686  -1.108  -6.844  0.00  0.00    +0.149 HD
BRANCH  17  19
ATOM     19  C   UNL     1      -3.952   0.591  -6.978  0.00  0.00    +0.108 C 
BRANCH  19  20
ATOM     20  C   UNL     1      -4.305   0.090  -8.380  0.00  0.00    -0.034 C 
ATOM     21  C   UNL     1      -3.036   0.025  -9.233  0.00  0.00    +0.010 C 
ATOM     22  C   UNL     1      -4.924  -1.306  -8.282  0.00  0.00    +0.010 C 
BRANCH  20  23
ATOM     23  C   UNL     1      -5.307   1.048  -9.027  0.00  0.00    -0.072 C 
BRANCH  23  24
ATOM     24  N   UNL     1      -5.742   0.502 -10.319  0.00  0.00    +0.376 N 
ATOM     25  C   UNL     1      -6.870  -0.415 -10.109  0.00  0.00    -0.097 C 
ATOM     26  C   UNL     1      -6.162   1.601 -11.199  0.00  0.00    -0.097 C 
ATOM     27  H   UNL     1      -4.978   0.002 -10.748  0.00  0.00    -0.083 HD
ENDBRANCH  23  24
ENDBRANCH  20  23
ENDBRANCH  19  20
ENDBRANCH  17  19
ENDBRANCH   5  15
BRANCH   1  29
ATOM     28  C   UNL     1       1.533   0.780  -1.456  0.00  0.00    +0.062 C 
ATOM     29  C   UNL     1       1.815  -0.680  -1.814  0.00  0.00    +0.256 C 
BRANCH  29  30
ATOM     30  O   UNL     1       2.875  -1.175  -0.994  0.00  0.00    -0.480 OA
BRANCH  30  31
ATOM     31  C   UNL     1       4.135  -1.088  -1.495  0.00  0.00    +0.122 A 
ATOM     32  C   UNL     1       5.195  -1.672  -0.817  0.00  0.00    +0.045 A 
ATOM     33  C   UNL     1       6.475  -1.582  -1.329  0.00  0.00    +0.004 A 
ATOM     34  C   UNL     1       6.700  -0.912  -2.517  0.00  0.00    +0.000 A 
ATOM     35  C   UNL     1       5.646  -0.329  -3.195  0.00  0.00    +0.004 A 
ATOM     36  C   UNL     1       4.363  -0.421  -2.690  0.00  0.00    +0.045 A 
ENDBRANCH  30  31
ENDBRANCH  29  30
ENDBRANCH   1  29
TORSDOF 8
