REMARK  Name = ZINC05516279
REMARK  6 active torsions:
REMARK  status: ('A' for Active; 'I' for Inactive)
REMARK    1  A    between atoms: C_1  and  C_2
REMARK    2  A    between atoms: C_5  and  S_8
REMARK    3  A    between atoms: S_8  and  N_11
REMARK    4  A    between atoms: N_11  and  C_12
REMARK    5  A    between atoms: C_18  and  C_23
REMARK    6  A    between atoms: C_19  and  C_21
REMARK                            x       y       z     vdW  Elec       q    Type
REMARK                         _______ _______ _______ _____ _____    ______ ____
ROOT
ATOM      1  C   UNL     1      -1.232   1.772  -0.006  0.00  0.00    +0.049 A 
ATOM      2  C   UNL     1      -1.268   3.163   0.055  0.00  0.00    +0.028 A 
ATOM      3  C   UNL     1      -0.101   3.896   0.026  0.00  0.00    +0.049 A 
ATOM      4  C   UNL     1       1.126   3.249  -0.061  0.00  0.00    +0.136 A 
ATOM      5  C   UNL     1       1.163   1.849  -0.119  0.00  0.00    +0.036 A 
ATOM      6  C   UNL     1      -0.017   1.113  -0.089  0.00  0.00    +0.037 A 
ATOM      7  C   UNL     1       2.594   1.496  -0.206  0.00  0.00    +0.113 A 
ATOM      8  C   UNL     1       3.267   2.679  -0.193  0.00  0.00    +0.135 A 
ATOM      9  O   UNL     1       2.400   3.694  -0.108  0.00  0.00    -0.458 OA
ENDROOT
BRANCH   7  10
ATOM     10  C   UNL     1       3.172   0.148  -0.288  0.00  0.00    +0.390 C 
ATOM     11  O   UNL     1       3.358  -0.368  -1.373  0.00  0.00    -0.240 OA
ATOM     12  O   UNL     1       3.496  -0.517   0.839  0.00  0.00    -0.240 OA
ENDBRANCH   7  10
BRANCH   1  13
ATOM     13  N   UNL     1      -2.424   1.041   0.020  0.00  0.00    -0.216 N 
ATOM     14  H   UNL     1      -2.562   0.316  -0.611  0.00  0.00    +0.174 HD
BRANCH  13  15
ATOM     15  S   UNL     1      -3.599   1.411   1.126  0.00  0.00    +0.072 S 
ATOM     16  O   UNL     1      -3.848   2.805   1.003  0.00  0.00    -0.150 OA
ATOM     17  O   UNL     1      -4.623   0.439   0.972  0.00  0.00    -0.150 OA
BRANCH  15  22
ATOM     18  C   UNL     1      -1.223   0.560   6.606  0.00  0.00    +0.044 C 
ATOM     19  C   UNL     1      -1.817   0.773   5.238  0.00  0.00    -0.050 A 
ATOM     20  C   UNL     1      -1.810   2.033   4.669  0.00  0.00    +0.005 A 
ATOM     21  C   UNL     1      -2.354   2.228   3.414  0.00  0.00    +0.029 A 
ATOM     22  C   UNL     1      -2.905   1.163   2.726  0.00  0.00    +0.109 A 
ATOM     23  C   UNL     1      -2.917  -0.096   3.296  0.00  0.00    +0.029 A 
ATOM     24  C   UNL     1      -2.368  -0.292   4.550  0.00  0.00    +0.005 A 
ENDBRANCH  15  22
ENDBRANCH  13  15
ENDBRANCH   1  13
BRANCH   8  25
ATOM     25  C   UNL     1       4.766   2.825  -0.262  0.00  0.00    +0.183 C 
ATOM     26 CL   UNL     1       5.278   2.950  -1.986  0.00  0.00    -0.117 Cl
ENDBRANCH   8  25
TORSDOF 5
