REMARK  Name = ZINC20410558
REMARK  8 active torsions:
REMARK  status: ('A' for Active; 'I' for Inactive)
REMARK    1  A    between atoms: C_1  and  O_2
REMARK    2  A    between atoms: O_2  and  C_3
REMARK    3  A    between atoms: C_8  and  O_9
REMARK    4  A    between atoms: O_9  and  C_10
REMARK    5  A    between atoms: C_11  and  C_16
REMARK    6  A    between atoms: N_20  and  C_23
REMARK    7  A    between atoms: C_23  and  C_24
REMARK    8  A    between atoms: C_24  and  C_25
REMARK                            x       y       z     vdW  Elec       q    Type
REMARK                         _______ _______ _______ _____ _____    ______ ____
ROOT
ATOM      1  C   UNL     1      -4.883  -3.842   0.951  0.00  0.00    +0.072 A 
ATOM      2  C   UNL     1      -4.963  -5.113   0.464  0.00  0.00    +0.260 A 
ATOM      3  N   UNL     1      -4.877  -6.174   1.330  0.00  0.00    -0.275 N 
ATOM      4  C   UNL     1      -4.715  -5.966   2.649  0.00  0.00    +0.332 A 
ATOM      5  N   UNL     1      -4.635  -4.720   3.149  0.00  0.00    -0.260 N 
ATOM      6  C   UNL     1      -4.708  -3.650   2.333  0.00  0.00    +0.262 A 
ATOM      7  O   UNL     1      -4.628  -2.523   2.791  0.00  0.00    -0.267 OA
ATOM      8  O   UNL     1      -4.642  -6.919   3.401  0.00  0.00    -0.246 OA
ATOM      9  O   UNL     1      -5.126  -5.326  -0.859  0.00  0.00    -0.267 OA
ATOM     10  H   UNL     1      -4.933  -7.080   0.988  0.00  0.00    +0.173 HD
ENDROOT
BRANCH   1  17
ATOM     11  C   UNL     1      -1.201  -0.638   0.010  0.00  0.00    +0.162 A 
ATOM     12  C   UNL     1      -2.374   0.097   0.019  0.00  0.00    +0.053 A 
ATOM     13  C   UNL     1      -3.602  -0.546   0.027  0.00  0.00    -0.044 A 
ATOM     14  C   UNL     1      -3.661  -1.924   0.022  0.00  0.00    -0.050 A 
ATOM     15  C   UNL     1      -2.488  -2.664   0.015  0.00  0.00    +0.052 A 
ATOM     16  C   UNL     1      -1.259  -2.028   0.003  0.00  0.00    +0.162 A 
ATOM     17  C   UNL     1      -4.975  -2.660   0.021  0.00  0.00    +0.001 C 
ATOM     18  N   UNL     1      -6.060  -1.781   0.464  0.00  0.00    +0.387 N 
ATOM     19  C   UNL     1      -6.056  -0.563  -0.361  0.00  0.00    -0.077 C 
ATOM     20  C   UNL     1      -4.855   0.294   0.041  0.00  0.00    +0.016 C 
ATOM     21  H   UNL     1      -6.944  -2.256   0.359  0.00  0.00    -0.085 HD
ATOM     22  H   UNL     1      -5.920  -1.534   1.432  0.00  0.00    -0.085 HD
BRANCH  11  24
ATOM     23  C   UNL     1      -0.017   1.425   0.010  0.00  0.00    +0.277 C 
ATOM     24  O   UNL     1       0.002  -0.004   0.002  0.00  0.00    -0.491 OA
ENDBRANCH  11  24
BRANCH  16  25
ATOM     25  O   UNL     1      -0.112  -2.759  -0.010  0.00  0.00    -0.491 OA
ATOM     26  C   UNL     1      -0.250  -4.182  -0.017  0.00  0.00    +0.277 C 
ENDBRANCH  16  25
ENDBRANCH   1  17
BRANCH   5  27
ATOM     27  C   UNL     1      -4.460  -4.524   4.591  0.00  0.00    +0.134 C 
BRANCH  27  28
ATOM     28  C   UNL     1      -2.967  -4.481   4.922  0.00  0.00    +0.057 C 
BRANCH  28  29
ATOM     29  C   UNL     1      -2.787  -4.279   6.404  0.00  0.00    -0.046 A 
ATOM     30  C   UNL     1      -2.709  -3.001   6.924  0.00  0.00    +0.004 A 
ATOM     31  C   UNL     1      -2.544  -2.817   8.284  0.00  0.00    +0.000 A 
ATOM     32  C   UNL     1      -2.457  -3.911   9.125  0.00  0.00    +0.000 A 
ATOM     33  C   UNL     1      -2.536  -5.189   8.605  0.00  0.00    +0.000 A 
ATOM     34  C   UNL     1      -2.705  -5.374   7.245  0.00  0.00    +0.004 A 
ENDBRANCH  28  29
ENDBRANCH  27  28
ENDBRANCH   5  27
TORSDOF 6
