REMARK  Name = ZINC16511435
REMARK  5 active torsions:
REMARK  status: ('A' for Active; 'I' for Inactive)
REMARK    1  A    between atoms: C_1  and  O_2
REMARK    2  A    between atoms: O_2  and  C_3
REMARK    3  A    between atoms: C_6  and  C_9
REMARK    4  A    between atoms: N_10  and  N_11
REMARK    5  A    between atoms: C_14  and  C_25
REMARK                            x       y       z     vdW  Elec       q    Type
REMARK                         _______ _______ _______ _____ _____    ______ ____
ROOT
ATOM      1  N   UNL     1       4.744   4.126  -0.024  0.00  0.00    -0.154 NA
ATOM      2  C   UNL     1       4.729   5.433  -0.017  0.00  0.00    +0.073 C 
ATOM      3  C   UNL     1       3.424   6.203  -0.006  0.00  0.00    +0.066 C 
ATOM      4  C   UNL     1       3.584   7.358   0.997  0.00  0.00    +0.031 C 
ATOM      5  C   UNL     1       4.656   8.321   0.494  0.00  0.00    +0.066 C 
ATOM      6  C   UNL     1       5.951   7.602   0.229  0.00  0.00    +0.071 A 
ATOM      7  C   UNL     1       5.980   6.211  -0.026  0.00  0.00    +0.026 A 
ATOM      8  C   UNL     1       7.188   5.578  -0.282  0.00  0.00    +0.083 A 
ATOM      9  C   UNL     1       8.367   6.344  -0.278  0.00  0.00    +0.265 A 
ATOM     10  O   UNL     1       9.445   5.817  -0.504  0.00  0.00    -0.266 OA
ATOM     11  N   UNL     1       8.296   7.665  -0.023  0.00  0.00    -0.243 N 
ATOM     12  H   UNL     1       9.108   8.195  -0.014  0.00  0.00    +0.192 HD
ATOM     13  N   UNL     1       7.068   8.282   0.230  0.00  0.00    -0.175 NA
ENDROOT
BRANCH   4  14
ATOM     14  C   UNL     1       2.274   8.090   1.131  0.00  0.00    -0.044 A 
ATOM     15  C   UNL     1       1.700   8.689   0.025  0.00  0.00    +0.004 A 
ATOM     16  C   UNL     1       0.496   9.356   0.147  0.00  0.00    +0.000 A 
ATOM     17  C   UNL     1      -0.130   9.434   1.377  0.00  0.00    +0.000 A 
ATOM     18  C   UNL     1       0.447   8.841   2.484  0.00  0.00    +0.000 A 
ATOM     19  C   UNL     1       1.649   8.169   2.361  0.00  0.00    +0.004 A 
ENDBRANCH   4  14
BRANCH   1  21
ATOM     20  C   UNL     1       3.649   2.157  -0.023  0.00  0.00    +0.142 C 
ATOM     21  N   UNL     1       3.634   3.468  -0.016  0.00  0.00    -0.157 NA
BRANCH  20  25
ATOM     22  C   UNL     1       0.002  -0.004   0.002  0.00  0.00    +0.120 A 
ATOM     23  C   UNL     1      -0.017   1.386   0.010  0.00  0.00    +0.046 A 
ATOM     24  C   UNL     1       1.164   2.093   0.002  0.00  0.00    +0.013 A 
ATOM     25  C   UNL     1       2.387   1.409  -0.014  0.00  0.00    -0.005 A 
ATOM     26  C   UNL     1       2.400   0.008  -0.021  0.00  0.00    +0.013 A 
ATOM     27  C   UNL     1       1.213  -0.688  -0.013  0.00  0.00    +0.046 A 
BRANCH  22  29
ATOM     28  C   UNL     1      -1.075  -2.122   0.001  0.00  0.00    +0.277 C 
ATOM     29  O   UNL     1      -1.165  -0.696   0.009  0.00  0.00    -0.495 OA
ENDBRANCH  22  29
ENDBRANCH  20  25
ENDBRANCH   1  21
TORSDOF 4
