REMARK  Name = ZINC63600813
REMARK  4 active torsions:
REMARK  status: ('A' for Active; 'I' for Inactive)
REMARK    1  A    between atoms: C_1  and  C_2
REMARK    2  A    between atoms: N_4  and  C_5
REMARK    3  A    between atoms: C_11  and  N_15
REMARK    4  A    between atoms: C_16  and  C_18
REMARK                            x       y       z     vdW  Elec       q    Type
REMARK                         _______ _______ _______ _____ _____    ______ ____
ROOT
ATOM      1  C   UNL     1      -1.232  -1.982  -0.084  0.00  0.00    +0.224 C 
ATOM      2  N   UNL     1      -2.475  -2.679   0.270  0.00  0.00    -0.316 N 
ATOM      3  C   UNL     1      -3.073  -3.471  -0.713  0.00  0.00    +0.043 A 
ATOM      4  C   UNL     1      -4.260  -4.208  -0.558  0.00  0.00    +0.026 A 
ATOM      5  C   UNL     1      -4.772  -4.961  -1.588  0.00  0.00    +0.025 A 
ATOM      6  C   UNL     1      -4.133  -5.019  -2.819  0.00  0.00    +0.035 A 
ATOM      7  C   UNL     1      -2.958  -4.298  -2.999  0.00  0.00    +0.040 A 
ATOM      8  C   UNL     1      -2.450  -3.547  -1.963  0.00  0.00    +0.034 A 
ATOM      9  S   UNL     1      -1.004  -2.519  -1.826  0.00  0.00    -0.082 S 
ATOM     10  H   UNL     1      -2.866  -2.593   1.153  0.00  0.00    +0.149 HD
ENDROOT
BRANCH   1  14
ATOM     11  C   UNL     1      -0.495   1.773   0.034  0.00  0.00    +0.109 C 
ATOM     12  C   UNL     1      -0.322   0.279  -0.055  0.00  0.00    +0.212 C 
ATOM     13  O   UNL     1       0.787  -0.197  -0.176  0.00  0.00    -0.276 OA
ATOM     14  N   UNL     1      -1.399  -0.529   0.002  0.00  0.00    -0.288 N 
ATOM     15  H   UNL     1      -2.286  -0.148   0.099  0.00  0.00    +0.151 HD
ENDBRANCH   1  14
BRANCH   6  16
ATOM     16  N   UNL     1      -4.663  -5.789  -3.863  0.00  0.00    -0.284 N 
ATOM     17  C   UNL     1      -3.839  -6.384  -4.747  0.00  0.00    +0.244 C 
ATOM     18  O   UNL     1      -2.638  -6.334  -4.586  0.00  0.00    -0.273 OA
ATOM     19  H   UNL     1      -5.624  -5.893  -3.949  0.00  0.00    +0.155 HD
BRANCH  17  20
ATOM     20  C   UNL     1      -4.410  -7.113  -5.937  0.00  0.00    +0.190 C 
ATOM     21  C   UNL     1      -5.169  -6.151  -6.823  0.00  0.00    +0.016 C 
ATOM     22  C   UNL     1      -4.545  -6.175  -8.023  0.00  0.00    -0.004 A 
ATOM     23  C   UNL     1      -4.795  -5.472  -9.287  0.00  0.00    +0.010 A 
ATOM     24  C   UNL     1      -3.980  -5.708 -10.341  0.00  0.00    +0.001 A 
ATOM     25  C   UNL     1      -2.906  -6.605 -10.256  0.00  0.00    +0.002 A 
ATOM     26  C   UNL     1      -2.614  -7.288  -9.128  0.00  0.00    +0.026 A 
ATOM     27  C   UNL     1      -3.405  -7.116  -7.959  0.00  0.00    +0.043 A 
ATOM     28  N   UNL     1      -3.326  -7.655  -6.765  0.00  0.00    -0.370 N 
ATOM     29  H   UNL     1      -2.664  -8.303  -6.477  0.00  0.00    +0.161 HD
ENDBRANCH  17  20
ENDBRANCH   6  16
TORSDOF 3
