REMARK  Name = ZINC31630688
REMARK  6 active torsions:
REMARK  status: ('A' for Active; 'I' for Inactive)
REMARK    1  A    between atoms: C_1  and  O_2
REMARK    2  A    between atoms: O_2  and  C_3
REMARK    3  A    between atoms: C_3  and  C_5
REMARK    4  A    between atoms: C_9  and  N_10
REMARK    5  A    between atoms: C_11  and  C_13
REMARK    6  A    between atoms: C_13  and  N_14
REMARK                            x       y       z     vdW  Elec       q    Type
REMARK                         _______ _______ _______ _____ _____    ______ ____
ROOT
ATOM      1  C   UNL     1      -7.937   0.767   3.471  0.00  0.00    +0.214 C 
ENDROOT
BRANCH   1   2
ATOM      2  N   UNL     1      -8.055   1.010   4.910  0.00  0.00    -0.215 N 
ATOM      3  C   UNL     1      -7.937   0.053   5.853  0.00  0.00    +0.251 C 
ATOM      4  O   UNL     1      -7.722  -1.127   5.677  0.00  0.00    -0.272 OA
ATOM      5  C   UNL     1      -8.126   0.761   7.176  0.00  0.00    +0.138 C 
ATOM      6  C   UNL     1      -9.341   0.197   7.902  0.00  0.00    +0.040 C 
ATOM      7  C   UNL     1      -9.391   0.802   9.310  0.00  0.00    +0.008 C 
ATOM      8  C   UNL     1      -8.223   0.240  10.119  0.00  0.00    +0.035 C 
ATOM      9  C   UNL     1      -6.927   0.414   9.371  0.00  0.00    -0.042 A 
ATOM     10  C   UNL     1      -6.883   0.647   8.013  0.00  0.00    -0.012 A 
ATOM     11  C   UNL     1      -5.655   0.786   7.379  0.00  0.00    +0.006 A 
ATOM     12  C   UNL     1      -4.481   0.696   8.098  0.00  0.00    +0.000 A 
ATOM     13  C   UNL     1      -4.526   0.465   9.460  0.00  0.00    +0.000 A 
ATOM     14  C   UNL     1      -5.744   0.325  10.092  0.00  0.00    +0.004 A 
ATOM     15  N   UNL     1      -8.360   2.162   6.798  0.00  0.00    -0.281 N 
ATOM     16  C   UNL     1      -8.298   2.209   5.453  0.00  0.00    +0.310 C 
ATOM     17  O   UNL     1      -8.447   3.227   4.806  0.00  0.00    -0.252 OA
ATOM     18  H   UNL     1      -8.537   2.919   7.575  0.00  0.00    +0.152 HD
ENDBRANCH   1   2
BRANCH   1  20
ATOM     19  N   UNL     1      -6.152   0.758   1.758  0.00  0.00    -0.278 N 
ATOM     20  C   UNL     1      -6.500   0.934   3.049  0.00  0.00    +0.236 C 
ATOM     21  O   UNL     1      -5.657   1.228   3.870  0.00  0.00    -0.274 OA
ATOM     22  H   UNL     1      -6.916   0.492   1.014  0.00  0.00    +0.155 HD
BRANCH  19  27
ATOM     23  C   UNL     1      -4.282   0.773   0.102  0.00  0.00    +0.091 A 
ATOM     24  C   UNL     1      -2.851   0.990  -0.037  0.00  0.00    -0.021 A 
ATOM     25  C   UNL     1      -2.203   1.308   1.104  0.00  0.00    -0.004 A 
ATOM     26  S   UNL     1      -3.461   1.323   2.350  0.00  0.00    -0.077 S 
ATOM     27  C   UNL     1      -4.830   0.912   1.370  0.00  0.00    +0.086 A 
ATOM     28  C   UNL     1      -0.737   1.584   1.267  0.00  0.00    +0.043 C 
ATOM     29  C   UNL     1      -0.013   1.086   0.008  0.00  0.00    +0.005 C 
ATOM     30  C   UNL     1      -0.759   1.596  -1.228  0.00  0.00    +0.005 C 
ATOM     31  C   UNL     1      -2.102   0.875  -1.359  0.00  0.00    +0.037 C 
BRANCH  23  32
ATOM     32  C   UNL     1      -5.113   0.421  -1.051  0.00  0.00    +0.342 C 
ATOM     33  O   UNL     1      -5.285  -0.747  -1.343  0.00  0.00    -0.245 OA
BRANCH  32  35
ATOM     34  C   UNL     1      -6.499   0.972  -2.917  0.00  0.00    +0.280 C 
ATOM     35  O   UNL     1      -5.688   1.393  -1.789  0.00  0.00    -0.464 OA
ENDBRANCH  32  35
ENDBRANCH  23  32
ENDBRANCH  19  27
ENDBRANCH   1  20
TORSDOF 5
