REMARK  Name = ZINC04150087
REMARK  6 active torsions:
REMARK  status: ('A' for Active; 'I' for Inactive)
REMARK    1  A    between atoms: C_1  and  C_2
REMARK    2  A    between atoms: N_4  and  C_5
REMARK    3  A    between atoms: C_8  and  S_11
REMARK    4  A    between atoms: S_11  and  N_14
REMARK    5  A    between atoms: N_14  and  C_15
REMARK    6  A    between atoms: N_33  and  C_34
REMARK                            x       y       z     vdW  Elec       q    Type
REMARK                         _______ _______ _______ _____ _____    ______ ____
ROOT
ATOM      1  C   UNL     1       1.014  -2.048   0.102  0.00  0.00    +0.112 A 
ATOM      2  C   UNL     1       0.241  -3.079   0.560  0.00  0.00    +0.031 A 
ATOM      3  C   UNL     1      -1.146  -2.903   0.635  0.00  0.00    +0.024 A 
ATOM      4  C   UNL     1      -1.717  -1.734   0.243  0.00  0.00    +0.027 A 
ATOM      5  N   UNL     1      -0.963  -0.742  -0.289  0.00  0.00    -0.310 N 
ATOM      6  C   UNL     1       0.388  -0.854  -0.307  0.00  0.00    +0.274 A 
ATOM      7  O   UNL     1       1.069   0.088  -0.680  0.00  0.00    -0.266 OA
ATOM      8  C   UNL     1      -1.538   0.458  -0.898  0.00  0.00    +0.130 C 
ATOM      9  C   UNL     1      -2.955   0.725  -0.424  0.00  0.00    +0.027 C 
ATOM     10  C   UNL     1      -3.779  -0.560  -0.498  0.00  0.00    +0.018 C 
ATOM     11  C   UNL     1      -3.197  -1.567   0.498  0.00  0.00    +0.054 C 
ATOM     12  C   UNL     1      -3.373  -1.000   1.917  0.00  0.00    +0.119 C 
ATOM     13  N   UNL     1      -2.653   0.283   1.970  0.00  0.00    -0.284 N 
ATOM     14  C   UNL     1      -2.985   1.314   0.980  0.00  0.00    +0.114 C 
ATOM     15  C   UNL     1      -1.711   0.506   2.907  0.00  0.00    +0.306 C 
ATOM     16  O   UNL     1      -1.377  -0.390   3.659  0.00  0.00    -0.252 OA
ATOM     17  N   UNL     1      -1.139   1.722   3.012  0.00  0.00    -0.269 N 
ATOM     18  H   UNL     1      -1.464   2.459   2.471  0.00  0.00    +0.156 HD
ENDROOT
BRANCH  17  19
ATOM     19  C   UNL     1      -0.076   1.921   3.902  0.00  0.00    +0.035 A 
ATOM     20  C   UNL     1       0.861   0.917   4.102  0.00  0.00    +0.026 A 
ATOM     21  C   UNL     1       1.911   1.118   4.976  0.00  0.00    +0.040 A 
ATOM     22  C   UNL     1       2.024   2.316   5.661  0.00  0.00    +0.124 A 
ATOM     23  C   UNL     1       1.088   3.317   5.466  0.00  0.00    +0.040 A 
ATOM     24  C   UNL     1       0.039   3.122   4.589  0.00  0.00    +0.026 A 
ATOM     25  F   UNL     1       3.049   2.509   6.519  0.00  0.00    -0.205 F 
ENDBRANCH  17  19
BRANCH   1  26
ATOM     26  N   UNL     1       2.407  -2.178   0.039  0.00  0.00    -0.211 N 
ATOM     27  H   UNL     1       2.942  -1.476  -0.362  0.00  0.00    +0.174 HD
BRANCH  26  28
ATOM     28  S   UNL     1       3.141  -3.530   0.651  0.00  0.00    +0.072 S 
ATOM     29  O   UNL     1       2.407  -4.646   0.165  0.00  0.00    -0.150 OA
ATOM     30  O   UNL     1       4.535  -3.376   0.420  0.00  0.00    -0.150 OA
BRANCH  28  34
ATOM     31  C   UNL     1       2.558  -3.456   5.142  0.00  0.00    +0.033 A 
ATOM     32  C   UNL     1       1.723  -4.227   4.344  0.00  0.00    +0.025 A 
ATOM     33  C   UNL     1       1.903  -4.248   2.975  0.00  0.00    +0.030 A 
ATOM     34  C   UNL     1       2.914  -3.501   2.398  0.00  0.00    +0.109 A 
ATOM     35  C   UNL     1       3.751  -2.736   3.190  0.00  0.00    +0.030 A 
ATOM     36  C   UNL     1       3.573  -2.707   4.559  0.00  0.00    +0.025 A 
BRANCH  31  40
ATOM     37  C   UNL     1       3.261  -3.425   8.840  0.00  0.00    +0.109 C 
ATOM     38  C   UNL     1       3.447  -3.348   7.346  0.00  0.00    +0.214 C 
ATOM     39  O   UNL     1       4.558  -3.210   6.879  0.00  0.00    -0.276 OA
ATOM     40  N   UNL     1       2.378  -3.432   6.529  0.00  0.00    -0.286 N 
ATOM     41  H   UNL     1       1.484  -3.477   6.903  0.00  0.00    +0.155 HD
ENDBRANCH  31  40
ENDBRANCH  28  34
ENDBRANCH  26  28
ENDBRANCH   1  26
TORSDOF 5
