REMARK  Name = ZINC67061670
REMARK  8 active torsions:
REMARK  status: ('A' for Active; 'I' for Inactive)
REMARK    1  A    between atoms: C_1  and  C_2
REMARK    2  A    between atoms: C_5  and  C_7
REMARK    3  A    between atoms: C_7  and  C_9
REMARK    4  A    between atoms: C_7  and  N_10
REMARK    5  A    between atoms: N_13  and  C_14
REMARK    6  A    between atoms: C_14  and  C_15
REMARK    7  A    between atoms: C_16  and  C_26
REMARK    8  A    between atoms: C_18  and  C_20
REMARK                            x       y       z     vdW  Elec       q    Type
REMARK                         _______ _______ _______ _____ _____    ______ ____
ROOT
ATOM      1  N   UNL     1       2.819  -2.969   0.861  0.00  0.00    -0.290 N 
ATOM      2  C   UNL     1       3.507  -3.989   1.413  0.00  0.00    +0.300 C 
ATOM      3  O   UNL     1       3.185  -5.137   1.177  0.00  0.00    -0.253 OA
ATOM      4  N   UNL     1       4.551  -3.735   2.226  0.00  0.00    -0.295 N 
ATOM      5  H   UNL     1       3.076  -2.053   1.050  0.00  0.00    +0.151 HD
ATOM      6  H   UNL     1       4.808  -2.819   2.414  0.00  0.00    +0.151 HD
ENDROOT
BRANCH   1   7
ATOM      7  C   UNL     1       1.684  -3.245  -0.023  0.00  0.00    +0.137 C 
ATOM      8  C   UNL     1       2.192  -3.480  -1.447  0.00  0.00    +0.036 C 
BRANCH   7  13
ATOM      9  C   UNL     1      -0.018   1.503   0.010  0.00  0.00    +0.086 C 
ATOM     10  C   UNL     1       0.002  -0.004   0.002  0.00  0.00    +0.102 A 
ATOM     11  C   UNL     1      -1.078  -0.805   0.003  0.00  0.00    +0.045 A 
ATOM     12  C   UNL     1      -0.601  -2.136  -0.007  0.00  0.00    +0.047 A 
ATOM     13  C   UNL     1       0.742  -2.069  -0.013  0.00  0.00    +0.125 A 
ATOM     14  O   UNL     1       1.102  -0.775  -0.013  0.00  0.00    -0.463 OA
ENDBRANCH   7  13
ENDBRANCH   1   7
BRANCH   4  15
ATOM     15  C   UNL     1       5.299  -4.843   2.826  0.00  0.00    +0.150 C 
BRANCH  15  16
ATOM     16  C   UNL     1       6.408  -4.294   3.686  0.00  0.00    +0.030 A 
ATOM     17  C   UNL     1       6.404  -3.972   5.006  0.00  0.00    +0.051 A 
ATOM     18  N   UNL     1       7.493  -3.502   5.568  0.00  0.00    -0.244 NA
ATOM     19  C   UNL     1       8.608  -3.333   4.872  0.00  0.00    +0.109 A 
ATOM     20  S   UNL     1       8.097  -3.893   3.253  0.00  0.00    -0.070 S 
ATOM     21  C   UNL     1       5.151  -4.153   5.824  0.00  0.00    +0.066 C 
BRANCH  19  22
ATOM     22  C   UNL     1       9.924  -2.823   5.316  0.00  0.00    +0.007 A 
ATOM     23  C   UNL     1      10.977  -2.717   4.407  0.00  0.00    +0.010 A 
ATOM     24  C   UNL     1      12.202  -2.241   4.828  0.00  0.00    +0.001 A 
ATOM     25  C   UNL     1      12.386  -1.869   6.148  0.00  0.00    +0.000 A 
ATOM     26  C   UNL     1      11.345  -1.971   7.054  0.00  0.00    +0.001 A 
ATOM     27  C   UNL     1      10.114  -2.440   6.644  0.00  0.00    +0.010 A 
ENDBRANCH  19  22
ENDBRANCH  15  16
ENDBRANCH   4  15
TORSDOF 5
