REMARK  Name = ZINC11591427
REMARK  5 active torsions:
REMARK  status: ('A' for Active; 'I' for Inactive)
REMARK    1  A    between atoms: C_1  and  C_2
REMARK    2  A    between atoms: C_2  and  N_3
REMARK    3  A    between atoms: N_3  and  C_4
REMARK    4  A    between atoms: C_14  and  C_16
REMARK    5  A    between atoms: C_16  and  N_17
REMARK                            x       y       z     vdW  Elec       q    Type
REMARK                         _______ _______ _______ _____ _____    ______ ____
ROOT
ATOM      1  N   UNL     1       1.246  -0.498  -0.013  0.00  0.00    -0.215 N 
ATOM      2  C   UNL     1       2.171   0.485  -0.017  0.00  0.00    +0.252 C 
ATOM      3  O   UNL     1       3.376   0.359  -0.029  0.00  0.00    -0.272 OA
ATOM      4  C   UNL     1       1.386   1.777  -0.002  0.00  0.00    +0.144 C 
ATOM      5  C   UNL     1       1.707   2.579   1.256  0.00  0.00    +0.081 C 
ATOM      6  C   UNL     1       1.100   3.980   1.101  0.00  0.00    +0.232 C 
ATOM      7  O   UNL     1       1.738   4.632   0.003  0.00  0.00    -0.492 OA
ATOM      8  C   UNL     1       1.835   3.958  -1.172  0.00  0.00    +0.126 A 
ATOM      9  C   UNL     1       1.679   2.582  -1.236  0.00  0.00    +0.027 A 
ATOM     10  C   UNL     1       1.792   1.934  -2.454  0.00  0.00    +0.010 A 
ATOM     11  C   UNL     1       2.056   2.650  -3.605  0.00  0.00    +0.001 A 
ATOM     12  C   UNL     1       2.209   4.023  -3.544  0.00  0.00    +0.004 A 
ATOM     13  C   UNL     1       2.099   4.676  -2.333  0.00  0.00    +0.046 A 
ATOM     14  N   UNL     1      -0.016   1.343   0.009  0.00  0.00    -0.281 N 
ATOM     15  C   UNL     1       0.002  -0.004   0.002  0.00  0.00    +0.310 C 
ATOM     16  O   UNL     1      -0.999  -0.694   0.008  0.00  0.00    -0.252 OA
ATOM     17  H   UNL     1      -0.801   1.913   0.016  0.00  0.00    +0.152 HD
ENDROOT
BRANCH   1  18
ATOM     18  C   UNL     1       1.565  -1.928  -0.023  0.00  0.00    +0.214 C 
BRANCH  18  20
ATOM     19  N   UNL     1       1.946  -3.703  -1.703  0.00  0.00    -0.270 N 
ATOM     20  C   UNL     1       1.660  -2.411  -1.448  0.00  0.00    +0.238 C 
ATOM     21  O   UNL     1       1.480  -1.637  -2.364  0.00  0.00    -0.274 OA
BRANCH  19  22
ATOM     22  C   UNL     1       2.034  -4.151  -3.022  0.00  0.00    +0.044 A 
ATOM     23  C   UNL     1       3.238  -4.110  -3.692  0.00  0.00    +0.024 A 
ATOM     24  C   UNL     1       3.338  -4.557  -5.005  0.00  0.00    +0.002 A 
ATOM     25  C   UNL     1       2.250  -5.038  -5.669  0.00  0.00    +0.008 A 
ATOM     26  C   UNL     1       1.003  -5.093  -5.024  0.00  0.00    -0.016 A 
ATOM     27  C   UNL     1       0.890  -4.644  -3.685  0.00  0.00    +0.004 A 
ATOM     28  C   UNL     1      -0.357  -4.698  -3.043  0.00  0.00    +0.010 A 
ATOM     29  C   UNL     1      -1.440  -5.179  -3.713  0.00  0.00    +0.001 A 
ATOM     30  C   UNL     1      -1.330  -5.621  -5.030  0.00  0.00    +0.001 A 
ATOM     31  C   UNL     1      -0.137  -5.583  -5.684  0.00  0.00    +0.008 A 
ENDBRANCH  19  22
BRANCH  19  33
ATOM     32  C   UNL     1       0.831  -5.277  -0.199  0.00  0.00    +0.025 C 
ATOM     33  C   UNL     1       2.163  -4.638  -0.596  0.00  0.00    +0.110 C 
ENDBRANCH  19  33
ENDBRANCH  18  20
ENDBRANCH   1  18
TORSDOF 4
