REMARK  Name = ZINC66392937
REMARK  7 active torsions:
REMARK  status: ('A' for Active; 'I' for Inactive)
REMARK    1  A    between atoms: C_1  and  C_2
REMARK    2  A    between atoms: C_2  and  C_4
REMARK    3  A    between atoms: C_2  and  N_11
REMARK    4  A    between atoms: N_9  and  C_10
REMARK    5  A    between atoms: N_11  and  C_12
REMARK    6  A    between atoms: C_12  and  C_13
REMARK    7  A    between atoms: C_13  and  C_19
REMARK                            x       y       z     vdW  Elec       q    Type
REMARK                         _______ _______ _______ _____ _____    ______ ____
ROOT
ATOM      1  C   UNL     1      -0.104  -0.050  -2.420  0.00  0.00    -0.070 C 
ENDROOT
BRANCH   1   2
ATOM      2  C   UNL     1       0.517  -0.598  -3.706  0.00  0.00    -0.019 C 
ATOM      3  C   UNL     1       0.538  -2.127  -3.651  0.00  0.00    +0.010 C 
ATOM      4  C   UNL     1      -0.892  -2.652  -3.512  0.00  0.00    +0.001 C 
ATOM      5  C   UNL     1      -1.722  -2.196  -4.713  0.00  0.00    +0.000 C 
ATOM      6  C   UNL     1      -1.743  -0.667  -4.768  0.00  0.00    +0.001 C 
ATOM      7  C   UNL     1      -0.313  -0.142  -4.908  0.00  0.00    +0.010 C 
BRANCH   2   8
ATOM      8  C   UNL     1       1.926  -0.081  -3.843  0.00  0.00    -0.039 A 
ATOM      9  C   UNL     1       2.505   0.628  -2.807  0.00  0.00    +0.008 A 
ATOM     10  C   UNL     1       3.797   1.104  -2.928  0.00  0.00    +0.050 A 
ATOM     11  C   UNL     1       4.516   0.871  -4.090  0.00  0.00    +0.166 A 
ATOM     12  C   UNL     1       3.933   0.156  -5.133  0.00  0.00    +0.167 A 
ATOM     13  C   UNL     1       2.639  -0.322  -5.003  0.00  0.00    +0.053 A 
ATOM     14  O   UNL     1       4.834   0.062  -6.154  0.00  0.00    -0.453 OA
ATOM     15  C   UNL     1       5.824   1.074  -5.888  0.00  0.00    +0.466 C 
ATOM     16  O   UNL     1       5.782   1.225  -4.457  0.00  0.00    -0.453 OA
ENDBRANCH   2   8
ENDBRANCH   1   2
BRANCH   1  17
ATOM     17  N   UNL     1      -0.255   1.407  -2.531  0.00  0.00    +0.387 N 
ATOM     18  H   UNL     1      -0.923   1.621  -3.256  0.00  0.00    -0.085 HD
ATOM     19  H   UNL     1       0.636   1.821  -2.762  0.00  0.00    -0.085 HD
BRANCH  17  21
ATOM     20  C   UNL     1      -2.136   1.417  -0.962  0.00  0.00    -0.004 C 
ATOM     21  C   UNL     1      -0.731   1.949  -1.251  0.00  0.00    +0.013 C 
BRANCH  21  22
ATOM     22  C   UNL     1      -0.768   3.454  -1.326  0.00  0.00    +0.206 C 
ATOM     23  O   UNL     1      -0.433   4.019  -2.345  0.00  0.00    -0.277 OA
ATOM     24  N   UNL     1      -1.176   4.171  -0.261  0.00  0.00    -0.242 N 
ATOM     25  C   UNL     1      -1.210   5.517  -0.328  0.00  0.00    +0.306 C 
ATOM     26  O   UNL     1      -0.873   6.083  -1.349  0.00  0.00    -0.252 OA
ATOM     27  N   UNL     1      -1.617   6.235   0.738  0.00  0.00    -0.302 N 
ATOM     28  C   UNL     1      -1.654   7.698   0.665  0.00  0.00    +0.129 C 
ATOM     29  H   UNL     1      -1.444   3.720   0.555  0.00  0.00    +0.159 HD
ATOM     30  H   UNL     1      -1.885   5.783   1.553  0.00  0.00    +0.150 HD
ENDBRANCH  21  22
ENDBRANCH  17  21
ENDBRANCH   1  17
TORSDOF 5
