REMARK  Name = ZINC04087267
REMARK  6 active torsions:
REMARK  status: ('A' for Active; 'I' for Inactive)
REMARK    1  A    between atoms: C_1  and  C_2
REMARK    2  A    between atoms: C_2  and  C_3
REMARK    3  A    between atoms: C_2  and  N_50
REMARK    4  A    between atoms: C_9  and  N_14
REMARK    5  A    between atoms: C_10  and  C_11
REMARK    6  A    between atoms: C_15  and  C_17
REMARK                            x       y       z     vdW  Elec       q    Type
REMARK                         _______ _______ _______ _____ _____    ______ ____
ROOT
ATOM      1  C   UNL     1       9.517   9.391   0.407  0.00  0.00    -0.073 C 
ATOM      2  C   UNL     1       8.048   9.316  -0.020  0.00  0.00    +0.018 C 
ATOM      3  C   UNL     1       7.631   7.850  -0.028  0.00  0.00    -0.027 A 
ATOM      4  C   UNL     1       8.570   6.877  -0.043  0.00  0.00    -0.021 A 
ATOM      5  S   UNL     1       7.654   5.364  -0.036  0.00  0.00    -0.079 S 
ATOM      6  C   UNL     1       6.046   6.011  -0.024  0.00  0.00    +0.085 A 
ATOM      7  C   UNL     1       6.257   7.385  -0.018  0.00  0.00    +0.068 A 
ATOM      8  C   UNL     1      10.054   7.074  -0.057  0.00  0.00    -0.035 C 
ATOM      9  N   UNL     1      10.320   8.483  -0.438  0.00  0.00    +0.384 N 
ATOM     10  H   UNL     1      10.055   8.619  -1.421  0.00  0.00    -0.081 HD
ENDROOT
BRANCH   7  11
ATOM     11  C   UNL     1       5.134   8.327  -0.002  0.00  0.00    +0.244 C 
ATOM     12  O   UNL     1       4.677   8.712   1.058  0.00  0.00    -0.270 OA
ATOM     13  N   UNL     1       4.607   8.767  -1.162  0.00  0.00    -0.325 N 
ATOM     14  H   UNL     1       4.971   8.460  -2.007  0.00  0.00    +0.145 HD
ATOM     15  H   UNL     1       3.865   9.391  -1.152  0.00  0.00    +0.145 HD
ENDBRANCH   7  11
BRANCH   6  16
ATOM     16  N   UNL     1       4.842   5.326  -0.016  0.00  0.00    -0.275 N 
ATOM     17  C   UNL     1       4.834   3.978  -0.024  0.00  0.00    +0.256 C 
ATOM     18  O   UNL     1       5.884   3.364  -0.037  0.00  0.00    -0.270 OA
ATOM     19  H   UNL     1       4.005   5.816  -0.005  0.00  0.00    +0.156 HD
BRANCH  17  20
ATOM     20  C   UNL     1       3.555   3.249  -0.015  0.00  0.00    +0.122 A 
ATOM     21  C   UNL     1       2.353   3.936   0.000  0.00  0.00    +0.031 A 
ATOM     22  C   UNL     1       1.145   3.193   0.008  0.00  0.00    +0.018 A 
ATOM     23  C   UNL     1      -0.091   3.857   0.024  0.00  0.00    +0.011 A 
ATOM     24  C   UNL     1      -1.250   3.137   0.031  0.00  0.00    +0.001 A 
ATOM     25  C   UNL     1      -1.216   1.749   0.017  0.00  0.00    +0.004 A 
ATOM     26  C   UNL     1      -0.013   1.076   0.008  0.00  0.00    +0.047 A 
ATOM     27  C   UNL     1       1.182   1.788   0.000  0.00  0.00    +0.139 A 
ATOM     28  O   UNL     1       2.359   1.126  -0.015  0.00  0.00    -0.422 OA
ATOM     29  C   UNL     1       3.531   1.782  -0.023  0.00  0.00    +0.350 A 
ATOM     30  O   UNL     1       4.576   1.158  -0.037  0.00  0.00    -0.244 OA
ENDBRANCH  17  20
ENDBRANCH   6  16
BRANCH   9  32
ATOM     31  C   UNL     1      12.195   8.575   1.170  0.00  0.00    -0.014 C 
ATOM     32  C   UNL     1      11.759   8.786  -0.281  0.00  0.00    -0.074 C 
ATOM     33  C   UNL     1      12.564   7.861  -1.195  0.00  0.00    -0.014 C 
ENDBRANCH   9  32
TORSDOF 4
