REMARK  Name = ZINC06753053
REMARK  8 active torsions:
REMARK  status: ('A' for Active; 'I' for Inactive)
REMARK    1  A    between atoms: C_1  and  S_2
REMARK    2  A    between atoms: S_2  and  C_3
REMARK    3  A    between atoms: C_6  and  C_9
REMARK    4  A    between atoms: C_12  and  C_23
REMARK    5  A    between atoms: N_19  and  C_20
REMARK    6  A    between atoms: C_20  and  C_21
REMARK    7  A    between atoms: C_21  and  O_22
REMARK    8  A    between atoms: C_28  and  O_29
REMARK                            x       y       z     vdW  Elec       q    Type
REMARK                         _______ _______ _______ _____ _____    ______ ____
ROOT
ATOM      1  C   UNL     1      -5.837  -1.460  -0.113  0.00  0.00    +0.141 C 
ATOM      2  C   UNL     1      -6.175  -1.772   1.319  0.00  0.00    +0.035 A 
ATOM      3  C   UNL     1      -6.282  -1.306   2.634  0.00  0.00    +0.102 A 
ATOM      4  N   UNL     1      -6.688  -2.316   3.378  0.00  0.00    -0.173 NA
ATOM      5  N   UNL     1      -6.847  -3.373   2.664  0.00  0.00    -0.272 N 
ATOM      6  H   UNL     1      -7.140  -4.234   3.002  0.00  0.00    +0.189 HD
ATOM      7  C   UNL     1      -6.543  -3.103   1.360  0.00  0.00    +0.126 A 
ATOM      8  C   UNL     1      -6.451  -3.654   0.004  0.00  0.00    +0.266 C 
ATOM      9  O   UNL     1      -6.709  -4.804  -0.297  0.00  0.00    -0.268 OA
ATOM     10  N   UNL     1      -6.042  -2.707  -0.861  0.00  0.00    -0.283 N 
ENDROOT
BRANCH   1  14
ATOM     11  C   UNL     1      -1.761  -0.213  -0.424  0.00  0.00    +0.008 A 
ATOM     12  C   UNL     1      -2.787   0.691  -0.672  0.00  0.00    +0.015 A 
ATOM     13  C   UNL     1      -4.102   0.285  -0.571  0.00  0.00    +0.007 A 
ATOM     14  C   UNL     1      -4.400  -1.020  -0.223  0.00  0.00    -0.022 A 
ATOM     15  C   UNL     1      -3.381  -1.923   0.026  0.00  0.00    +0.007 A 
ATOM     16  C   UNL     1      -2.063  -1.525  -0.080  0.00  0.00    +0.015 A 
BRANCH  11  18
ATOM     17  C   UNL     1      -0.191   2.052  -1.013  0.00  0.00    +0.090 C 
ATOM     18  S   UNL     1      -0.080   0.302  -0.552  0.00  0.00    -0.129 S 
ENDBRANCH  11  18
ENDBRANCH   1  14
BRANCH   3  19
ATOM     19  C   UNL     1      -5.992   0.072   3.104  0.00  0.00    +0.044 A 
ATOM     20  C   UNL     1      -5.695   1.076   2.186  0.00  0.00    +0.014 A 
ATOM     21  C   UNL     1      -5.426   2.356   2.628  0.00  0.00    +0.001 A 
ATOM     22  C   UNL     1      -5.451   2.645   3.981  0.00  0.00    +0.004 A 
ATOM     23  C   UNL     1      -5.745   1.655   4.901  0.00  0.00    +0.046 A 
ATOM     24  C   UNL     1      -6.023   0.368   4.470  0.00  0.00    +0.126 A 
BRANCH  24  25
ATOM     25  O   UNL     1      -6.318  -0.604   5.372  0.00  0.00    -0.506 OA
ATOM     26  H   UNL     1      -5.546  -1.087   5.696  0.00  0.00    +0.292 HD
ENDBRANCH  24  25
ENDBRANCH   3  19
BRANCH  10  27
ATOM     27  C   UNL     1      -5.837  -2.888  -2.301  0.00  0.00    +0.137 C 
BRANCH  27  28
ATOM     28  C   UNL     1      -4.438  -3.454  -2.549  0.00  0.00    +0.175 C 
BRANCH  28  29
ATOM     29  O   UNL     1      -4.350  -4.768  -1.994  0.00  0.00    -0.393 OA
ATOM     30  H   UNL     1      -3.488  -5.189  -2.115  0.00  0.00    +0.209 HD
ENDBRANCH  28  29
ENDBRANCH  27  28
ENDBRANCH  10  27
TORSDOF 7
