REMARK  Name = ZINC12218466
REMARK  6 active torsions:
REMARK  status: ('A' for Active; 'I' for Inactive)
REMARK    1  A    between atoms: C_1  and  C_2
REMARK    2  A    between atoms: C_4  and  C_7
REMARK    3  A    between atoms: C_7  and  C_9
REMARK    4  A    between atoms: C_7  and  N_10
REMARK    5  A    between atoms: C_21  and  N_59
REMARK    6  A    between atoms: C_25  and  N_59
REMARK                            x       y       z     vdW  Elec       q    Type
REMARK                         _______ _______ _______ _____ _____    ______ ____
ROOT
ATOM      1  N   UNL     1      -1.971   3.175  -0.426  0.00  0.00    -0.290 N 
ATOM      2  C   UNL     1      -1.093   3.958   0.251  0.00  0.00    +0.203 A 
ATOM      3  N   UNL     1      -0.769   5.145  -0.186  0.00  0.00    -0.230 NA
ATOM      4  C   UNL     1      -1.290   5.625  -1.312  0.00  0.00    +0.116 A 
ATOM      5  C   UNL     1      -2.206   4.889  -2.080  0.00  0.00    +0.076 A 
ATOM      6  C   UNL     1      -2.537   3.588  -1.575  0.00  0.00    +0.263 A 
ATOM      7  O   UNL     1      -3.319   2.871  -2.174  0.00  0.00    -0.267 OA
ATOM      8  C   UNL     1      -2.696   5.543  -3.293  0.00  0.00    -0.023 A 
ATOM      9  C   UNL     1      -2.224   6.780  -3.554  0.00  0.00    -0.006 A 
ATOM     10  S   UNL     1      -1.115   7.140  -2.219  0.00  0.00    -0.073 S 
ATOM     11  C   UNL     1      -2.567   7.654  -4.722  0.00  0.00    +0.027 C 
ATOM     12  C   UNL     1      -3.259   6.791  -5.787  0.00  0.00    -0.066 C 
ATOM     13  C   UNL     1      -4.344   5.950  -5.108  0.00  0.00    -0.011 C 
ATOM     14  C   UNL     1      -3.696   4.875  -4.233  0.00  0.00    +0.035 C 
ENDROOT
BRANCH  12  15
ATOM     15  N   UNL     1      -3.875   7.666  -6.803  0.00  0.00    +0.383 N 
ATOM     16  H   UNL     1      -3.290   8.501  -6.930  0.00  0.00    -0.085 HD
ATOM     17  H   UNL     1      -4.809   7.948  -6.485  0.00  0.00    -0.085 HD
BRANCH  15  18
ATOM     18  C   UNL     1      -3.992   6.953  -8.089  0.00  0.00    -0.071 C 
ATOM     19  C   UNL     1      -2.654   7.067  -8.848  0.00  0.00    -0.016 C 
ATOM     20  C   UNL     1      -2.591   5.967  -9.873  0.00  0.00    -0.002 C 
ATOM     21  C   UNL     1      -3.087   6.424 -11.258  0.00  0.00    -0.000 C 
ATOM     22  C   UNL     1      -4.347   7.306 -11.181  0.00  0.00    -0.000 C 
ATOM     23  C   UNL     1      -5.345   6.798 -10.175  0.00  0.00    -0.002 C 
ATOM     24  C   UNL     1      -5.103   7.523  -8.835  0.00  0.00    -0.016 C 
ENDBRANCH  15  18
ENDBRANCH  12  15
BRANCH   1  25
ATOM     25  C   UNL     1      -2.306   1.850   0.102  0.00  0.00    +0.137 C 
ATOM     26  C   UNL     1      -2.925   1.997   1.494  0.00  0.00    +0.038 C 
BRANCH  25  30
ATOM     27  C   UNL     1       2.653   1.334   0.509  0.00  0.00    +0.073 C 
ATOM     28  C   UNL     1       1.226   0.867   0.380  0.00  0.00    +0.076 A 
ATOM     29  N   UNL     1       0.128   1.582   0.305  0.00  0.00    -0.247 NA
ATOM     30  C   UNL     1      -1.055   1.015   0.194  0.00  0.00    +0.071 A 
ATOM     31  C   UNL     1      -1.120  -0.341   0.159  0.00  0.00    +0.072 A 
ATOM     32  S   UNL     1       0.613  -0.756   0.294  0.00  0.00    -0.080 S 
ENDBRANCH  25  30
ENDBRANCH   1  25
TORSDOF 4
