REMARK  Name = ZINC09541800
REMARK  6 active torsions:
REMARK  status: ('A' for Active; 'I' for Inactive)
REMARK    1  A    between atoms: C_1  and  O_2
REMARK    2  A    between atoms: O_2  and  C_3
REMARK    3  A    between atoms: C_7  and  C_9
REMARK    4  A    between atoms: C_11  and  C_23
REMARK    5  A    between atoms: C_13  and  C_16
REMARK    6  A    between atoms: C_21  and  O_22
REMARK                            x       y       z     vdW  Elec       q    Type
REMARK                         _______ _______ _______ _____ _____    ______ ____
ROOT
ATOM      1  C   UNL     1      -0.076   5.324   0.033  0.00  0.00    +0.040 C 
ATOM      2  N   UNL     1       1.039   5.953   0.032  0.00  0.00    -0.299 NA
ATOM      3  C   UNL     1       1.159   7.405   0.024  0.00  0.00    +0.081 C 
ATOM      4  C   UNL     1      -1.224   7.490  -0.334  0.00  0.00    -0.028 C 
ATOM      5  C   UNL     1      -1.409   6.019   0.049  0.00  0.00    +0.044 C 
ATOM      6  N   UNL     1      -0.099   8.034   0.451  0.00  0.00    +0.401 N 
ATOM      7  H   UNL     1      -0.040   9.049   0.304  0.00  0.00    -0.081 HD
ATOM      8  H   UNL     1      -0.255   7.842   1.448  0.00  0.00    -0.081 HD
ENDROOT
BRANCH   3   9
ATOM      9  C   UNL     1       2.260   7.813   0.969  0.00  0.00    -0.040 A 
ATOM     10  C   UNL     1       2.210   9.043   1.598  0.00  0.00    +0.005 A 
ATOM     11  C   UNL     1       3.216   9.415   2.469  0.00  0.00    +0.015 A 
ATOM     12  C   UNL     1       4.279   8.561   2.703  0.00  0.00    +0.018 A 
ATOM     13  C   UNL     1       4.331   7.333   2.070  0.00  0.00    +0.015 A 
ATOM     14  C   UNL     1       3.322   6.959   1.203  0.00  0.00    +0.005 A 
ATOM     15 BR   UNL     1       5.661   9.073   3.889  0.00  0.00    -0.050 Br
ENDBRANCH   3   9
BRANCH   1  20
ATOM     16  C   UNL     1       1.182   1.784   0.000  0.00  0.00    +0.121 A 
ATOM     17  C   UNL     1      -0.013   1.076   0.008  0.00  0.00    +0.045 A 
ATOM     18  C   UNL     1      -1.221   1.748   0.017  0.00  0.00    +0.004 A 
ATOM     19  C   UNL     1      -1.247   3.128   0.031  0.00  0.00    +0.010 A 
ATOM     20  C   UNL     1      -0.051   3.848   0.024  0.00  0.00    -0.001 A 
ATOM     21  C   UNL     1       1.167   3.168   0.008  0.00  0.00    +0.055 A 
BRANCH  16  23
ATOM     22  C   UNL     1       2.307  -0.310  -0.022  0.00  0.00    +0.277 C 
ATOM     23  O   UNL     1       2.366   1.117  -0.015  0.00  0.00    -0.495 OA
ENDBRANCH  16  23
ENDBRANCH   1  20
BRANCH   4  24
ATOM     24  C   UNL     1      -2.481   8.260  -0.018  0.00  0.00    -0.019 A 
ATOM     25  C   UNL     1      -2.556   9.016   1.136  0.00  0.00    +0.005 A 
ATOM     26  C   UNL     1      -3.708   9.723   1.427  0.00  0.00    +0.000 A 
ATOM     27  C   UNL     1      -4.788   9.675   0.564  0.00  0.00    +0.004 A 
ATOM     28  C   UNL     1      -4.717   8.921  -0.591  0.00  0.00    +0.045 A 
ATOM     29  C   UNL     1      -3.560   8.214  -0.887  0.00  0.00    +0.118 A 
BRANCH  29  30
ATOM     30  O   UNL     1      -3.486   7.476  -2.026  0.00  0.00    -0.507 OA
ATOM     31  H   UNL     1      -3.785   6.562  -1.921  0.00  0.00    +0.292 HD
ENDBRANCH  29  30
ENDBRANCH   4  24
TORSDOF 5
