REMARK  Name = ZINC25681536
REMARK  8 active torsions:
REMARK  status: ('A' for Active; 'I' for Inactive)
REMARK    1  A    between atoms: C_1  and  C_2
REMARK    2  A    between atoms: C_9  and  C_16
REMARK    3  A    between atoms: C_11  and  O_12
REMARK    4  A    between atoms: C_16  and  O_17
REMARK    5  A    between atoms: O_17  and  C_18
REMARK    6  A    between atoms: C_18  and  C_20
REMARK    7  A    between atoms: C_23  and  C_26
REMARK    8  A    between atoms: C_26  and  N_27
REMARK                            x       y       z     vdW  Elec       q    Type
REMARK                         _______ _______ _______ _____ _____    ______ ____
ROOT
ATOM      1  C   UNL     1      -0.370  -7.024   0.344  0.00  0.00    +0.269 C 
ENDROOT
BRANCH   1  10
ATOM      2  C   UNL     1      -0.617   1.507  -2.165  0.00  0.00    +0.109 C 
ATOM      3  C   UNL     1      -0.606  -0.000  -2.168  0.00  0.00    +0.214 C 
ATOM      4  O   UNL     1      -1.141  -0.609  -3.070  0.00  0.00    -0.276 OA
ATOM      5  N   UNL     1       0.000  -0.672  -1.169  0.00  0.00    -0.286 N 
ATOM      6  C   UNL     1      -0.071  -2.064  -1.121  0.00  0.00    +0.037 A 
ATOM      7  C   UNL     1      -0.140  -2.712   0.113  0.00  0.00    +0.024 A 
ATOM      8  C   UNL     1      -0.216  -4.072   0.175  0.00  0.00    +0.014 A 
ATOM      9  C   UNL     1      -0.211  -4.825  -1.005  0.00  0.00    +0.024 A 
ATOM     10  C   UNL     1      -0.286  -6.287  -0.967  0.00  0.00    +0.007 A 
ATOM     11  C   UNL     1      -0.279  -6.961  -2.147  0.00  0.00    +0.095 A 
ATOM     12  C   UNL     1      -0.200  -6.248  -3.361  0.00  0.00    +0.285 A 
ATOM     13  O   UNL     1      -0.132  -4.908  -3.389  0.00  0.00    -0.425 OA
ATOM     14  C   UNL     1      -0.136  -4.178  -2.253  0.00  0.00    +0.141 A 
ATOM     15  C   UNL     1      -0.065  -2.794  -2.300  0.00  0.00    +0.070 A 
ATOM     16  H   UNL     1       0.550  -0.122  -0.391  0.00  0.00    +0.155 HD
BRANCH  12  17
ATOM     17  O   UNL     1      -0.194  -6.865  -4.412  0.00  0.00    -0.480 OA
ATOM     18  H   UNL     1      -0.133  -6.323  -5.367  0.00  0.00    +0.295 HD
ENDBRANCH  12  17
ENDBRANCH   1  10
BRANCH   1  19
ATOM     19  O   UNL     1      -0.433  -8.452   0.094  0.00  0.00    -0.456 OA
BRANCH  19  20
ATOM     20  C   UNL     1      -0.512  -9.259   1.170  0.00  0.00    +0.339 C 
ATOM     21  O   UNL     1      -0.527  -8.782   2.287  0.00  0.00    -0.245 OA
BRANCH  20  22
ATOM     22  C   UNL     1      -0.580 -10.724   0.991  0.00  0.00    +0.059 A 
ATOM     23  C   UNL     1      -0.568 -11.275  -0.291  0.00  0.00    +0.015 A 
ATOM     24  C   UNL     1      -0.625 -12.644  -0.451  0.00  0.00    +0.006 A 
ATOM     25  C   UNL     1      -0.706 -13.470   0.657  0.00  0.00    -0.030 A 
ATOM     26  C   UNL     1      -0.724 -12.930   1.931  0.00  0.00    +0.006 A 
ATOM     27  C   UNL     1      -0.661 -11.563   2.104  0.00  0.00    +0.015 A 
BRANCH  25  28
ATOM     28  C   UNL     1      -0.775 -14.964   0.475  0.00  0.00    +0.151 C 
BRANCH  28  29
ATOM     29  N   UNL     1      -2.176 -15.380   0.367  0.00  0.00    -0.238 N 
ATOM     30  C   UNL     1      -2.913 -15.724   1.430  0.00  0.00    +0.223 C 
ATOM     31  O   UNL     1      -2.526 -15.736   2.579  0.00  0.00    -0.275 OA
ATOM     32  C   UNL     1      -4.307 -16.093   0.971  0.00  0.00    +0.105 C 
ATOM     33  C   UNL     1      -4.244 -15.910  -0.559  0.00  0.00    +0.105 C 
ATOM     34  C   UNL     1      -2.822 -15.451  -0.803  0.00  0.00    +0.223 C 
ATOM     35  O   UNL     1      -2.345 -15.190  -1.886  0.00  0.00    -0.275 OA
ENDBRANCH  28  29
ENDBRANCH  25  28
ENDBRANCH  20  22
ENDBRANCH  19  20
ENDBRANCH   1  19
TORSDOF 7
