REMARK  Name = ZINC39670332
REMARK  5 active torsions:
REMARK  status: ('A' for Active; 'I' for Inactive)
REMARK    1  A    between atoms: C_1  and  C_2
REMARK    2  A    between atoms: C_7  and  C_11
REMARK    3  A    between atoms: C_11  and  N_12
REMARK    4  A    between atoms: C_13  and  C_15
REMARK    5  A    between atoms: C_26  and  C_28
REMARK                            x       y       z     vdW  Elec       q    Type
REMARK                         _______ _______ _______ _____ _____    ______ ____
ROOT
ATOM      1  C   UNL     1       3.154  -7.368   3.688  0.00  0.00    +0.100 C 
ATOM      2  C   UNL     1       3.796  -6.243   4.529  0.00  0.00    +0.121 C 
ATOM      3  N   UNL     1       3.604  -6.670   5.935  0.00  0.00    -0.296 N 
ATOM      4  C   UNL     1       3.838  -8.134   5.911  0.00  0.00    +0.115 C 
ATOM      5  C   UNL     1       3.187  -8.609   4.596  0.00  0.00    -0.004 C 
ATOM      6  C   UNL     1       4.028  -9.710   3.958  0.00  0.00    -0.010 C 
ATOM      7  C   UNL     1       3.998 -10.953   4.851  0.00  0.00    -0.082 C 
ATOM      8  N   UNL     1       2.611 -11.404   5.019  0.00  0.00    +0.379 N 
ATOM      9  C   UNL     1       1.831 -10.375   5.718  0.00  0.00    -0.082 C 
ATOM     10  C   UNL     1       1.770  -9.108   4.861  0.00  0.00    -0.010 C 
ATOM     11  C   UNL     1       3.288  -5.902   6.997  0.00  0.00    +0.252 C 
ATOM     12  O   UNL     1       3.165  -6.405   8.096  0.00  0.00    -0.270 OA
ATOM     13  H   UNL     1       2.202 -11.575   4.112  0.00  0.00    -0.086 HD
ATOM     14  H   UNL     1       2.599 -12.257   5.557  0.00  0.00    -0.086 HD
ENDROOT
BRANCH  11  15
ATOM     15  C   UNL     1       3.092  -4.450   6.824  0.00  0.00    +0.108 A 
ATOM     16  C   UNL     1       1.821  -3.942   6.531  0.00  0.00    +0.138 A 
ATOM     17  C   UNL     1       1.646  -2.580   6.371  0.00  0.00    +0.041 A 
ATOM     18  C   UNL     1       2.722  -1.720   6.499  0.00  0.00    +0.026 A 
ATOM     19  C   UNL     1       3.981  -2.214   6.789  0.00  0.00    +0.077 A 
ATOM     20  C   UNL     1       4.173  -3.573   6.958  0.00  0.00    +0.156 A 
ATOM     21  F   UNL     1       5.403  -4.053   7.246  0.00  0.00    -0.203 F 
ATOM     22 CL   UNL     1       5.323  -1.124   6.947  0.00  0.00    -0.081 Cl
ATOM     23  F   UNL     1       0.769  -4.780   6.404  0.00  0.00    -0.205 F 
ENDBRANCH  11  15
BRANCH   1  25
ATOM     24  N   UNL     1       1.177  -7.499   2.207  0.00  0.00    -0.309 N 
ATOM     25  C   UNL     1       1.732  -7.014   3.335  0.00  0.00    +0.219 C 
ATOM     26  O   UNL     1       1.088  -6.292   4.067  0.00  0.00    -0.275 OA
ATOM     27  H   UNL     1       1.692  -8.076   1.622  0.00  0.00    +0.149 HD
BRANCH  24  28
ATOM     28  C   UNL     1      -0.205  -7.154   1.864  0.00  0.00    +0.159 C 
BRANCH  28  35
ATOM     29  C   UNL     1      -1.403  -9.189  -5.156  0.00  0.00    +0.044 C 
ATOM     30  C   UNL     1      -1.384  -9.194  -3.649  0.00  0.00    -0.046 A 
ATOM     31  C   UNL     1      -1.951 -10.267  -2.940  0.00  0.00    +0.021 A 
ATOM     32  C   UNL     1      -1.935 -10.275  -1.591  0.00  0.00    +0.093 A 
ATOM     33  N   UNL     1      -1.370  -9.245  -0.896  0.00  0.00    -0.308 N 
ATOM     34  C   UNL     1      -1.221  -9.004   0.443  0.00  0.00    +0.115 A 
ATOM     35  C   UNL     1      -0.582  -7.820   0.566  0.00  0.00    +0.051 A 
ATOM     36  N   UNL     1      -0.339  -7.337  -0.655  0.00  0.00    -0.342 N 
ATOM     37  C   UNL     1      -0.809  -8.185  -1.560  0.00  0.00    +0.116 A 
ATOM     38  C   UNL     1      -0.812  -8.164  -2.969  0.00  0.00    +0.048 A 
ATOM     39  H   UNL     1       0.109  -6.499  -0.850  0.00  0.00    +0.167 HD
ENDBRANCH  28  35
ENDBRANCH  24  28
ENDBRANCH   1  25
TORSDOF 4
