REMARK  Name = ZINC03292702
REMARK  7 active torsions:
REMARK  status: ('A' for Active; 'I' for Inactive)
REMARK    1  A    between atoms: C_1  and  C_2
REMARK    2  A    between atoms: C_2  and  C_3
REMARK    3  A    between atoms: C_3  and  N_4
REMARK    4  A    between atoms: C_13  and  S_14
REMARK    5  A    between atoms: S_14  and  C_15
REMARK    6  A    between atoms: C_15  and  C_16
REMARK    7  A    between atoms: N_18  and  C_19
REMARK                            x       y       z     vdW  Elec       q    Type
REMARK                         _______ _______ _______ _____ _____    ______ ____
ROOT
ATOM      1  S   UNL     1       0.949   3.700   1.020  0.00  0.00    -0.078 S 
ENDROOT
BRANCH   1  11
ATOM      2  N   UNL     1      -0.707   1.564   1.207  0.00  0.00    -0.287 N 
ATOM      3  C   UNL     1      -1.686   0.815   1.746  0.00  0.00    +0.263 A 
ATOM      4  O   UNL     1      -1.996  -0.252   1.244  0.00  0.00    -0.267 OA
ATOM      5  C   UNL     1      -2.358   1.287   2.918  0.00  0.00    +0.076 A 
ATOM      6  C   UNL     1      -3.440   0.642   3.665  0.00  0.00    -0.023 A 
ATOM      7  C   UNL     1      -3.909   1.295   4.748  0.00  0.00    -0.004 A 
ATOM      8  S   UNL     1      -2.954   2.785   4.837  0.00  0.00    -0.073 S 
ATOM      9  C   UNL     1      -1.923   2.527   3.416  0.00  0.00    +0.117 A 
ATOM     10  N   UNL     1      -0.949   3.218   2.836  0.00  0.00    -0.216 NA
ATOM     11  C   UNL     1      -0.344   2.758   1.759  0.00  0.00    +0.173 A 
ATOM     12  C   UNL     1      -5.003   0.851   5.671  0.00  0.00    +0.043 C 
ATOM     13  C   UNL     1      -5.774  -0.291   4.995  0.00  0.00    +0.005 C 
ATOM     14  C   UNL     1      -4.768  -1.307   4.446  0.00  0.00    +0.005 C 
ATOM     15  C   UNL     1      -4.023  -0.707   3.253  0.00  0.00    +0.037 C 
BRANCH   2  16
ATOM     16  C   UNL     1      -0.015   1.087   0.007  0.00  0.00    +0.127 C 
BRANCH  16  18
ATOM     17  C   UNL     1      -0.022   1.094  -2.491  0.00  0.00    +0.005 C 
ATOM     18  C   UNL     1      -0.745   1.593  -1.238  0.00  0.00    +0.018 C 
ENDBRANCH  16  18
ENDBRANCH   2  16
ENDBRANCH   1  11
BRANCH   1  19
ATOM     19  C   UNL     1       0.984   5.120   2.142  0.00  0.00    +0.173 C 
BRANCH  19  20
ATOM     20  C   UNL     1       2.048   6.089   1.692  0.00  0.00    +0.227 C 
ATOM     21  O   UNL     1       2.716   5.843   0.710  0.00  0.00    -0.275 OA
ATOM     22  N   UNL     1       2.256   7.228   2.381  0.00  0.00    -0.285 N 
ATOM     23  H   UNL     1       1.678   7.457   3.126  0.00  0.00    +0.155 HD
BRANCH  22  24
ATOM     24  C   UNL     1       3.307   8.082   2.022  0.00  0.00    +0.035 A 
ATOM     25  C   UNL     1       3.995   8.786   3.004  0.00  0.00    +0.025 A 
ATOM     26  C   UNL     1       5.035   9.624   2.657  0.00  0.00    +0.029 A 
ATOM     27  C   UNL     1       5.388   9.775   1.324  0.00  0.00    +0.067 A 
ATOM     28  C   UNL     1       4.695   9.073   0.336  0.00  0.00    +0.069 A 
ATOM     29  C   UNL     1       3.655   8.228   0.688  0.00  0.00    +0.051 A 
ATOM     30  N   UNL     1       5.269   9.424  -0.884  0.00  0.00    -0.306 N 
ATOM     31  H   UNL     1       4.997   9.095  -1.755  0.00  0.00    +0.170 HD
ATOM     32  C   UNL     1       6.265  10.299  -0.649  0.00  0.00    +0.325 A 
ATOM     33  O   UNL     1       6.970  10.803  -1.503  0.00  0.00    -0.247 OA
ATOM     34  N   UNL     1       6.362  10.531   0.673  0.00  0.00    -0.306 N 
ATOM     35  H   UNL     1       7.001  11.123   1.100  0.00  0.00    +0.170 HD
ENDBRANCH  22  24
ENDBRANCH  19  20
ENDBRANCH   1  19
TORSDOF 6
