REMARK  Name = ZINC43221542
REMARK  8 active torsions:
REMARK  status: ('A' for Active; 'I' for Inactive)
REMARK    1  A    between atoms: C_1  and  C_2
REMARK    2  A    between atoms: C_7  and  C_8
REMARK    3  A    between atoms: N_16  and  C_19
REMARK    4  A    between atoms: C_22  and  C_25
REMARK    5  A    between atoms: C_25  and  C_27
REMARK    6  A    between atoms: C_28  and  C_30
REMARK    7  A    between atoms: C_28  and  C_32
REMARK    8  A    between atoms: C_30  and  O_31
REMARK                            x       y       z     vdW  Elec       q    Type
REMARK                         _______ _______ _______ _____ _____    ______ ____
ROOT
ATOM      1  C   UNL     1       0.242   0.057   2.487  0.00  0.00    -0.026 C 
ATOM      2  C   UNL     1       1.640   0.634   2.638  0.00  0.00    +0.077 C 
ATOM      3  C   UNL     1       2.344  -0.624   3.278  0.00  0.00    +0.088 C 
ATOM      4  C   UNL     1       3.737  -0.305   3.094  0.00  0.00    +0.229 C 
ATOM      5  O   UNL     1       4.661  -0.584   3.828  0.00  0.00    -0.275 OA
ATOM      6  N   UNL     1       3.793   0.382   1.907  0.00  0.00    -0.210 N 
ATOM      7  C   UNL     1       2.554   0.787   1.462  0.00  0.00    +0.229 C 
ATOM      8  O   UNL     1       2.258   1.180   0.355  0.00  0.00    -0.275 OA
ATOM      9  C   UNL     1       1.400  -0.990   4.348  0.00  0.00    +0.071 C 
ATOM     10  N   UNL     1       0.065  -0.875   3.642  0.00  0.00    +0.397 N 
ATOM     11  H   UNL     1      -0.624  -0.503   4.279  0.00  0.00    -0.083 HD
ATOM     12  H   UNL     1      -0.232  -1.780   3.308  0.00  0.00    -0.083 HD
ENDROOT
BRANCH   1  19
ATOM     13  C   UNL     1      -0.694   1.411   0.113  0.00  0.00    +0.044 C 
ATOM     14  C   UNL     1      -0.321  -0.048   0.051  0.00  0.00    -0.049 A 
ATOM     15  C   UNL     1      -0.422  -0.737  -1.143  0.00  0.00    +0.003 A 
ATOM     16  C   UNL     1      -0.080  -2.075  -1.200  0.00  0.00    +0.000 A 
ATOM     17  C   UNL     1       0.363  -2.724  -0.062  0.00  0.00    +0.000 A 
ATOM     18  C   UNL     1       0.465  -2.035   1.131  0.00  0.00    +0.002 A 
ATOM     19  C   UNL     1       0.127  -0.696   1.187  0.00  0.00    -0.058 A 
ENDBRANCH   1  19
BRANCH   6  20
ATOM     20  C   UNL     1       4.981   0.653   1.224  0.00  0.00    +0.044 A 
ATOM     21  C   UNL     1       6.195   0.214   1.743  0.00  0.00    +0.024 A 
ATOM     22  C   UNL     1       7.368   0.479   1.074  0.00  0.00    +0.013 A 
ATOM     23  C   UNL     1       7.338   1.192  -0.130  0.00  0.00    +0.017 A 
ATOM     24  C   UNL     1       6.114   1.632  -0.649  0.00  0.00    +0.013 A 
ATOM     25  C   UNL     1       4.946   1.357   0.024  0.00  0.00    +0.024 A 
BRANCH  23  26
ATOM     26  C   UNL     1       8.588   1.478  -0.848  0.00  0.00    +0.160 C 
ATOM     27  O   UNL     1       9.647   1.097  -0.397  0.00  0.00    -0.292 OA
ATOM     28  C   UNL     1       8.554   2.246  -2.144  0.00  0.00    +0.091 C 
ENDBRANCH  23  26
ENDBRANCH   6  20
BRANCH   9  29
ATOM     29  C   UNL     1       1.500  -0.026   5.503  0.00  0.00    +0.348 C 
ATOM     30  O   UNL     1       0.524   0.622   5.841  0.00  0.00    -0.248 OA
ATOM     31  O   UNL     1       2.556   0.106   6.098  0.00  0.00    -0.248 OA
ENDBRANCH   9  29
BRANCH   9  32
ATOM     32  C   UNL     1       1.638  -2.427   4.816  0.00  0.00    +0.155 C 
BRANCH  32  33
ATOM     33  O   UNL     1       0.637  -2.790   5.768  0.00  0.00    -0.396 OA
ATOM     34  H   UNL     1       0.726  -3.691   6.108  0.00  0.00    +0.209 HD
ENDBRANCH  32  33
ENDBRANCH   9  32
TORSDOF 6
