REMARK  Name = ZINC28923202
REMARK  7 active torsions:
REMARK  status: ('A' for Active; 'I' for Inactive)
REMARK    1  A    between atoms: C_1  and  C_2
REMARK    2  A    between atoms: N_4  and  C_5
REMARK    3  A    between atoms: C_13  and  C_16
REMARK    4  A    between atoms: N_27  and  C_28
REMARK    5  A    between atoms: C_28  and  C_29
REMARK    6  A    between atoms: C_29  and  O_30
REMARK    7  A    between atoms: O_30  and  C_31
REMARK                            x       y       z     vdW  Elec       q    Type
REMARK                         _______ _______ _______ _____ _____    ______ ____
ROOT
ATOM      1  C   UNL     1      -0.571   5.485   0.492  0.00  0.00    +0.212 C 
ATOM      2  N   UNL     1       0.187   4.410  -0.160  0.00  0.00    -0.320 N 
ATOM      3  C   UNL     1       1.527   4.247   0.173  0.00  0.00    +0.041 A 
ATOM      4  C   UNL     1       2.149   3.011   0.125  0.00  0.00    +0.024 A 
ATOM      5  C   UNL     1       3.481   2.903   0.476  0.00  0.00    +0.002 A 
ATOM      6  C   UNL     1       4.201   4.022   0.864  0.00  0.00    +0.001 A 
ATOM      7  C   UNL     1       3.598   5.262   0.910  0.00  0.00    +0.015 A 
ATOM      8  C   UNL     1       2.255   5.385   0.564  0.00  0.00    +0.058 A 
ATOM      9  C   UNL     1       1.563   6.686   0.590  0.00  0.00    +0.250 C 
ATOM     10  O   UNL     1       2.198   7.719   0.677  0.00  0.00    -0.270 OA
ATOM     11  N   UNL     1       0.216   6.718   0.516  0.00  0.00    -0.271 N 
ATOM     12  H   UNL     1      -0.306   3.755  -0.893  0.00  0.00    +0.148 HD
ENDROOT
BRANCH   1  19
ATOM     13  C   UNL     1      -1.384   8.634   6.352  0.00  0.00    +0.110 C 
ATOM     14  C   UNL     1      -1.294   7.772   5.119  0.00  0.00    +0.223 C 
ATOM     15  O   UNL     1      -1.019   8.271   4.049  0.00  0.00    -0.275 OA
ATOM     16  N   UNL     1      -1.519   6.446   5.206  0.00  0.00    -0.219 N 
ATOM     17  C   UNL     1      -1.335   5.634   4.090  0.00  0.00    +0.172 A 
ATOM     18  N   UNL     1      -1.039   5.981   2.853  0.00  0.00    -0.226 NA
ATOM     19  C   UNL     1      -0.903   5.077   1.904  0.00  0.00    +0.089 A 
ATOM     20  C   UNL     1      -1.063   3.770   2.228  0.00  0.00    +0.075 A 
ATOM     21  S   UNL     1      -1.429   3.904   3.972  0.00  0.00    -0.060 S 
BRANCH  16  22
ATOM     22  C   UNL     1      -1.937   5.884   6.419  0.00  0.00    +0.043 A 
ATOM     23  C   UNL     1      -1.000   5.514   7.374  0.00  0.00    +0.024 A 
ATOM     24  C   UNL     1      -1.416   4.965   8.571  0.00  0.00    +0.002 A 
ATOM     25  C   UNL     1      -2.764   4.775   8.815  0.00  0.00    +0.000 A 
ATOM     26  C   UNL     1      -3.700   5.138   7.863  0.00  0.00    +0.002 A 
ATOM     27  C   UNL     1      -3.290   5.692   6.666  0.00  0.00    +0.024 A 
ENDBRANCH  16  22
ENDBRANCH   1  19
BRANCH  11  28
ATOM     28  C   UNL     1      -0.471   8.011   0.460  0.00  0.00    +0.138 C 
BRANCH  28  29
ATOM     29  C   UNL     1      -0.631   8.440  -0.999  0.00  0.00    +0.178 C 
BRANCH  29  30
ATOM     30  O   UNL     1      -1.496   7.523  -1.673  0.00  0.00    -0.381 OA
ATOM     31  C   UNL     1      -1.714   7.835  -3.051  0.00  0.00    +0.194 C 
ENDBRANCH  29  30
ENDBRANCH  28  29
ENDBRANCH  11  28
TORSDOF 5
