REMARK  Name = ZINC14470571
REMARK  2 active torsions:
REMARK  status: ('A' for Active; 'I' for Inactive)
REMARK    1  A    between atoms: C_4  and  N_24
REMARK    2  A    between atoms: C_6  and  C_7
REMARK                            x       y       z     vdW  Elec       q    Type
REMARK                         _______ _______ _______ _____ _____    ______ ____
ROOT
ATOM      1  C   UNL     1      -0.079   6.003   0.036  0.00  0.00    +0.105 C 
ATOM      2  C   UNL     1      -0.225   6.534  -1.379  0.00  0.00    +0.029 C 
ATOM      3  C   UNL     1       0.798   6.052  -2.416  0.00  0.00    +0.033 C 
ATOM      4  C   UNL     1      -0.018   6.117  -3.708  0.00  0.00    -0.030 C 
ATOM      5  C   UNL     1      -1.312   5.995  -3.434  0.00  0.00    -0.023 C 
ATOM      6  C   UNL     1      -1.488   5.830  -1.959  0.00  0.00    +0.049 C 
ATOM      7  C   UNL     1      -2.667   6.340  -1.227  0.00  0.00    -0.018 A 
ATOM      8  C   UNL     1      -3.891   6.527  -1.833  0.00  0.00    +0.026 A 
ATOM      9  C   UNL     1      -4.968   6.996  -1.101  0.00  0.00    +0.041 A 
ATOM     10  C   UNL     1      -4.818   7.277   0.246  0.00  0.00    +0.022 A 
ATOM     11  C   UNL     1      -3.596   7.096   0.860  0.00  0.00    +0.024 A 
ATOM     12  C   UNL     1      -2.506   6.634   0.132  0.00  0.00    +0.031 A 
ATOM     13  N   UNL     1      -1.267   6.494   0.769  0.00  0.00    -0.336 N 
ATOM     14 CL   UNL     1      -6.505   7.231  -1.873  0.00  0.00    -0.084 Cl
ATOM     15  H   UNL     1      -1.185   6.724   1.708  0.00  0.00    +0.147 HD
ENDROOT
BRANCH   1  21
ATOM     16  C   UNL     1       1.139   3.823  -0.122  0.00  0.00    +0.007 A 
ATOM     17  C   UNL     1       1.159   2.441  -0.124  0.00  0.00    +0.022 A 
ATOM     18  C   UNL     1      -0.021   1.732   0.013  0.00  0.00    +0.071 A 
ATOM     19  C   UNL     1      -1.220   2.407   0.162  0.00  0.00    +0.145 A 
ATOM     20  C   UNL     1      -1.238   3.789   0.170  0.00  0.00    +0.039 A 
ATOM     21  C   UNL     1      -0.059   4.497   0.027  0.00  0.00    -0.025 A 
ATOM     22 CL   UNL     1       0.002  -0.004   0.003  0.00  0.00    -0.081 Cl
BRANCH  19  23
ATOM     23  N   UNL     1      -2.482   1.649   0.314  0.00  0.00    +0.058 N 
ATOM     24  O   UNL     1      -3.537   2.244   0.445  0.00  0.00    -0.126 OA
ATOM     25  O   UNL     1      -2.466   0.431   0.306  0.00  0.00    -0.126 OA
ENDBRANCH  19  23
ENDBRANCH   1  21
TORSDOF 2
