REMARK  Name = ZINC35271441
REMARK  14 active torsions:
REMARK  status: ('A' for Active; 'I' for Inactive)
REMARK    1  A    between atoms: C_1  and  C_2
REMARK    2  A    between atoms: C_4  and  O_26
REMARK    3  A    between atoms: C_8  and  C_25
REMARK    4  A    between atoms: C_10  and  O_17
REMARK    5  A    between atoms: C_12  and  C_13
REMARK    6  A    between atoms: C_12  and  O_16
REMARK    7  A    between atoms: C_13  and  C_14
REMARK    8  A    between atoms: C_13  and  C_15
REMARK    9  A    between atoms: O_17  and  C_18
REMARK   10  A    between atoms: C_18  and  C_20
REMARK   11  A    between atoms: C_21  and  O_24
REMARK   12  A    between atoms: O_26  and  C_27
REMARK   13  A    between atoms: C_27  and  C_29
REMARK   14  A    between atoms: C_32  and  O_35
REMARK                            x       y       z     vdW  Elec       q    Type
REMARK                         _______ _______ _______ _____ _____    ______ ____
ROOT
ATOM      1  C   UNL     1       0.763   0.244   0.389  0.00  0.00    +0.039 C 
ATOM      2  C   UNL     1       0.451  -1.220   0.218  0.00  0.00    -0.071 C 
ATOM      3  C   UNL     1       0.293  -1.699  -0.984  0.00  0.00    +0.016 C 
ATOM      4  C   UNL     1      -0.071  -3.158  -1.184  0.00  0.00    +0.206 C 
ATOM      5  C   UNL     1      -1.494  -3.326  -0.677  0.00  0.00    +0.078 C 
ATOM      6  C   UNL     1      -1.518  -3.627   0.816  0.00  0.00    +0.007 C 
ATOM      7  C   UNL     1      -2.942  -4.163   1.043  0.00  0.00    +0.057 C 
ATOM      8  C   UNL     1      -3.205  -5.022  -0.221  0.00  0.00    +0.209 C 
ATOM      9  C   UNL     1      -2.245  -4.506  -1.303  0.00  0.00    +0.112 C 
ATOM     10  C   UNL     1      -1.147  -2.450   1.683  0.00  0.00    +0.125 C 
ATOM     11  C   UNL     1       0.334  -2.097   1.447  0.00  0.00    +0.062 C 
ATOM     12  C   UNL     1      -0.525  -4.757   1.097  0.00  0.00    +0.014 C 
ENDROOT
BRANCH   9  13
ATOM     13  C   UNL     1      -3.047  -4.037  -2.518  0.00  0.00    +0.019 C 
ATOM     14  C   UNL     1      -3.894  -5.196  -3.048  0.00  0.00    +0.010 C 
ATOM     15  C   UNL     1      -3.963  -2.881  -2.110  0.00  0.00    +0.010 C 
ENDBRANCH   9  13
BRANCH   9  16
ATOM     16  O   UNL     1      -1.325  -5.531  -1.682  0.00  0.00    -0.384 OA
ATOM     17  H   UNL     1      -1.743  -6.305  -2.085  0.00  0.00    +0.210 HD
ENDBRANCH   9  16
BRANCH  10  18
ATOM     18  O   UNL     1      -1.968  -1.331   1.345  0.00  0.00    -0.391 OA
ATOM     19  H   UNL     1      -1.783  -0.536   1.865  0.00  0.00    +0.210 HD
ENDBRANCH  10  18
BRANCH   8  20
ATOM     20  O   UNL     1      -4.564  -4.874  -0.638  0.00  0.00    -0.459 OA
BRANCH  20  21
ATOM     21  C   UNL     1      -5.452  -5.753  -0.148  0.00  0.00    +0.304 C 
ATOM     22  O   UNL     1      -5.087  -6.619   0.612  0.00  0.00    -0.251 OA
ATOM     23  C   UNL     1      -6.903  -5.659  -0.544  0.00  0.00    +0.136 C 
ENDBRANCH  20  21
ENDBRANCH   8  20
BRANCH   4  24
ATOM     24  O   UNL     1      -0.003  -3.493  -2.572  0.00  0.00    -0.453 OA
BRANCH  24  25
ATOM     25  C   UNL     1       1.180  -3.943  -3.034  0.00  0.00    +0.340 C 
ATOM     26  O   UNL     1       2.127  -4.047  -2.281  0.00  0.00    -0.245 OA
BRANCH  25  27
ATOM     27  C   UNL     1       1.325  -4.308  -4.456  0.00  0.00    +0.059 A 
ATOM     28  C   UNL     1       0.239  -4.182  -5.326  0.00  0.00    +0.018 A 
ATOM     29  C   UNL     1       0.379  -4.524  -6.653  0.00  0.00    +0.046 A 
ATOM     30  C   UNL     1       1.598  -4.993  -7.127  0.00  0.00    +0.117 A 
ATOM     31  C   UNL     1       2.682  -5.119  -6.265  0.00  0.00    +0.046 A 
ATOM     32  C   UNL     1       2.552  -4.774  -4.938  0.00  0.00    +0.018 A 
BRANCH  30  33
ATOM     33  O   UNL     1       1.732  -5.330  -8.434  0.00  0.00    -0.507 OA
ATOM     34  H   UNL     1       2.016  -4.599  -9.001  0.00  0.00    +0.292 HD
ENDBRANCH  30  33
ENDBRANCH  25  27
ENDBRANCH  24  25
ENDBRANCH   4  24
TORSDOF 9
