REMARK  Name = ZINC35640363
REMARK  6 active torsions:
REMARK  status: ('A' for Active; 'I' for Inactive)
REMARK    1  A    between atoms: C_3  and  C_6
REMARK    2  A    between atoms: N_10  and  C_14
REMARK    3  A    between atoms: C_14  and  C_15
REMARK    4  A    between atoms: N_17  and  C_18
REMARK    5  A    between atoms: C_20  and  N_25
REMARK    6  A    between atoms: C_23  and  O_24
REMARK                            x       y       z     vdW  Elec       q    Type
REMARK                         _______ _______ _______ _____ _____    ______ ____
ROOT
ATOM      1  C   UNL     1       5.756  -3.393  -1.225  0.00  0.00    +0.235 C 
ATOM      2  O   UNL     1       5.885  -2.615  -2.147  0.00  0.00    -0.274 OA
ATOM      3  N   UNL     1       5.681  -4.717  -1.467  0.00  0.00    -0.281 N 
ATOM      4  H   UNL     1       5.497  -5.333  -0.740  0.00  0.00    +0.155 HD
ENDROOT
BRANCH   3   5
ATOM      5  C   UNL     1       5.870  -5.204  -2.767  0.00  0.00    +0.078 A 
ATOM      6  C   UNL     1       6.581  -4.455  -3.694  0.00  0.00    +0.059 A 
ATOM      7  C   UNL     1       6.765  -4.938  -4.975  0.00  0.00    +0.128 A 
ATOM      8  C   UNL     1       6.243  -6.166  -5.338  0.00  0.00    +0.036 A 
ATOM      9  C   UNL     1       5.533  -6.917  -4.420  0.00  0.00    +0.049 A 
ATOM     10  C   UNL     1       5.349  -6.443  -3.131  0.00  0.00    +0.138 A 
BRANCH   7  11
ATOM     11  N   UNL     1       7.524  -4.138  -5.963  0.00  0.00    +0.056 N 
ATOM     12  O   UNL     1       7.981  -3.064  -5.648  0.00  0.00    -0.126 OA
ATOM     13  O   UNL     1       7.686  -4.558  -7.085  0.00  0.00    -0.126 OA
ENDBRANCH   7  11
BRANCH  10  14
ATOM     14  O   UNL     1       4.656  -7.184  -2.225  0.00  0.00    -0.505 OA
ATOM     15  H   UNL     1       3.705  -7.008  -2.218  0.00  0.00    +0.292 HD
ENDBRANCH  10  14
ENDBRANCH   3   5
BRANCH   1  16
ATOM     16  C   UNL     1       5.681  -2.880   0.190  0.00  0.00    +0.211 C 
BRANCH  16  21
ATOM     17  C   UNL     1       3.867   1.699   0.006  0.00  0.00    +0.035 C 
ATOM     18  C   UNL     1       4.826   0.734   0.090  0.00  0.00    +0.078 C 
ATOM     19  C   UNL     1       4.688  -0.688   0.092  0.00  0.00    +0.259 C 
ATOM     20  O   UNL     1       3.591  -1.211   0.010  0.00  0.00    -0.269 OA
ATOM     21  N   UNL     1       5.785  -1.418   0.185  0.00  0.00    -0.246 N 
ATOM     22  C   UNL     1       7.002  -0.837   0.276  0.00  0.00    +0.121 C 
ATOM     23  S   UNL     1       8.539  -1.581   0.404  0.00  0.00    -0.027 S 
ATOM     24  S   UNL     1       6.601   0.903   0.222  0.00  0.00    -0.061 S 
BRANCH  17  27
ATOM     25  C   UNL     1       0.187   1.283  -0.157  0.00  0.00    +0.008 A 
ATOM     26  C   UNL     1       1.356   1.832   0.313  0.00  0.00    +0.015 A 
ATOM     27  C   UNL     1       2.525   1.341  -0.260  0.00  0.00    +0.013 A 
ATOM     28  S   UNL     1       1.889   0.142  -1.416  0.00  0.00    -0.097 S 
ATOM     29  C   UNL     1       0.247   0.327  -1.117  0.00  0.00    +0.046 A 
ENDBRANCH  17  27
ENDBRANCH  16  21
ENDBRANCH   1  16
TORSDOF 6
