REMARK  Name = ZINC14548117
REMARK  6 active torsions:
REMARK  status: ('A' for Active; 'I' for Inactive)
REMARK    1  A    between atoms: C_1  and  C_2
REMARK    2  A    between atoms: C_2  and  C_3
REMARK    3  A    between atoms: C_3  and  N_4
REMARK    4  A    between atoms: C_5  and  C_7
REMARK    5  A    between atoms: C_14  and  C_23
REMARK    6  A    between atoms: C_32  and  O_33
REMARK                            x       y       z     vdW  Elec       q    Type
REMARK                         _______ _______ _______ _____ _____    ______ ____
ROOT
ATOM      1  C   UNL     1       3.454   1.244   1.540  0.00  0.00    +0.058 A 
ATOM      2  C   UNL     1       3.220  -0.129   1.588  0.00  0.00    +0.015 A 
ATOM      3  C   UNL     1       2.033  -0.645   1.117  0.00  0.00    +0.001 A 
ATOM      4  C   UNL     1       1.074   0.204   0.589  0.00  0.00    +0.006 A 
ATOM      5  C   UNL     1       1.290   1.563   0.527  0.00  0.00    -0.019 A 
ATOM      6  C   UNL     1       2.480   2.116   1.010  0.00  0.00    +0.044 A 
ATOM      7  N   UNL     1       2.759   3.472   1.024  0.00  0.00    -0.336 N 
ATOM      8  C   UNL     1       1.770   4.362   0.393  0.00  0.00    +0.109 C 
ATOM      9  C   UNL     1       0.399   3.824   0.745  0.00  0.00    +0.029 C 
ATOM     10  C   UNL     1       0.286   2.485  -0.048  0.00  0.00    +0.049 C 
ATOM     11  C   UNL     1      -1.170   2.203  -0.026  0.00  0.00    -0.023 C 
ATOM     12  C   UNL     1      -1.822   3.358   0.050  0.00  0.00    -0.030 C 
ATOM     13  C   UNL     1      -0.824   4.516   0.133  0.00  0.00    +0.033 C 
ATOM     14  H   UNL     1       2.985   3.786   1.956  0.00  0.00    +0.147 HD
ENDROOT
BRANCH   8  15
ATOM     15  C   UNL     1       1.955   4.357  -1.103  0.00  0.00    +0.022 A 
ATOM     16  C   UNL     1       1.356   5.352  -1.891  0.00  0.00    -0.009 A 
ATOM     17  C   UNL     1       0.586   6.376  -1.312  0.00  0.00    +0.009 A 
ATOM     18  C   UNL     1       0.023   7.327  -2.107  0.00  0.00    +0.001 A 
ATOM     19  C   UNL     1       0.204   7.306  -3.489  0.00  0.00    +0.001 A 
ATOM     20  C   UNL     1       0.948   6.334  -4.084  0.00  0.00    +0.008 A 
ATOM     21  C   UNL     1       1.544   5.334  -3.296  0.00  0.00    -0.017 A 
ATOM     22  C   UNL     1       2.319   4.315  -3.877  0.00  0.00    +0.012 A 
ATOM     23  C   UNL     1       2.883   3.363  -3.086  0.00  0.00    +0.046 A 
ATOM     24  C   UNL     1       2.702   3.381  -1.699  0.00  0.00    +0.122 A 
BRANCH  24  25
ATOM     25  O   UNL     1       3.278   2.416  -0.935  0.00  0.00    -0.506 OA
ATOM     26  H   UNL     1       2.771   1.594  -0.892  0.00  0.00    +0.292 HD
ENDBRANCH  24  25
ENDBRANCH   8  15
BRANCH   1  28
ATOM     27  N   UNL     1       5.661   0.959   2.551  0.00  0.00    -0.311 N 
ATOM     28  C   UNL     1       4.727   1.789   2.045  0.00  0.00    +0.246 C 
ATOM     29  O   UNL     1       4.935   2.986   2.005  0.00  0.00    -0.270 OA
ATOM     30  H   UNL     1       5.495   0.004   2.583  0.00  0.00    +0.149 HD
BRANCH  27  31
ATOM     31  C   UNL     1       6.926   1.500   3.054  0.00  0.00    +0.104 C 
BRANCH  31  33
ATOM     32  C   UNL     1       9.123   0.921   4.093  0.00  0.00    +0.005 C 
ATOM     33  C   UNL     1       7.802   0.356   3.569  0.00  0.00    +0.015 C 
ENDBRANCH  31  33
ENDBRANCH  27  31
ENDBRANCH   1  28
TORSDOF 5
