REMARK  Name = ZINC13552003
REMARK  6 active torsions:
REMARK  status: ('A' for Active; 'I' for Inactive)
REMARK    1  A    between atoms: C_4  and  C_7
REMARK    2  A    between atoms: C_7  and  C_8
REMARK    3  A    between atoms: C_8  and  C_10
REMARK    4  A    between atoms: C_8  and  N_23
REMARK    5  A    between atoms: N_12  and  C_13
REMARK    6  A    between atoms: C_28  and  O_36
REMARK                            x       y       z     vdW  Elec       q    Type
REMARK                         _______ _______ _______ _____ _____    ______ ____
ROOT
ATOM      1  C   UNL     1       4.170  -0.966   1.405  0.00  0.00    +0.165 C 
ENDROOT
BRANCH   1   2
ATOM      2  N   UNL     1       4.450   0.314   2.060  0.00  0.00    -0.287 N 
ATOM      3  C   UNL     1       3.452   1.004   2.646  0.00  0.00    +0.308 C 
ATOM      4  O   UNL     1       2.318   0.564   2.632  0.00  0.00    -0.252 OA
ATOM      5  N   UNL     1       3.710   2.181   3.249  0.00  0.00    -0.245 N 
ATOM      6  C   UNL     1       5.069   2.747   3.280  0.00  0.00    +0.210 C 
ATOM      7  C   UNL     1       5.317   3.351   4.637  0.00  0.00    +0.206 C 
ATOM      8  N   UNL     1       4.348   3.805   5.367  0.00  0.00    -0.214 NA
ATOM      9  C   UNL     1       3.045   3.750   4.952  0.00  0.00    +0.089 A 
ATOM     10  C   UNL     1       2.694   2.925   3.869  0.00  0.00    +0.064 A 
ATOM     11  C   UNL     1       1.384   2.854   3.438  0.00  0.00    +0.026 A 
ATOM     12  C   UNL     1       0.411   3.608   4.073  0.00  0.00    +0.002 A 
ATOM     13  C   UNL     1       0.747   4.430   5.134  0.00  0.00    +0.002 A 
ATOM     14  C   UNL     1       2.058   4.502   5.584  0.00  0.00    +0.030 A 
ATOM     15  H   UNL     1       5.354   0.665   2.071  0.00  0.00    +0.151 HD
BRANCH   7  16
ATOM     16  O   UNL     1       6.581   3.422   5.105  0.00  0.00    -0.494 OA
ATOM     17  H   UNL     1       6.654   3.823   5.982  0.00  0.00    +0.293 HD
ENDBRANCH   7  16
ENDBRANCH   1   2
BRANCH   1  18
ATOM     18  C   UNL     1       5.422  -1.804   1.382  0.00  0.00    +0.238 C 
ATOM     19  O   UNL     1       6.448  -1.374   1.865  0.00  0.00    -0.273 OA
ATOM     20  N   UNL     1       5.402  -3.031   0.824  0.00  0.00    -0.284 N 
ATOM     21  H   UNL     1       4.567  -3.402   0.498  0.00  0.00    +0.155 HD
BRANCH  20  22
ATOM     22  C   UNL     1       6.587  -3.770   0.716  0.00  0.00    +0.037 A 
ATOM     23  C   UNL     1       6.798  -4.587  -0.388  0.00  0.00    +0.027 A 
ATOM     24  C   UNL     1       7.965  -5.316  -0.495  0.00  0.00    +0.051 A 
ATOM     25  C   UNL     1       8.931  -5.236   0.498  0.00  0.00    +0.162 A 
ATOM     26  C   UNL     1       8.724  -4.418   1.602  0.00  0.00    +0.164 A 
ATOM     27  C   UNL     1       7.553  -3.683   1.708  0.00  0.00    +0.072 A 
ATOM     28  O   UNL     1       9.663  -4.320   2.583  0.00  0.00    -0.485 OA
ATOM     29  C   UNL     1      10.658  -5.348   2.626  0.00  0.00    +0.270 C 
ATOM     30  C   UNL     1      11.178  -5.574   1.200  0.00  0.00    +0.270 C 
ATOM     31  O   UNL     1      10.074  -5.966   0.377  0.00  0.00    -0.485 OA
ENDBRANCH  20  22
ENDBRANCH   1  18
BRANCH   1  32
ATOM     32  C   UNL     1       3.699  -0.713  -0.029  0.00  0.00    +0.067 C 
BRANCH  32  36
ATOM     33  C   UNL     1      -0.034   1.362   0.041  0.00  0.00    +0.000 A 
ATOM     34  C   UNL     1       1.151   2.073   0.024  0.00  0.00    +0.000 A 
ATOM     35  C   UNL     1       2.359   1.401   0.002  0.00  0.00    +0.004 A 
ATOM     36  C   UNL     1       2.382   0.019  -0.004  0.00  0.00    -0.045 A 
ATOM     37  C   UNL     1       1.196  -0.692   0.014  0.00  0.00    +0.004 A 
ATOM     38  C   UNL     1      -0.012  -0.020   0.035  0.00  0.00    +0.000 A 
ENDBRANCH  32  36
ENDBRANCH   1  32
TORSDOF 6
