REMARK  Name = ZINC15776611
REMARK  7 active torsions:
REMARK  status: ('A' for Active; 'I' for Inactive)
REMARK    1  A    between atoms: C_5  and  C_7
REMARK    2  A    between atoms: C_7  and  N_8
REMARK    3  A    between atoms: C_9  and  C_11
REMARK    4  A    between atoms: C_11  and  C_12
REMARK    5  A    between atoms: C_12  and  C_13
REMARK    6  A    between atoms: N_22  and  C_23
REMARK    7  A    between atoms: C_23  and  C_24
REMARK                            x       y       z     vdW  Elec       q    Type
REMARK                         _______ _______ _______ _____ _____    ______ ____
ROOT
ATOM      1  C   UNL     1      -5.135   4.221   4.342  0.00  0.00    +0.156 A 
ATOM      2  N   UNL     1      -6.242   4.841   4.017  0.00  0.00    -0.132 NA
ATOM      3  N   UNL     1      -6.355   4.907   2.736  0.00  0.00    -0.128 NA
ATOM      4  C   UNL     1      -5.308   4.324   2.176  0.00  0.00    +0.178 A 
ATOM      5  N   UNL     1      -4.508   3.874   3.197  0.00  0.00    -0.195 N 
ATOM      6  N   UNL     1      -3.317   3.204   2.911  0.00  0.00    -0.148 NA
ATOM      7  C   UNL     1      -2.946   3.007   1.668  0.00  0.00    +0.140 A 
ATOM      8  C   UNL     1      -3.744   3.455   0.597  0.00  0.00    +0.049 A 
ATOM      9  C   UNL     1      -4.911   4.106   0.842  0.00  0.00    +0.053 A 
ATOM     10  N   UNL     1      -1.753   2.342   1.404  0.00  0.00    -0.324 N 
ATOM     11  H   UNL     1      -1.199   2.031   2.137  0.00  0.00    +0.148 HD
ENDROOT
BRANCH   1  12
ATOM     12  C   UNL     1      -4.647   3.946   5.741  0.00  0.00    +0.087 C 
BRANCH  12  13
ATOM     13  C   UNL     1      -5.185   2.593   6.211  0.00  0.00    +0.103 C 
BRANCH  13  15
ATOM     14  N   UNL     1      -5.049   1.176   8.234  0.00  0.00    -0.311 N 
ATOM     15  C   UNL     1      -4.698   2.318   7.611  0.00  0.00    +0.214 C 
ATOM     16  O   UNL     1      -3.990   3.124   8.176  0.00  0.00    -0.276 OA
ATOM     17  H   UNL     1      -5.615   0.531   7.782  0.00  0.00    +0.149 HD
BRANCH  14  18
ATOM     18  C   UNL     1      -4.575   0.908   9.594  0.00  0.00    +0.141 C 
BRANCH  18  23
ATOM     19  C   UNL     1      -6.693  -1.700  11.317  0.00  0.00    +0.000 A 
ATOM     20  C   UNL     1      -6.078  -2.869  10.909  0.00  0.00    +0.001 A 
ATOM     21  C   UNL     1      -4.976  -2.817  10.076  0.00  0.00    +0.020 A 
ATOM     22  C   UNL     1      -4.489  -1.594   9.650  0.00  0.00    +0.046 A 
ATOM     23  C   UNL     1      -5.105  -0.424  10.058  0.00  0.00    -0.012 A 
ATOM     24  C   UNL     1      -6.204  -0.478  10.895  0.00  0.00    +0.006 A 
ATOM     25 CL   UNL     1      -3.105  -1.527   8.604  0.00  0.00    -0.083 Cl
ENDBRANCH  18  23
ENDBRANCH  14  18
ENDBRANCH  13  15
ENDBRANCH  12  13
ENDBRANCH   1  12
BRANCH  10  26
ATOM     26  C   UNL     1      -1.333   2.112   0.020  0.00  0.00    +0.138 C 
BRANCH  26  27
ATOM     27  C   UNL     1      -0.017   1.378   0.010  0.00  0.00    -0.027 A 
ATOM     28  C   UNL     1       1.169   2.089   0.002  0.00  0.00    +0.009 A 
ATOM     29  C   UNL     1       2.379   1.420  -0.012  0.00  0.00    +0.050 A 
ATOM     30  C   UNL     1       2.405   0.035  -0.021  0.00  0.00    +0.166 A 
ATOM     31  C   UNL     1       1.211  -0.681  -0.013  0.00  0.00    +0.167 A 
ATOM     32  C   UNL     1       0.002  -0.004   0.002  0.00  0.00    +0.054 A 
ATOM     33  O   UNL     1       1.501  -2.015  -0.024  0.00  0.00    -0.453 OA
ATOM     34  C   UNL     1       2.873  -2.106  -0.450  0.00  0.00    +0.466 C 
ATOM     35  O   UNL     1       3.444  -0.851  -0.036  0.00  0.00    -0.453 OA
ENDBRANCH  26  27
ENDBRANCH  10  26
TORSDOF 7
