REMARK  Name = ZINC10157215
REMARK  6 active torsions:
REMARK  status: ('A' for Active; 'I' for Inactive)
REMARK    1  A    between atoms: C_1  and  C_2
REMARK    2  A    between atoms: C_4  and  C_29
REMARK    3  A    between atoms: N_13  and  C_14
REMARK    4  A    between atoms: C_18  and  C_21
REMARK    5  A    between atoms: C_24  and  O_27
REMARK    6  A    between atoms: O_27  and  C_28
REMARK                            x       y       z     vdW  Elec       q    Type
REMARK                         _______ _______ _______ _____ _____    ______ ____
ROOT
ATOM      1  C   UNL     1       4.786   5.091  -0.016  0.00  0.00    +0.066 C 
ATOM      2  C   UNL     1       3.322   4.731  -0.002  0.00  0.00    +0.044 A 
ATOM      3  C   UNL     1       2.356   5.725   0.014  0.00  0.00    +0.046 A 
ATOM      4  C   UNL     1       1.021   5.349   0.025  0.00  0.00    +0.044 A 
ATOM      5  N   UNL     1       0.713   4.063   0.020  0.00  0.00    -0.216 NA
ATOM      6  C   UNL     1       1.661   3.140   0.004  0.00  0.00    +0.252 A 
ATOM      7  N   UNL     1       2.945   3.464  -0.001  0.00  0.00    -0.216 NA
ATOM      8  N   UNL     1       1.300   1.794  -0.001  0.00  0.00    -0.200 N 
ATOM      9  C   UNL     1       2.154   0.769  -0.016  0.00  0.00    +0.061 A 
ATOM     10  C   UNL     1       1.397  -0.401  -0.013  0.00  0.00    +0.080 A 
ATOM     11  C   UNL     1       0.002  -0.004   0.002  0.00  0.00    +0.152 A 
ATOM     12  N   UNL     1      -0.016   1.311   0.009  0.00  0.00    -0.148 NA
ATOM     13  N   UNL     1      -1.104  -0.851   0.007  0.00  0.00    -0.330 N 
ATOM     14  C   UNL     1      -2.457  -0.289   0.022  0.00  0.00    +0.127 C 
ATOM     15  C   UNL     1       2.024  -1.727  -0.020  0.00  0.00    +0.169 C 
ATOM     16  O   UNL     1       1.393  -2.744  -0.220  0.00  0.00    -0.292 OA
ATOM     17  C   UNL     1       3.523  -1.733   0.241  0.00  0.00    +0.088 C 
ATOM     18  C   UNL     1       4.157  -0.585  -0.550  0.00  0.00    +0.032 C 
ATOM     19  C   UNL     1       3.660   0.769  -0.034  0.00  0.00    +0.065 C 
ATOM     20  C   UNL     1      -0.065   6.394   0.043  0.00  0.00    +0.066 C 
ATOM     21  H   UNL     1      -0.978  -1.813   0.001  0.00  0.00    +0.147 HD
ENDROOT
BRANCH  18  22
ATOM     22  C   UNL     1       5.656  -0.651  -0.405  0.00  0.00    -0.043 A 
ATOM     23  C   UNL     1       6.235  -0.527   0.844  0.00  0.00    +0.007 A 
ATOM     24  C   UNL     1       7.608  -0.593   0.981  0.00  0.00    +0.046 A 
ATOM     25  C   UNL     1       8.407  -0.772  -0.139  0.00  0.00    +0.120 A 
ATOM     26  C   UNL     1       7.824  -0.891  -1.392  0.00  0.00    +0.046 A 
ATOM     27  C   UNL     1       6.450  -0.831  -1.523  0.00  0.00    +0.007 A 
BRANCH  25  28
ATOM     28  O   UNL     1       9.758  -0.833  -0.008  0.00  0.00    -0.495 OA
ATOM     29  C   UNL     1      10.289  -0.702   1.313  0.00  0.00    +0.277 C 
ENDBRANCH  25  28
ENDBRANCH  18  22
TORSDOF 2
