REMARK  Name = ZINC21604042
REMARK  10 active torsions:
REMARK  status: ('A' for Active; 'I' for Inactive)
REMARK    1  A    between atoms: C_1  and  C_2
REMARK    2  A    between atoms: C_11  and  N_29
REMARK    3  A    between atoms: C_13  and  S_15
REMARK    4  A    between atoms: S_15  and  C_16
REMARK    5  A    between atoms: C_16  and  C_18
REMARK    6  A    between atoms: C_16  and  C_19
REMARK    7  A    between atoms: N_24  and  C_25
REMARK    8  A    between atoms: C_25  and  C_26
REMARK    9  A    between atoms: C_25  and  C_27
REMARK   10  A    between atoms: C_25  and  C_28
REMARK                            x       y       z     vdW  Elec       q    Type
REMARK                         _______ _______ _______ _____ _____    ______ ____
ROOT
ATOM      1  C   UNL     1      10.190   3.505  -1.029  0.00  0.00    +0.008 C 
ATOM      2  C   UNL     1       8.697   3.171  -1.031  0.00  0.00    -0.009 C 
ATOM      3  C   UNL     1       8.275   2.675   0.355  0.00  0.00    +0.008 C 
ATOM      4  C   UNL     1       6.752   2.577   0.430  0.00  0.00    +0.037 C 
ATOM      5  C   UNL     1       6.252   1.744  -0.748  0.00  0.00    -0.025 A 
ATOM      6  C   UNL     1       7.032   1.544  -1.829  0.00  0.00    -0.004 A 
ATOM      7  S   UNL     1       6.060   0.540  -2.920  0.00  0.00    -0.073 S 
ATOM      8  C   UNL     1       4.603   0.390  -1.920  0.00  0.00    +0.115 A 
ATOM      9  C   UNL     1       4.923   1.130  -0.764  0.00  0.00    +0.051 A 
ATOM     10  C   UNL     1       3.908   1.179   0.233  0.00  0.00    +0.129 A 
ATOM     11  N   UNL     1       2.764   0.550   0.022  0.00  0.00    -0.207 NA
ATOM     12  C   UNL     1       2.528  -0.131  -1.094  0.00  0.00    +0.192 A 
ATOM     13  N   UNL     1       3.439  -0.215  -2.054  0.00  0.00    -0.214 NA
ATOM     14  C   UNL     1       8.420   2.061  -2.056  0.00  0.00    +0.046 C 
ENDROOT
BRANCH  10  15
ATOM     15  N   UNL     1       4.116   1.877   1.408  0.00  0.00    -0.343 N 
ATOM     16  H   UNL     1       3.327   1.911   2.174  0.00  0.00    +0.144 HD
ATOM     17  H   UNL     1       5.069   2.399   1.577  0.00  0.00    +0.144 HD
ENDBRANCH  10  15
BRANCH  12  18
ATOM     18  S   UNL     1       0.977  -0.942  -1.300  0.00  0.00    -0.073 S 
BRANCH  18  19
ATOM     19  C   UNL     1       0.181  -0.501   0.265  0.00  0.00    +0.137 C 
ATOM     20  C   UNL     1      -0.036   1.013   0.318  0.00  0.00    +0.029 C 
BRANCH  19  21
ATOM     21  C   UNL     1      -1.148  -1.203   0.368  0.00  0.00    +0.233 C 
ATOM     22  O   UNL     1      -1.690  -1.624  -0.631  0.00  0.00    -0.274 OA
ATOM     23  N   UNL     1      -1.734  -1.363   1.571  0.00  0.00    -0.239 N 
ATOM     24  C   UNL     1      -2.923  -1.991   1.664  0.00  0.00    +0.306 C 
ATOM     25  O   UNL     1      -3.467  -2.413   0.662  0.00  0.00    -0.252 OA
ATOM     26  N   UNL     1      -3.509  -2.151   2.867  0.00  0.00    -0.294 N 
ATOM     27  H   UNL     1      -1.242  -0.981   2.478  0.00  0.00    +0.159 HD
ATOM     28  H   UNL     1      -3.017  -1.769   3.773  0.00  0.00    +0.151 HD
BRANCH  26  29
ATOM     29  C   UNL     1      -4.801  -2.834   2.967  0.00  0.00    +0.028 C 
ATOM     30  C   UNL     1      -4.668  -4.259   2.428  0.00  0.00    +0.031 C 
ATOM     31  C   UNL     1      -5.241  -2.881   4.432  0.00  0.00    +0.031 C 
ATOM     32  C   UNL     1      -5.845  -2.073   2.146  0.00  0.00    +0.031 C 
ENDBRANCH  26  29
ENDBRANCH  19  21
ENDBRANCH  18  19
ENDBRANCH  12  18
TORSDOF 5
