REMARK  Name = ZINC39691333
REMARK  10 active torsions:
REMARK  status: ('A' for Active; 'I' for Inactive)
REMARK    1  A    between atoms: C_1  and  C_2
REMARK    2  A    between atoms: C_2  and  C_3
REMARK    3  A    between atoms: C_3  and  C_5
REMARK    4  A    between atoms: C_3  and  C_6
REMARK    5  A    between atoms: C_10  and  C_19
REMARK    6  A    between atoms: N_21  and  C_22
REMARK    7  A    between atoms: C_22  and  C_23
REMARK    8  A    between atoms: C_23  and  N_24
REMARK    9  A    between atoms: C_25  and  C_27
REMARK   10  A    between atoms: C_27  and  C_28
REMARK                            x       y       z     vdW  Elec       q    Type
REMARK                         _______ _______ _______ _____ _____    ______ ____
ROOT
ATOM      1  C   UNL     1       4.522  -2.216  -3.081  0.00  0.00    +0.218 C 
ATOM      2  O   UNL     1       4.372  -1.437  -2.163  0.00  0.00    -0.275 OA
ATOM      3  N   UNL     1       5.757  -2.455  -3.566  0.00  0.00    -0.314 N 
ATOM      4  H   UNL     1       5.877  -3.078  -4.300  0.00  0.00    +0.149 HD
ENDROOT
BRANCH   1   9
ATOM      5  C   UNL     1       0.786  -1.744  -1.382  0.00  0.00    +0.218 C 
ATOM      6  O   UNL     1       0.289  -2.275  -0.411  0.00  0.00    -0.275 OA
ATOM      7  N   UNL     1       1.403  -2.492  -2.317  0.00  0.00    -0.300 N 
ATOM      8  C   UNL     1       2.069  -2.029  -3.557  0.00  0.00    +0.121 C 
ATOM      9  C   UNL     1       3.329  -2.915  -3.678  0.00  0.00    +0.100 C 
ATOM     10  C   UNL     1       2.994  -4.185  -2.878  0.00  0.00    -0.004 C 
ATOM     11  C   UNL     1       1.575  -3.965  -2.335  0.00  0.00    +0.115 C 
ATOM     12  C   UNL     1       3.974  -4.355  -1.721  0.00  0.00    -0.010 C 
ATOM     13  C   UNL     1       3.656  -5.654  -0.975  0.00  0.00    -0.082 C 
ATOM     14  N   UNL     1       3.757  -6.789  -1.900  0.00  0.00    +0.379 N 
ATOM     15  C   UNL     1       2.748  -6.665  -2.959  0.00  0.00    -0.082 C 
ATOM     16  C   UNL     1       3.028  -5.409  -3.789  0.00  0.00    -0.010 C 
ATOM     17  H   UNL     1       4.677  -6.802  -2.314  0.00  0.00    -0.086 HD
ATOM     18  H   UNL     1       3.607  -7.649  -1.393  0.00  0.00    -0.086 HD
BRANCH   5  19
ATOM     19  C   UNL     1       0.714  -0.247  -1.542  0.00  0.00    +0.072 C 
ATOM     20  C   UNL     1      -0.029   0.092  -2.835  0.00  0.00    +0.017 C 
BRANCH  19  22
ATOM     21  C   UNL     1       0.001   1.884  -0.449  0.00  0.00    +0.004 C 
ATOM     22  C   UNL     1      -0.033   0.358  -0.351  0.00  0.00    +0.009 C 
ENDBRANCH  19  22
ENDBRANCH   5  19
ENDBRANCH   1   9
BRANCH   3  23
ATOM     23  C   UNL     1       6.917  -1.775  -2.986  0.00  0.00    +0.123 C 
BRANCH  23  24
ATOM     24  C   UNL     1       8.187  -2.220  -3.713  0.00  0.00    +0.123 C 
BRANCH  24  25
ATOM     25  N   UNL     1       9.347  -1.540  -3.133  0.00  0.00    -0.314 N 
ATOM     26  C   UNL     1      10.581  -1.780  -3.618  0.00  0.00    +0.217 C 
ATOM     27  O   UNL     1      10.732  -2.558  -4.536  0.00  0.00    -0.275 OA
ATOM     28  H   UNL     1       9.227  -0.917  -2.399  0.00  0.00    +0.149 HD
BRANCH  26  29
ATOM     29  C   UNL     1      11.775  -1.080  -3.021  0.00  0.00    +0.131 C 
BRANCH  29  30
ATOM     30  C   UNL     1      13.025  -1.519  -3.738  0.00  0.00    -0.031 A 
ATOM     31  C   UNL     1      13.777  -2.539  -3.240  0.00  0.00    +0.005 A 
ATOM     32  C   UNL     1      14.937  -2.958  -3.889  0.00  0.00    +0.001 A 
ATOM     33  C   UNL     1      15.351  -2.361  -5.039  0.00  0.00    +0.008 A 
ATOM     34  C   UNL     1      14.601  -1.305  -5.584  0.00  0.00    -0.018 A 
ATOM     35  C   UNL     1      13.418  -0.882  -4.927  0.00  0.00    -0.014 A 
ATOM     36  C   UNL     1      12.665   0.170  -5.475  0.00  0.00    +0.009 A 
ATOM     37  C   UNL     1      13.076   0.764  -6.628  0.00  0.00    +0.001 A 
ATOM     38  C   UNL     1      14.236   0.344  -7.277  0.00  0.00    +0.001 A 
ATOM     39  C   UNL     1      14.998  -0.663  -6.769  0.00  0.00    +0.008 A 
ENDBRANCH  29  30
ENDBRANCH  26  29
ENDBRANCH  24  25
ENDBRANCH  23  24
ENDBRANCH   3  23
TORSDOF 8
