REMARK  Name = ZINC01384018
REMARK  8 active torsions:
REMARK  status: ('A' for Active; 'I' for Inactive)
REMARK    1  A    between atoms: C_1  and  C_2
REMARK    2  A    between atoms: C_5  and  S_8
REMARK    3  A    between atoms: S_8  and  N_11
REMARK    4  A    between atoms: N_11  and  N_12
REMARK    5  A    between atoms: C_13  and  C_15
REMARK    6  A    between atoms: N_18  and  S_21
REMARK    7  A    between atoms: S_21  and  C_24
REMARK    8  A    between atoms: C_27  and  C_30
REMARK                            x       y       z     vdW  Elec       q    Type
REMARK                         _______ _______ _______ _____ _____    ______ ____
ROOT
ATOM      1  N   UNL     1       2.500  -4.622   1.014  0.00  0.00    -0.232 N 
ATOM      2  C   UNL     1       3.184  -5.560   1.699  0.00  0.00    +0.231 C 
ATOM      3  O   UNL     1       3.064  -6.731   1.407  0.00  0.00    -0.274 OA
ATOM      4  H   UNL     1       2.596  -3.685   1.247  0.00  0.00    +0.171 HD
ENDROOT
BRANCH   2   5
ATOM      5  C   UNL     1       4.098  -5.154   2.826  0.00  0.00    +0.079 C 
ATOM      6  C   UNL     1       5.185  -4.220   2.290  0.00  0.00    +0.030 C 
ATOM      7  C   UNL     1       6.091  -3.781   3.445  0.00  0.00    +0.110 C 
ATOM      8  N   UNL     1       6.605  -4.979   4.123  0.00  0.00    -0.177 NA
ATOM      9  C   UNL     1       5.648  -5.987   4.598  0.00  0.00    +0.110 C 
ATOM     10  C   UNL     1       4.747  -6.401   3.431  0.00  0.00    +0.030 C 
BRANCH   8  11
ATOM     11  S   UNL     1       8.233  -5.189   4.347  0.00  0.00    +0.061 S 
ATOM     12  O   UNL     1       8.447  -6.586   4.486  0.00  0.00    -0.153 OA
ATOM     13  O   UNL     1       8.883  -4.414   3.349  0.00  0.00    -0.153 OA
BRANCH  11  14
ATOM     14  C   UNL     1       8.643  -4.459   5.898  0.00  0.00    +0.105 A 
ATOM     15  C   UNL     1       9.008  -3.128   5.960  0.00  0.00    +0.029 A 
ATOM     16  C   UNL     1       9.330  -2.556   7.177  0.00  0.00    +0.005 A 
ATOM     17  C   UNL     1       9.287  -3.315   8.331  0.00  0.00    -0.050 A 
ATOM     18  C   UNL     1       8.921  -4.647   8.269  0.00  0.00    +0.005 A 
ATOM     19  C   UNL     1       8.594  -5.218   7.053  0.00  0.00    +0.029 A 
ATOM     20  C   UNL     1       9.639  -2.692   9.657  0.00  0.00    +0.044 C 
ENDBRANCH  11  14
ENDBRANCH   8  11
ENDBRANCH   2   5
BRANCH   1  21
ATOM     21  N   UNL     1       1.651  -4.999  -0.034  0.00  0.00    -0.108 NA
ATOM     22  H   UNL     1       1.993  -5.536  -0.767  0.00  0.00    +0.172 HD
BRANCH  21  23
ATOM     23  S   UNL     1       0.063  -4.530  -0.023  0.00  0.00    +0.074 S 
ATOM     24  O   UNL     1      -0.476  -4.950   1.223  0.00  0.00    -0.152 OA
ATOM     25  O   UNL     1      -0.490  -4.937  -1.267  0.00  0.00    -0.152 OA
BRANCH  23  30
ATOM     26  C   UNL     1      -0.018   1.503   0.010  0.00  0.00    +0.044 C 
ATOM     27  C   UNL     1       0.002  -0.004   0.002  0.00  0.00    -0.050 A 
ATOM     28  C   UNL     1       0.006  -0.689  -1.199  0.00  0.00    +0.005 A 
ATOM     29  C   UNL     1       0.025  -2.071  -1.206  0.00  0.00    +0.029 A 
ATOM     30  C   UNL     1       0.040  -2.768  -0.013  0.00  0.00    +0.107 A 
ATOM     31  C   UNL     1       0.037  -2.084   1.188  0.00  0.00    +0.029 A 
ATOM     32  C   UNL     1       0.023  -0.702   1.195  0.00  0.00    +0.005 A 
ENDBRANCH  23  30
ENDBRANCH  21  23
ENDBRANCH   1  21
TORSDOF 6
