REMARK  Name = ZINC25252488
REMARK  8 active torsions:
REMARK  status: ('A' for Active; 'I' for Inactive)
REMARK    1  A    between atoms: C_4  and  C_7
REMARK    2  A    between atoms: C_7  and  N_8
REMARK    3  A    between atoms: C_11  and  N_14
REMARK    4  A    between atoms: C_15  and  C_17
REMARK    5  A    between atoms: C_17  and  C_19
REMARK    6  A    between atoms: C_17  and  N_30
REMARK    7  A    between atoms: C_19  and  C_20
REMARK    8  A    between atoms: C_31  and  C_33
REMARK                            x       y       z     vdW  Elec       q    Type
REMARK                         _______ _______ _______ _____ _____    ______ ____
ROOT
ATOM      1  C   UNL     1       4.147   3.775  -1.454  0.00  0.00    +0.163 C 
ENDROOT
BRANCH   1   3
ATOM      2  N   UNL     1       6.006   2.163  -1.197  0.00  0.00    -0.313 N 
ATOM      3  C   UNL     1       5.613   3.425  -1.460  0.00  0.00    +0.234 C 
ATOM      4  O   UNL     1       6.439   4.280  -1.702  0.00  0.00    -0.274 OA
ATOM      5  H   UNL     1       5.257   1.388  -0.978  0.00  0.00    +0.149 HD
BRANCH   2   9
ATOM      6  N   UNL     1       8.326  -0.263  -0.342  0.00  0.00    +0.384 N 
ATOM      7  C   UNL     1       8.003   0.613   0.814  0.00  0.00    -0.077 C 
ATOM      8  C   UNL     1       8.040   2.035   0.202  0.00  0.00    +0.002 C 
ATOM      9  C   UNL     1       7.431   1.823  -1.204  0.00  0.00    +0.055 C 
ATOM     10  C   UNL     1       7.622   0.325  -1.502  0.00  0.00    -0.056 C 
ATOM     11  H   UNL     1       9.410  -0.325  -0.518  0.00  0.00    -0.081 HD
BRANCH   6  12
ATOM     12  C   UNL     1       7.881  -1.641  -0.099  0.00  0.00    -0.043 C 
BRANCH  12  16
ATOM     13  C   UNL     1      10.436  -3.474   2.793  0.00  0.00    +0.000 A 
ATOM     14  C   UNL     1       9.306  -2.791   3.203  0.00  0.00    +0.000 A 
ATOM     15  C   UNL     1       8.479  -2.198   2.267  0.00  0.00    +0.002 A 
ATOM     16  C   UNL     1       8.783  -2.288   0.921  0.00  0.00    -0.064 A 
ATOM     17  C   UNL     1       9.909  -2.975   0.511  0.00  0.00    +0.002 A 
ATOM     18  C   UNL     1      10.739  -3.564   1.447  0.00  0.00    +0.000 A 
ENDBRANCH  12  16
ENDBRANCH   6  12
ENDBRANCH   2   9
ENDBRANCH   1   3
BRANCH   1  19
ATOM     19  N   UNL     1       3.938   5.014  -2.207  0.00  0.00    -0.299 N 
ATOM     20  C   UNL     1       4.545   6.151  -1.816  0.00  0.00    +0.251 C 
ATOM     21  O   UNL     1       5.269   6.150  -0.837  0.00  0.00    -0.270 OA
ATOM     22  H   UNL     1       3.284   5.016  -3.092  0.00  0.00    +0.150 HD
BRANCH  20  23
ATOM     23  C   UNL     1       4.335   7.391  -2.570  0.00  0.00    +0.074 A 
ATOM     24  C   UNL     1       4.860   8.653  -2.339  0.00  0.00    +0.021 A 
ATOM     25  C   UNL     1       4.495   9.650  -3.210  0.00  0.00    +0.008 A 
ATOM     26  C   UNL     1       3.654   9.359  -4.237  0.00  0.00    +0.046 A 
ATOM     27  S   UNL     1       3.345   7.667  -4.028  0.00  0.00    -0.092 S 
ENDBRANCH  20  23
ENDBRANCH   1  19
BRANCH   1  28
ATOM     28  C   UNL     1       3.676   3.969  -0.011  0.00  0.00    +0.069 C 
BRANCH  28  29
ATOM     29  C   UNL     1       2.186   4.197   0.004  0.00  0.00    -0.020 A 
ATOM     30  C   UNL     1       1.560   5.385   0.016  0.00  0.00    +0.087 A 
ATOM     31  N   UNL     1       0.205   5.198   0.028  0.00  0.00    -0.360 N 
ATOM     32  H   UNL     1      -0.470   6.067   0.039  0.00  0.00    +0.165 HD
ATOM     33  C   UNL     1      -0.082   3.852   0.024  0.00  0.00    +0.047 A 
ATOM     34  C   UNL     1       1.147   3.166   0.008  0.00  0.00    +0.003 A 
ATOM     35  C   UNL     1       1.165   1.770   0.000  0.00  0.00    +0.010 A 
ATOM     36  C   UNL     1      -0.013   1.076   0.008  0.00  0.00    +0.001 A 
ATOM     37  C   UNL     1      -1.227   1.748   0.017  0.00  0.00    +0.002 A 
ATOM     38  C   UNL     1      -1.268   3.125   0.031  0.00  0.00    +0.026 A 
ENDBRANCH  28  29
ENDBRANCH   1  28
TORSDOF 8
