REMARK  Name = ZINC38564974
REMARK  6 active torsions:
REMARK  status: ('A' for Active; 'I' for Inactive)
REMARK    1  A    between atoms: C_1  and  O_2
REMARK    2  A    between atoms: O_2  and  C_3
REMARK    3  A    between atoms: C_6  and  C_9
REMARK    4  A    between atoms: C_11  and  C_23
REMARK    5  A    between atoms: N_25  and  C_26
REMARK    6  A    between atoms: C_26  and  C_27
REMARK                            x       y       z     vdW  Elec       q    Type
REMARK                         _______ _______ _______ _____ _____    ______ ____
ROOT
ATOM      1  C   UNL     1      -4.944  -2.610   0.036  0.00  0.00    +0.076 C 
ATOM      2  N   UNL     1      -6.059  -1.920   0.139  0.00  0.00    -0.244 NA
ATOM      3  C   UNL     1      -7.273  -2.466   0.296  0.00  0.00    +0.126 C 
ATOM      4  C   UNL     1      -7.425  -3.808   0.656  0.00  0.00    +0.039 C 
ATOM      5  C   UNL     1      -6.271  -4.577   0.636  0.00  0.00    -0.008 C 
ATOM      6  C   UNL     1      -5.907  -5.774   1.194  0.00  0.00    +0.004 A 
ATOM      7  C   UNL     1      -6.663  -6.808   1.793  0.00  0.00    +0.010 A 
ATOM      8  C   UNL     1      -5.966  -7.865   2.303  0.00  0.00    +0.001 A 
ATOM      9  C   UNL     1      -4.575  -7.961   2.257  0.00  0.00    +0.002 A 
ATOM     10  C   UNL     1      -3.776  -7.022   1.680  0.00  0.00    +0.026 A 
ATOM     11  C   UNL     1      -4.425  -5.894   1.102  0.00  0.00    +0.044 A 
ATOM     12  N   UNL     1      -3.919  -4.884   0.438  0.00  0.00    -0.372 N 
ATOM     13  C   UNL     1      -5.016  -4.091  -0.077  0.00  0.00    +0.160 C 
ATOM     14  H   UNL     1      -2.975  -4.700   0.311  0.00  0.00    +0.161 HD
ENDROOT
BRANCH   1  18
ATOM     15  C   UNL     1      -1.199  -0.636   0.008  0.00  0.00    +0.120 A 
ATOM     16  C   UNL     1      -1.333  -1.877  -0.607  0.00  0.00    +0.046 A 
ATOM     17  C   UNL     1      -2.543  -2.520  -0.601  0.00  0.00    +0.013 A 
ATOM     18  C   UNL     1      -3.647  -1.926   0.026  0.00  0.00    -0.001 A 
ATOM     19  C   UNL     1      -3.506  -0.676   0.645  0.00  0.00    +0.013 A 
ATOM     20  C   UNL     1      -2.289  -0.044   0.638  0.00  0.00    +0.046 A 
BRANCH  15  22
ATOM     21  C   UNL     1       1.080  -0.666  -0.664  0.00  0.00    +0.277 C 
ATOM     22  O   UNL     1       0.002  -0.004  -0.001  0.00  0.00    -0.495 OA
ENDBRANCH  15  22
ENDBRANCH   1  18
BRANCH   3  23
ATOM     23  C   UNL     1      -8.477  -1.631   0.086  0.00  0.00    +0.262 C 
ATOM     24  O   UNL     1      -9.584  -2.114   0.225  0.00  0.00    -0.269 OA
ATOM     25  N   UNL     1      -8.346  -0.336  -0.261  0.00  0.00    -0.308 N 
ATOM     26  H   UNL     1      -7.463   0.050  -0.373  0.00  0.00    +0.149 HD
BRANCH  25  27
ATOM     27  C   UNL     1      -9.538   0.491  -0.470  0.00  0.00    +0.136 C 
BRANCH  27  28
ATOM     28  C   UNL     1      -9.114   1.910  -0.852  0.00  0.00    +0.135 C 
ATOM     29  C   UNL     1     -10.357   2.819  -0.956  0.00  0.00    +0.035 C 
ATOM     30  C   UNL     1     -10.020   3.700  -2.190  0.00  0.00    +0.031 C 
ATOM     31  C   UNL     1      -9.234   2.692  -3.065  0.00  0.00    +0.160 C 
ATOM     32  O   UNL     1      -8.476   1.898  -2.135  0.00  0.00    -0.375 OA
ENDBRANCH  27  28
ENDBRANCH  25  27
ENDBRANCH   3  23
TORSDOF 5
