REMARK  Name = ZINC63708300
REMARK  11 active torsions:
REMARK  status: ('A' for Active; 'I' for Inactive)
REMARK    1  A    between atoms: C_1  and  C_2
REMARK    2  A    between atoms: C_6  and  C_37
REMARK    3  A    between atoms: C_7  and  N_8
REMARK    4  A    between atoms: C_9  and  C_11
REMARK    5  A    between atoms: C_11  and  S_12
REMARK    6  A    between atoms: S_12  and  C_13
REMARK    7  A    between atoms: C_25  and  C_27
REMARK    8  A    between atoms: C_27  and  C_28
REMARK    9  A    between atoms: C_28  and  C_29
REMARK   10  A    between atoms: C_30  and  C_36
REMARK   11  A    between atoms: C_33  and  C_35
REMARK                            x       y       z     vdW  Elec       q    Type
REMARK                         _______ _______ _______ _____ _____    ______ ____
ROOT
ATOM      1  C   UNL     1      -0.333   0.115   7.700  0.00  0.00    +0.248 C 
ATOM      2  N   UNL     1      -1.556   0.921   7.595  0.00  0.00    -0.356 N 
ATOM      3  C   UNL     1      -1.470   2.244   7.596  0.00  0.00    +0.048 A 
ATOM      4  C   UNL     1      -2.633   3.039   7.495  0.00  0.00    +0.026 A 
ATOM      5  C   UNL     1      -2.522   4.395   7.499  0.00  0.00    +0.002 A 
ATOM      6  C   UNL     1      -1.285   5.026   7.600  0.00  0.00    +0.001 A 
ATOM      7  C   UNL     1      -0.127   4.316   7.699  0.00  0.00    +0.013 A 
ATOM      8  C   UNL     1      -0.169   2.912   7.702  0.00  0.00    +0.038 A 
ATOM      9  C   UNL     1       1.019   2.160   7.805  0.00  0.00    +0.128 C 
ATOM     10  N   UNL     1       0.959   0.792   7.804  0.00  0.00    -0.204 N 
ATOM     11  N   UNL     1       2.280   0.340   7.916  0.00  0.00    -0.249 N 
ATOM     12  C   UNL     1       3.060   1.441   7.976  0.00  0.00    +0.090 C 
ATOM     13  N   UNL     1       2.307   2.509   7.911  0.00  0.00    -0.332 N 
ATOM     14  H   UNL     1       2.576  -0.584   7.945  0.00  0.00    +0.171 HD
ATOM     15  H   UNL     1      -2.421   0.488   7.525  0.00  0.00    +0.162 HD
ATOM     16  H   UNL     1       2.635   3.422   7.935  0.00  0.00    +0.168 HD
ENDROOT
BRANCH   1  17
ATOM     17  S   UNL     1      -0.266  -0.967   6.246  0.00  0.00    -0.106 S 
BRANCH  17  18
ATOM     18  C   UNL     1      -0.092   0.181   4.852  0.00  0.00    +0.168 C 
BRANCH  18  20
ATOM     19  N   UNL     1       0.107   0.050   2.390  0.00  0.00    -0.284 N 
ATOM     20  C   UNL     1      -0.024  -0.598   3.564  0.00  0.00    +0.227 C 
ATOM     21  O   UNL     1      -0.086  -1.810   3.585  0.00  0.00    -0.275 OA
ATOM     22  H   UNL     1       0.223   1.013   2.378  0.00  0.00    +0.155 HD
BRANCH  19  29
ATOM     23  C   UNL     1       2.558  -0.356   1.002  0.00  0.00    +0.045 C 
ATOM     24  C   UNL     1       1.248  -0.887   0.479  0.00  0.00    -0.029 A 
ATOM     25  C   UNL     1       1.214  -1.599  -0.704  0.00  0.00    +0.005 A 
ATOM     26  C   UNL     1       0.013  -2.087  -1.185  0.00  0.00    +0.001 A 
ATOM     27  C   UNL     1      -1.158  -1.863  -0.484  0.00  0.00    +0.005 A 
ATOM     28  C   UNL     1      -1.131  -1.152   0.700  0.00  0.00    -0.029 A 
ATOM     29  C   UNL     1       0.075  -0.666   1.188  0.00  0.00    +0.039 A 
ATOM     30  C   UNL     1      -2.407  -0.908   1.463  0.00  0.00    +0.045 C 
ENDBRANCH  19  29
ENDBRANCH  18  20
ENDBRANCH  17  18
ENDBRANCH   1  17
BRANCH  12  31
ATOM     31  C   UNL     1       4.562   1.441   8.101  0.00  0.00    +0.075 C 
BRANCH  31  32
ATOM     32  C   UNL     1       5.190   1.434   6.706  0.00  0.00    +0.042 C 
BRANCH  32  33
ATOM     33  C   UNL     1       6.692   1.433   6.831  0.00  0.00    -0.021 C 
ATOM     34  C   UNL     1       7.519   0.385   6.807  0.00  0.00    +0.061 C 
ATOM     35  N   UNL     1       8.802   0.783   6.950  0.00  0.00    -0.159 NA
ATOM     36  N   UNL     1       8.950   2.002   7.070  0.00  0.00    -0.180 NA
ATOM     37  C   UNL     1       7.617   2.624   7.008  0.00  0.00    +0.153 C 
ATOM     38  C   UNL     1       7.305   3.363   8.311  0.00  0.00    +0.039 C 
ATOM     39  C   UNL     1       7.080  -1.047   6.644  0.00  0.00    +0.067 C 
ENDBRANCH  32  33
ENDBRANCH  31  32
ENDBRANCH  12  31
TORSDOF 7
