REMARK  Name = ZINC13682351
REMARK  5 active torsions:
REMARK  status: ('A' for Active; 'I' for Inactive)
REMARK    1  A    between atoms: C_1  and  C_2
REMARK    2  A    between atoms: C_4  and  C_32
REMARK    3  A    between atoms: C_11  and  C_13
REMARK    4  A    between atoms: C_19  and  C_25
REMARK    5  A    between atoms: C_22  and  O_24
REMARK                            x       y       z     vdW  Elec       q    Type
REMARK                         _______ _______ _______ _____ _____    ______ ____
ROOT
ATOM      1  C   UNL     1       0.024   1.504   0.011  0.00  0.00    +0.066 C 
ATOM      2  C   UNL     1       0.070  -0.002   0.003  0.00  0.00    +0.044 A 
ATOM      3  C   UNL     1       0.129  -0.696  -1.196  0.00  0.00    +0.046 A 
ATOM      4  C   UNL     1       0.170  -2.082  -1.157  0.00  0.00    +0.044 A 
ATOM      5  N   UNL     1       0.152  -2.695   0.014  0.00  0.00    -0.216 NA
ATOM      6  C   UNL     1       0.095  -2.002   1.141  0.00  0.00    +0.254 A 
ATOM      7  N   UNL     1       0.060  -0.679   1.140  0.00  0.00    -0.216 NA
ATOM      8  N   UNL     1       0.076  -2.681   2.356  0.00  0.00    -0.179 N 
ATOM      9  C   UNL     1       0.015  -2.115   3.587  0.00  0.00    +0.167 A 
ATOM     10  C   UNL     1       0.007  -3.135   4.510  0.00  0.00    +0.033 A 
ATOM     11  C   UNL     1       0.076  -4.343   3.818  0.00  0.00    +0.099 A 
ATOM     12  N   UNL     1       0.112  -4.075   2.525  0.00  0.00    -0.162 NA
ATOM     13  C   UNL     1      -0.073  -2.863   5.991  0.00  0.00    +0.066 C 
ATOM     14  C   UNL     1       0.581  -1.500   6.250  0.00  0.00    +0.108 C 
ATOM     15  C   UNL     1       0.179  -0.496   5.209  0.00  0.00    +0.190 C 
ATOM     16  N   UNL     1      -0.057  -0.807   3.969  0.00  0.00    -0.197 NA
ATOM     17  C   UNL     1       0.234  -2.878  -2.435  0.00  0.00    +0.066 C 
ENDROOT
BRANCH  13  18
ATOM     18  C   UNL     1      -1.515  -2.831   6.428  0.00  0.00    -0.004 A 
ATOM     19  C   UNL     1      -2.385  -1.911   5.873  0.00  0.00    +0.007 A 
ATOM     20  C   UNL     1      -3.707  -1.881   6.274  0.00  0.00    +0.000 A 
ATOM     21  C   UNL     1      -4.161  -2.771   7.230  0.00  0.00    +0.003 A 
ATOM     22  C   UNL     1      -3.294  -3.692   7.785  0.00  0.00    +0.038 A 
ATOM     23  C   UNL     1      -1.970  -3.726   7.381  0.00  0.00    +0.127 A 
ATOM     24  F   UNL     1      -1.121  -4.629   7.920  0.00  0.00    -0.205 F 
ENDBRANCH  13  18
BRANCH  11  25
ATOM     25  C   UNL     1       0.099  -5.696   4.429  0.00  0.00    +0.002 A 
ATOM     26  C   UNL     1      -0.651  -6.728   3.869  0.00  0.00    +0.010 A 
ATOM     27  C   UNL     1      -0.626  -7.984   4.440  0.00  0.00    +0.001 A 
ATOM     28  C   UNL     1       0.141  -8.219   5.567  0.00  0.00    +0.000 A 
ATOM     29  C   UNL     1       0.887  -7.198   6.127  0.00  0.00    +0.001 A 
ATOM     30  C   UNL     1       0.874  -5.939   5.560  0.00  0.00    +0.010 A 
ENDBRANCH  11  25
BRANCH  15  31
ATOM     31  O   UNL     1       0.055   0.795   5.579  0.00  0.00    -0.495 OA
ATOM     32  H   UNL     1      -0.206   1.387   4.861  0.00  0.00    +0.293 HD
ENDBRANCH  15  31
TORSDOF 3
