REMARK  Name = ZINC02660894
REMARK  7 active torsions:
REMARK  status: ('A' for Active; 'I' for Inactive)
REMARK    1  A    between atoms: C_4  and  N_7
REMARK    2  A    between atoms: C_8  and  C_28
REMARK    3  A    between atoms: C_11  and  S_12
REMARK    4  A    between atoms: S_12  and  C_13
REMARK    5  A    between atoms: C_13  and  C_14
REMARK    6  A    between atoms: N_16  and  C_17
REMARK    7  A    between atoms: C_18  and  C_25
REMARK                            x       y       z     vdW  Elec       q    Type
REMARK                         _______ _______ _______ _____ _____    ______ ____
ROOT
ATOM      1  C   UNL     1       6.074  -0.227   3.293  0.00  0.00    +0.173 C 
ENDROOT
BRANCH   1   2
ATOM      2  C   UNL     1       6.142   0.452   4.637  0.00  0.00    +0.228 C 
ATOM      3  O   UNL     1       5.227   1.155   5.009  0.00  0.00    -0.275 OA
ATOM      4  N   UNL     1       7.221   0.278   5.426  0.00  0.00    -0.279 N 
ATOM      5  H   UNL     1       7.954  -0.284   5.128  0.00  0.00    +0.155 HD
BRANCH   4   6
ATOM      6  C   UNL     1       7.285   0.902   6.662  0.00  0.00    +0.084 A 
ATOM      7  C   UNL     1       8.305   0.844   7.593  0.00  0.00    +0.068 A 
ATOM      8  C   UNL     1       8.127   1.601   8.831  0.00  0.00    -0.023 A 
ATOM      9  C   UNL     1       6.962   2.271   8.902  0.00  0.00    -0.004 A 
ATOM     10  S   UNL     1       6.144   1.908   7.369  0.00  0.00    -0.077 S 
ATOM     11  C   UNL     1       6.829   3.028  10.195  0.00  0.00    +0.043 C 
ATOM     12  C   UNL     1       7.890   2.401  11.126  0.00  0.00    +0.010 C 
ATOM     13  C   UNL     1       8.918   1.859  10.112  0.00  0.00    +0.037 C 
BRANCH   7  14
ATOM     14  C   UNL     1       9.516   0.054   7.349  0.00  0.00    +0.244 C 
ATOM     15  O   UNL     1      10.475   0.564   6.801  0.00  0.00    -0.270 OA
ATOM     16  N   UNL     1       9.567  -1.237   7.732  0.00  0.00    -0.325 N 
ATOM     17  H   UNL     1       8.802  -1.644   8.169  0.00  0.00    +0.145 HD
ATOM     18  H   UNL     1      10.368  -1.760   7.571  0.00  0.00    +0.145 HD
ENDBRANCH   7  14
ENDBRANCH   4   6
ENDBRANCH   1   2
BRANCH   1  19
ATOM     19  S   UNL     1       4.510   0.201   2.479  0.00  0.00    -0.076 S 
BRANCH  19  24
ATOM     20  N   UNL     1       3.623  -0.652  -0.036  0.00  0.00    -0.268 N 
ATOM     21  C   UNL     1       4.119  -1.454  -1.044  0.00  0.00    +0.205 A 
ATOM     22  N   UNL     1       5.293  -1.891  -0.644  0.00  0.00    -0.125 NA
ATOM     23  N   UNL     1       5.562  -1.425   0.523  0.00  0.00    -0.122 NA
ATOM     24  C   UNL     1       4.581  -0.658   0.942  0.00  0.00    +0.197 A 
BRANCH  20  28
ATOM     25  C   UNL     1      -0.017   1.379   0.010  0.00  0.00    +0.000 A 
ATOM     26  C   UNL     1       1.170   2.089   0.002  0.00  0.00    +0.002 A 
ATOM     27  C   UNL     1       2.377   1.419  -0.013  0.00  0.00    +0.026 A 
ATOM     28  C   UNL     1       2.399   0.031  -0.021  0.00  0.00    +0.051 A 
ATOM     29  C   UNL     1       1.207  -0.680  -0.013  0.00  0.00    +0.026 A 
ATOM     30  C   UNL     1       0.002  -0.004   0.002  0.00  0.00    +0.002 A 
ENDBRANCH  20  28
BRANCH  21  31
ATOM     31  C   UNL     1       3.458  -1.763  -2.321  0.00  0.00    +0.172 A 
ATOM     32  C   UNL     1       4.052  -2.314  -3.417  0.00  0.00    +0.053 A 
ATOM     33  C   UNL     1       3.054  -2.433  -4.403  0.00  0.00    +0.042 A 
ATOM     34  C   UNL     1       1.912  -1.954  -3.869  0.00  0.00    +0.196 A 
ATOM     35  O   UNL     1       2.158  -1.556  -2.610  0.00  0.00    -0.460 OA
ENDBRANCH  21  31
ENDBRANCH  19  24
ENDBRANCH   1  19
TORSDOF 7
