REMARK  Name = ZINC05573208
REMARK  3 active torsions:
REMARK  status: ('A' for Active; 'I' for Inactive)
REMARK    1  A    between atoms: N_9  and  O_22
REMARK    2  A    between atoms: N_12  and  N_13
REMARK    3  A    between atoms: C_14  and  C_15
REMARK                            x       y       z     vdW  Elec       q    Type
REMARK                         _______ _______ _______ _____ _____    ______ ____
ROOT
ATOM      1  C   UNL     1       2.381   1.421  -0.013  0.00  0.00    +0.001 A 
ATOM      2  C   UNL     1       1.161   2.086   0.002  0.00  0.00    +0.002 A 
ATOM      3  C   UNL     1      -0.017   1.394   0.010  0.00  0.00    +0.028 A 
ATOM      4  C   UNL     1       0.002  -0.004   0.002  0.00  0.00    +0.080 A 
ATOM      5  C   UNL     1       1.245  -0.677  -0.013  0.00  0.00    +0.068 A 
ATOM      6  C   UNL     1       2.432   0.054  -0.021  0.00  0.00    +0.015 A 
ATOM      7  C   UNL     1       1.238  -2.146  -0.021  0.00  0.00    +0.295 A 
ATOM      8  O   UNL     1       2.276  -2.782  -0.035  0.00  0.00    -0.264 OA
ATOM      9  N   UNL     1       0.035  -2.767  -0.012  0.00  0.00    -0.111 N 
ATOM     10  C   UNL     1      -1.120  -2.039   0.003  0.00  0.00    +0.253 A 
ATOM     11  N   UNL     1      -1.141  -0.730   0.009  0.00  0.00    -0.212 NA
ATOM     12  N   UNL     1      -2.317  -2.712   0.011  0.00  0.00    -0.204 N 
ATOM     13  H   UNL     1      -2.328  -3.682   0.006  0.00  0.00    +0.177 HD
ENDROOT
BRANCH  12  14
ATOM     14  N   UNL     1      -3.522  -1.998   0.026  0.00  0.00    -0.188 NA
ATOM     15  C   UNL     1      -4.654  -2.634   0.034  0.00  0.00    +0.138 C 
BRANCH  15  16
ATOM     16  C   UNL     1      -5.922  -1.882   0.050  0.00  0.00    -0.005 A 
ATOM     17  C   UNL     1      -5.910  -0.485   0.063  0.00  0.00    +0.010 A 
ATOM     18  C   UNL     1      -7.100   0.212   0.073  0.00  0.00    +0.016 A 
ATOM     19  C   UNL     1      -8.305  -0.470   0.081  0.00  0.00    +0.018 A 
ATOM     20  C   UNL     1      -8.324  -1.855   0.074  0.00  0.00    +0.016 A 
ATOM     21  C   UNL     1      -7.141  -2.564   0.059  0.00  0.00    +0.010 A 
ATOM     22 BR   UNL     1      -9.931   0.494   0.102  0.00  0.00    -0.050 Br
ENDBRANCH  15  16
ENDBRANCH  12  14
BRANCH   9  23
ATOM     23  O   UNL     1      -0.025  -4.181  -0.018  0.00  0.00    -0.421 OA
ATOM     24  H   UNL     1       0.840  -4.612  -0.029  0.00  0.00    +0.326 HD
ENDBRANCH   9  23
TORSDOF 3
