REMARK  Name = ZINC35372090
REMARK  8 active torsions:
REMARK  status: ('A' for Active; 'I' for Inactive)
REMARK    1  A    between atoms: C_4  and  C_7
REMARK    2  A    between atoms: C_10  and  C_12
REMARK    3  A    between atoms: C_20  and  N_22
REMARK    4  A    between atoms: N_22  and  C_23
REMARK    5  A    between atoms: C_23  and  C_24
REMARK    6  A    between atoms: C_24  and  C_25
REMARK    7  A    between atoms: C_25  and  N_26
REMARK    8  A    between atoms: C_29  and  N_32
REMARK                            x       y       z     vdW  Elec       q    Type
REMARK                         _______ _______ _______ _____ _____    ______ ____
ROOT
ATOM      1  C   UNL     1       5.869  -3.550  -0.082  0.00  0.00    +0.220 A 
ATOM      2  N   UNL     1       5.125  -4.643  -0.093  0.00  0.00    -0.223 NA
ATOM      3  C   UNL     1       5.698  -5.853  -0.110  0.00  0.00    +0.077 A 
ATOM      4  C   UNL     1       4.939  -7.032  -0.123  0.00  0.00    +0.028 A 
ATOM      5  C   UNL     1       5.572  -8.239  -0.140  0.00  0.00    +0.002 A 
ATOM      6  C   UNL     1       6.961  -8.321  -0.144  0.00  0.00    +0.001 A 
ATOM      7  C   UNL     1       7.730  -7.193  -0.132  0.00  0.00    +0.013 A 
ATOM      8  C   UNL     1       7.113  -5.939  -0.115  0.00  0.00    +0.040 A 
ATOM      9  C   UNL     1       7.860  -4.734  -0.102  0.00  0.00    +0.131 A 
ATOM     10  N   UNL     1       7.202  -3.586  -0.091  0.00  0.00    -0.208 NA
ENDROOT
BRANCH   1  14
ATOM     11  C   UNL     1       3.695  -0.684  -0.037  0.00  0.00    +0.249 A 
ATOM     12  N   UNL     1       4.891  -0.135  -0.040  0.00  0.00    -0.107 NA
ATOM     13  N   UNL     1       5.784  -1.061  -0.056  0.00  0.00    -0.104 NA
ATOM     14  C   UNL     1       5.196  -2.235  -0.064  0.00  0.00    +0.286 A 
ATOM     15  O   UNL     1       3.864  -2.020  -0.046  0.00  0.00    -0.413 OA
BRANCH  11  19
ATOM     16  C   UNL     1      -0.017   1.379   0.010  0.00  0.00    +0.000 A 
ATOM     17  C   UNL     1       1.168   2.094   0.002  0.00  0.00    +0.001 A 
ATOM     18  C   UNL     1       2.377   1.430  -0.013  0.00  0.00    +0.013 A 
ATOM     19  C   UNL     1       2.404   0.034  -0.021  0.00  0.00    +0.038 A 
ATOM     20  C   UNL     1       1.204  -0.681  -0.013  0.00  0.00    +0.013 A 
ATOM     21  C   UNL     1       0.002  -0.004   0.002  0.00  0.00    +0.001 A 
ENDBRANCH  11  19
ENDBRANCH   1  14
BRANCH   9  22
ATOM     22  N   UNL     1       9.239  -4.758  -0.106  0.00  0.00    -0.328 N 
ATOM     23  H   UNL     1       9.709  -5.606  -0.118  0.00  0.00    +0.147 HD
BRANCH  22  24
ATOM     24  C   UNL     1       9.993  -3.502  -0.093  0.00  0.00    +0.104 C 
BRANCH  24  25
ATOM     25  C   UNL     1      11.493  -3.808  -0.101  0.00  0.00    +0.034 C 
BRANCH  25  26
ATOM     26  C   UNL     1      12.280  -2.496  -0.087  0.00  0.00    +0.086 C 
BRANCH  26  27
ATOM     27  N   UNL     1      13.720  -2.789  -0.094  0.00  0.00    -0.302 NA
ATOM     28  C   UNL     1      14.120  -3.430  -1.354  0.00  0.00    +0.083 C 
ATOM     29  C   UNL     1      15.588  -3.852  -1.269  0.00  0.00    +0.000 C 
ATOM     30  C   UNL     1      16.454  -2.617  -1.005  0.00  0.00    -0.066 C 
ATOM     31  C   UNL     1      15.986  -1.941   0.286  0.00  0.00    +0.000 C 
ATOM     32  C   UNL     1      14.506  -1.575   0.157  0.00  0.00    +0.083 C 
BRANCH  30  33
ATOM     33  N   UNL     1      17.859  -3.023  -0.865  0.00  0.00    +0.382 N 
ATOM     34  C   UNL     1      18.686  -1.839  -0.604  0.00  0.00    -0.078 C 
ATOM     35  C   UNL     1      20.138  -2.265  -0.376  0.00  0.00    -0.019 C 
ATOM     36  C   UNL     1      20.654  -2.985  -1.626  0.00  0.00    -0.004 C 
ATOM     37  C   UNL     1      19.741  -4.175  -1.932  0.00  0.00    -0.019 C 
ATOM     38  C   UNL     1      18.303  -3.677  -2.102  0.00  0.00    -0.078 C 
ATOM     39  H   UNL     1      17.946  -3.668  -0.095  0.00  0.00    -0.081 HD
ENDBRANCH  30  33
ENDBRANCH  26  27
ENDBRANCH  25  26
ENDBRANCH  24  25
ENDBRANCH  22  24
ENDBRANCH   9  22
TORSDOF 8
