REMARK  Name = ZINC08826599
REMARK  6 active torsions:
REMARK  status: ('A' for Active; 'I' for Inactive)
REMARK    1  A    between atoms: C_1  and  C_2
REMARK    2  A    between atoms: C_2  and  N_51
REMARK    3  A    between atoms: C_5  and  C_6
REMARK    4  A    between atoms: C_16  and  C_24
REMARK    5  A    between atoms: C_18  and  C_22
REMARK    6  A    between atoms: C_19  and  N_21
REMARK                            x       y       z     vdW  Elec       q    Type
REMARK                         _______ _______ _______ _____ _____    ______ ____
ROOT
ATOM      1  C   UNL     1       1.091   1.970  -0.400  0.00  0.00    -0.039 C 
ATOM      2  C   UNL     1       1.116   3.483  -0.338  0.00  0.00    -0.021 C 
ATOM      3  C   UNL     1       2.063   4.192  -0.977  0.00  0.00    +0.014 C 
ATOM      4  C   UNL     1       0.062   4.152   0.452  0.00  0.00    +0.130 C 
ATOM      5  C   UNL     1      -0.979   3.445   0.896  0.00  0.00    -0.031 C 
ATOM      6  C   UNL     1      -1.097   1.967   0.627  0.00  0.00    -0.042 C 
ATOM      7  C   UNL     1      -2.070   4.115   1.697  0.00  0.00    +0.093 C 
ATOM      8  C   UNL     1      -2.016   5.605   1.513  0.00  0.00    +0.098 C 
ATOM      9  C   UNL     1      -0.898   6.203   1.030  0.00  0.00    +0.199 C 
ATOM     10  O   UNL     1       0.185   5.478   0.704  0.00  0.00    -0.441 OA
ATOM     11  N   UNL     1      -0.328   1.585  -0.569  0.00  0.00    +0.385 N 
ATOM     12  H   UNL     1      -0.713   2.076  -1.384  0.00  0.00    -0.081 HD
ENDROOT
BRANCH   3  13
ATOM     13  C   UNL     1       3.193   3.499  -1.621  0.00  0.00    -0.006 A 
ATOM     14  C   UNL     1       3.725   2.341  -1.048  0.00  0.00    +0.009 A 
ATOM     15  C   UNL     1       4.779   1.694  -1.659  0.00  0.00    +0.001 A 
ATOM     16  C   UNL     1       5.317   2.195  -2.832  0.00  0.00    +0.001 A 
ATOM     17  C   UNL     1       4.800   3.344  -3.403  0.00  0.00    +0.020 A 
ATOM     18  C   UNL     1       3.742   4.000  -2.806  0.00  0.00    +0.048 A 
ATOM     19 CL   UNL     1       3.094   5.441  -3.524  0.00  0.00    -0.083 Cl
ENDBRANCH   3  13
BRANCH   7  20
ATOM     20  C   UNL     1      -1.891   3.786   3.157  0.00  0.00    -0.017 A 
ATOM     21  C   UNL     1      -0.732   4.160   3.812  0.00  0.00    +0.006 A 
ATOM     22  C   UNL     1      -0.570   3.862   5.152  0.00  0.00    +0.000 A 
ATOM     23  C   UNL     1      -1.561   3.182   5.835  0.00  0.00    +0.001 A 
ATOM     24  C   UNL     1      -2.717   2.804   5.180  0.00  0.00    +0.020 A 
ATOM     25  C   UNL     1      -2.883   3.106   3.840  0.00  0.00    +0.045 A 
ATOM     26 CL   UNL     1      -4.335   2.630   3.015  0.00  0.00    -0.083 Cl
ENDBRANCH   7  20
BRANCH   9  27
ATOM     27  N   UNL     1      -0.874   7.567   0.874  0.00  0.00    -0.328 N 
ATOM     28  H   UNL     1      -0.077   8.001   0.529  0.00  0.00    +0.145 HD
ATOM     29  H   UNL     1      -1.652   8.096   1.107  0.00  0.00    +0.145 HD
ENDBRANCH   9  27
BRANCH  11  31
ATOM     30  C   UNL     1       0.033  -0.639   0.450  0.00  0.00    -0.017 C 
ATOM     31  C   UNL     1      -0.434   0.125  -0.791  0.00  0.00    -0.081 C 
ENDBRANCH  11  31
BRANCH   8  32
ATOM     32  C   UNL     1      -3.156   6.402   1.851  0.00  0.00    +0.101 C 
ATOM     33  N   UNL     1      -4.061   7.034   2.120  0.00  0.00    -0.191 NA
ENDBRANCH   8  32
TORSDOF 5
