REMARK  Name = ZINC40715672
REMARK  6 active torsions:
REMARK  status: ('A' for Active; 'I' for Inactive)
REMARK    1  A    between atoms: C_3  and  N_10
REMARK    2  A    between atoms: C_6  and  C_7
REMARK    3  A    between atoms: C_7  and  C_8
REMARK    4  A    between atoms: C_8  and  O_9
REMARK    5  A    between atoms: N_10  and  S_11
REMARK    6  A    between atoms: S_11  and  C_14
REMARK                            x       y       z     vdW  Elec       q    Type
REMARK                         _______ _______ _______ _____ _____    ______ ____
ROOT
ATOM      1  N   UNL     1       3.548   2.002  -0.018  0.00  0.00    -0.216 N 
ATOM      2  H   UNL     1       3.615   2.719  -0.667  0.00  0.00    +0.174 HD
ENDROOT
BRANCH   1   5
ATOM      3  C   UNL     1       0.032   0.934  -0.039  0.00  0.00    +0.005 A 
ATOM      4  C   UNL     1       1.148   1.746  -0.060  0.00  0.00    +0.025 A 
ATOM      5  C   UNL     1       2.417   1.183   0.004  0.00  0.00    +0.048 A 
ATOM      6  C   UNL     1       2.557  -0.197   0.089  0.00  0.00    +0.025 A 
ATOM      7  C   UNL     1       1.436  -1.003   0.109  0.00  0.00    +0.005 A 
ATOM      8  C   UNL     1       0.175  -0.439   0.046  0.00  0.00    -0.045 A 
BRANCH   8   9
ATOM      9  C   UNL     1      -1.046  -1.322   0.069  0.00  0.00    +0.063 C 
BRANCH   9  10
ATOM     10  C   UNL     1      -1.425  -1.706  -1.362  0.00  0.00    +0.160 C 
BRANCH  10  11
ATOM     11  O   UNL     1      -2.583  -2.544  -1.340  0.00  0.00    -0.395 OA
ATOM     12  H   UNL     1      -2.880  -2.827  -2.216  0.00  0.00    +0.209 HD
ENDBRANCH  10  11
ENDBRANCH   9  10
ENDBRANCH   8   9
ENDBRANCH   1   5
BRANCH   1  13
ATOM     13  S   UNL     1       4.775   1.747   1.064  0.00  0.00    +0.074 S 
ATOM     14  O   UNL     1       5.127   0.374   0.963  0.00  0.00    -0.150 OA
ATOM     15  O   UNL     1       5.718   2.791   0.863  0.00  0.00    -0.150 OA
BRANCH  13  16
ATOM     16  C   UNL     1       4.104   1.978   2.677  0.00  0.00    +0.135 A 
ATOM     17  C   UNL     1       4.044   0.923   3.570  0.00  0.00    +0.058 A 
ATOM     18  C   UNL     1       3.522   1.136   4.803  0.00  0.00    +0.081 A 
ATOM     19  S   UNL     1       3.094   2.868   4.730  0.00  0.00    -0.063 S 
ATOM     20  C   UNL     1       3.644   3.193   3.063  0.00  0.00    +0.106 A 
ATOM     21 CL   UNL     1       3.599   4.680   2.168  0.00  0.00    -0.074 Cl
ATOM     22 CL   UNL     1       3.322   0.015   6.114  0.00  0.00    -0.076 Cl
ENDBRANCH  13  16
ENDBRANCH   1  13
TORSDOF 6
