REMARK  Name = ZINC03843495
REMARK  12 active torsions:
REMARK  status: ('A' for Active; 'I' for Inactive)
REMARK    1  A    between atoms: C_1  and  C_2
REMARK    2  A    between atoms: C_3  and  O_25
REMARK    3  A    between atoms: C_4  and  C_12
REMARK    4  A    between atoms: C_6  and  C_9
REMARK    5  A    between atoms: C_7  and  O_8
REMARK    6  A    between atoms: C_9  and  C_11
REMARK    7  A    between atoms: C_12  and  C_13
REMARK    8  A    between atoms: C_15  and  C_22
REMARK    9  A    between atoms: C_16  and  O_21
REMARK   10  A    between atoms: C_17  and  C_20
REMARK   11  A    between atoms: C_18  and  O_19
REMARK   12  A    between atoms: C_22  and  C_24
REMARK                            x       y       z     vdW  Elec       q    Type
REMARK                         _______ _______ _______ _____ _____    ______ ____
ROOT
ATOM      1  C   UNL     1       5.119   3.317  -0.037  0.00  0.00    +0.077 C 
ENDROOT
BRANCH   1   5
ATOM      2  C   UNL     1       1.183   1.525   2.503  0.00  0.00    +0.051 C 
ATOM      3  C   UNL     1       1.857   1.831   1.190  0.00  0.00    +0.033 A 
ATOM      4  C   UNL     1       3.122   2.401   1.175  0.00  0.00    +0.127 A 
ATOM      5  C   UNL     1       3.747   2.692  -0.035  0.00  0.00    -0.000 A 
ATOM      6  C   UNL     1       3.126   2.416  -1.218  0.00  0.00    +0.022 A 
ATOM      7  C   UNL     1       1.851   1.835  -1.222  0.00  0.00    +0.059 A 
ATOM      8  C   UNL     1       1.216   1.540  -0.001  0.00  0.00    +0.134 A 
BRANCH   7   9
ATOM      9  C   UNL     1       1.181   1.537  -2.490  0.00  0.00    +0.164 C 
ATOM     10  O   UNL     1       0.122   0.946  -2.493  0.00  0.00    -0.292 OA
ATOM     11  C   UNL     1       1.809   1.964  -3.792  0.00  0.00    +0.092 C 
ENDBRANCH   7   9
BRANCH   8  12
ATOM     12  O   UNL     1      -0.018   0.978   0.007  0.00  0.00    -0.506 OA
ATOM     13  H   UNL     1      -0.010   0.011   0.005  0.00  0.00    +0.292 HD
ENDBRANCH   8  12
BRANCH   4  14
ATOM     14  O   UNL     1       3.750   2.681   2.344  0.00  0.00    -0.506 OA
ATOM     15  H   UNL     1       3.567   3.566   2.688  0.00  0.00    +0.292 HD
ENDBRANCH   4  14
ENDBRANCH   1   5
BRANCH   1  16
ATOM     16  C   UNL     1       6.163   2.236   0.079  0.00  0.00    -0.000 A 
ATOM     17  C   UNL     1       6.669   1.911   1.304  0.00  0.00    +0.022 A 
ATOM     18  C   UNL     1       7.640   0.907   1.417  0.00  0.00    +0.059 A 
ATOM     19  C   UNL     1       8.090   0.239   0.264  0.00  0.00    +0.134 A 
ATOM     20  C   UNL     1       7.567   0.580  -0.971  0.00  0.00    +0.033 A 
ATOM     21  C   UNL     1       6.602   1.573  -1.064  0.00  0.00    +0.127 A 
ATOM     22  C   UNL     1       8.041  -0.130  -2.213  0.00  0.00    +0.051 C 
BRANCH  18  23
ATOM     23  C   UNL     1       8.185   0.555   2.731  0.00  0.00    +0.164 C 
ATOM     24  O   UNL     1       9.025  -0.314   2.826  0.00  0.00    -0.292 OA
ATOM     25  C   UNL     1       7.700   1.273   3.964  0.00  0.00    +0.092 C 
ENDBRANCH  18  23
BRANCH  21  26
ATOM     26  O   UNL     1       6.087   1.902  -2.275  0.00  0.00    -0.506 OA
ATOM     27  H   UNL     1       6.573   2.601  -2.733  0.00  0.00    +0.292 HD
ENDBRANCH  21  26
BRANCH  19  28
ATOM     28  O   UNL     1       9.029  -0.735   0.362  0.00  0.00    -0.506 OA
ATOM     29  H   UNL     1       8.665  -1.621   0.492  0.00  0.00    +0.292 HD
ENDBRANCH  19  28
ENDBRANCH   1  16
TORSDOF 8
