REMARK  Name = ZINC08589506
REMARK  6 active torsions:
REMARK  status: ('A' for Active; 'I' for Inactive)
REMARK    1  A    between atoms: C_1  and  C_2
REMARK    2  A    between atoms: C_2  and  C_3
REMARK    3  A    between atoms: C_6  and  N_9
REMARK    4  A    between atoms: C_10  and  C_12
REMARK    5  A    between atoms: C_22  and  S_25
REMARK    6  A    between atoms: S_25  and  C_28
REMARK                            x       y       z     vdW  Elec       q    Type
REMARK                         _______ _______ _______ _____ _____    ______ ____
ROOT
ATOM      1  C   UNL     1       4.701  -2.318  -5.924  0.00  0.00    +0.039 A 
ATOM      2  C   UNL     1       3.968  -2.542  -7.095  0.00  0.00    +0.014 A 
ATOM      3  C   UNL     1       4.604  -2.884  -8.253  0.00  0.00    +0.014 A 
ATOM      4  C   UNL     1       5.993  -3.011  -8.273  0.00  0.00    +0.047 A 
ATOM      5  C   UNL     1       6.741  -2.789  -7.106  0.00  0.00    +0.054 A 
ATOM      6  C   UNL     1       6.087  -2.436  -5.930  0.00  0.00    +0.039 A 
ATOM      7  N   UNL     1       8.114  -2.919  -7.141  0.00  0.00    -0.320 N 
ATOM      8  H   UNL     1       8.626  -2.765  -6.332  0.00  0.00    +0.169 HD
ATOM      9  C   UNL     1       8.766  -3.259  -8.283  0.00  0.00    +0.278 A 
ATOM     10  O   UNL     1      10.112  -3.371  -8.258  0.00  0.00    -0.266 OA
ATOM     11  C   UNL     1       8.109  -3.490  -9.454  0.00  0.00    +0.204 A 
ATOM     12  C   UNL     1       6.709  -3.380  -9.511  0.00  0.00    +0.218 A 
ATOM     13  O   UNL     1       6.103  -3.583 -10.551  0.00  0.00    -0.285 OA
ENDROOT
BRANCH   1  15
ATOM     14  N   UNL     1       2.657  -1.833  -4.665  0.00  0.00    -0.282 N 
ATOM     15  C   UNL     1       4.000  -1.948  -4.675  0.00  0.00    +0.248 C 
ATOM     16  O   UNL     1       4.635  -1.748  -3.658  0.00  0.00    -0.270 OA
ATOM     17  H   UNL     1       2.144  -2.066  -5.455  0.00  0.00    +0.155 HD
BRANCH  14  21
ATOM     18  C   UNL     1       0.709  -0.473  -1.244  0.00  0.00    -0.048 A 
ATOM     19  C   UNL     1       0.099  -1.407  -2.060  0.00  0.00    +0.005 A 
ATOM     20  C   UNL     1       0.742  -1.860  -3.195  0.00  0.00    +0.023 A 
ATOM     21  C   UNL     1       2.003  -1.376  -3.517  0.00  0.00    +0.034 A 
ATOM     22  C   UNL     1       2.614  -0.437  -2.695  0.00  0.00    +0.023 A 
ATOM     23  C   UNL     1       1.963   0.015  -1.564  0.00  0.00    +0.005 A 
BRANCH  18  25
ATOM     24  C   UNL     1      -0.842   1.245  -0.354  0.00  0.00    +0.009 C 
ATOM     25  C   UNL     1       0.004   0.019  -0.006  0.00  0.00    +0.032 C 
ENDBRANCH  18  25
ENDBRANCH  14  21
ENDBRANCH   1  15
BRANCH  11  26
ATOM     26  S   UNL     1       9.016  -3.928 -10.900  0.00  0.00    +0.034 S 
ATOM     27  O   UNL     1       8.548  -3.084 -11.944  0.00  0.00    -0.164 OA
ATOM     28  O   UNL     1      10.384  -3.983 -10.520  0.00  0.00    -0.164 OA
BRANCH  26  29
ATOM     29  C   UNL     1       8.547  -5.570 -11.332  0.00  0.00    +0.094 A 
ATOM     30  C   UNL     1       9.242  -6.647 -10.813  0.00  0.00    +0.029 A 
ATOM     31  C   UNL     1       8.874  -7.935 -11.151  0.00  0.00    +0.022 A 
ATOM     32  C   UNL     1       7.810  -8.148 -12.010  0.00  0.00    +0.041 A 
ATOM     33  C   UNL     1       7.115  -7.071 -12.529  0.00  0.00    +0.022 A 
ATOM     34  C   UNL     1       7.480  -5.782 -12.186  0.00  0.00    +0.029 A 
ATOM     35 CL   UNL     1       7.348  -9.766 -12.436  0.00  0.00    -0.084 Cl
ENDBRANCH  26  29
ENDBRANCH  11  26
TORSDOF 5
