REMARK  Name = ZINC17221744
REMARK  6 active torsions:
REMARK  status: ('A' for Active; 'I' for Inactive)
REMARK    1  A    between atoms: C_1  and  C_2
REMARK    2  A    between atoms: C_7  and  C_9
REMARK    3  A    between atoms: C_9  and  C_10
REMARK    4  A    between atoms: C_19  and  C_21
REMARK    5  A    between atoms: C_24  and  O_28
REMARK    6  A    between atoms: C_26  and  O_27
REMARK                            x       y       z     vdW  Elec       q    Type
REMARK                         _______ _______ _______ _____ _____    ______ ____
ROOT
ATOM      1  C   UNL     1      -4.550   2.130  -1.756  0.00  0.00    +0.068 C 
ATOM      2  C   UNL     1      -3.863   3.408  -2.162  0.00  0.00    +0.067 A 
ATOM      3  C   UNL     1      -2.986   4.142  -1.375  0.00  0.00    +0.037 A 
ATOM      4  C   UNL     1      -2.576   5.244  -2.102  0.00  0.00    +0.166 A 
ATOM      5  N   UNL     1      -3.198   5.169  -3.318  0.00  0.00    -0.181 N 
ATOM      6  N   UNL     1      -3.993   4.013  -3.318  0.00  0.00    -0.167 NA
ATOM      7  C   UNL     1      -3.072   6.047  -4.333  0.00  0.00    +0.254 C 
ATOM      8  O   UNL     1      -2.351   7.013  -4.211  0.00  0.00    -0.270 OA
ATOM      9  N   UNL     1      -1.722   6.192  -1.649  0.00  0.00    -0.207 NA
ATOM     10  C   UNL     1      -1.477   6.364  -0.376  0.00  0.00    +0.154 C 
ATOM     11  S   UNL     1      -2.295   5.441   0.881  0.00  0.00    -0.078 S 
ATOM     12  C   UNL     1      -2.517   3.854   0.031  0.00  0.00    +0.123 C 
ATOM     13  N   UNL     1      -0.546   7.301  -0.005  0.00  0.00    -0.338 N 
ATOM     14  H   UNL     1      -0.323   7.463   1.060  0.00  0.00    +0.144 HD
ATOM     15  H   UNL     1      -0.022   7.889  -0.772  0.00  0.00    +0.144 HD
ENDROOT
BRANCH  12  16
ATOM     16  C   UNL     1      -1.207   3.111  -0.011  0.00  0.00    +0.012 A 
ATOM     17  C   UNL     1      -0.015   3.810   0.022  0.00  0.00    +0.012 A 
ATOM     18  C   UNL     1       1.188   3.131  -0.017  0.00  0.00    +0.046 A 
ATOM     19  C   UNL     1       1.202   1.745  -0.089  0.00  0.00    +0.120 A 
ATOM     20  C   UNL     1       0.008   1.042  -0.123  0.00  0.00    +0.091 A 
ATOM     21  C   UNL     1      -1.198   1.726  -0.090  0.00  0.00    +0.125 A 
BRANCH  21  22
ATOM     22  O   UNL     1      -2.370   1.039  -0.128  0.00  0.00    -0.506 OA
ATOM     23  H   UNL     1      -2.363  -0.059  -0.191  0.00  0.00    +0.292 HD
ENDBRANCH  21  22
BRANCH  19  24
ATOM     24  O   UNL     1       2.385   1.078  -0.128  0.00  0.00    -0.507 OA
ATOM     25  H   UNL     1       2.396  -0.021  -0.185  0.00  0.00    +0.292 HD
ENDBRANCH  19  24
ENDBRANCH  12  16
BRANCH   7  26
ATOM     26  C   UNL     1      -3.827   5.827  -5.618  0.00  0.00    +0.135 C 
BRANCH  26  27
ATOM     27  C   UNL     1      -3.513   6.942  -6.582  0.00  0.00    -0.038 A 
ATOM     28  C   UNL     1      -4.293   8.084  -6.595  0.00  0.00    +0.004 A 
ATOM     29  C   UNL     1      -4.003   9.109  -7.476  0.00  0.00    +0.000 A 
ATOM     30  C   UNL     1      -2.938   8.989  -8.350  0.00  0.00    +0.000 A 
ATOM     31  C   UNL     1      -2.162   7.845  -8.340  0.00  0.00    +0.000 A 
ATOM     32  C   UNL     1      -2.449   6.822  -7.456  0.00  0.00    +0.004 A 
ENDBRANCH  26  27
ENDBRANCH   7  26
TORSDOF 5
