REMARK  Name = ZINC43218688
REMARK  7 active torsions:
REMARK  status: ('A' for Active; 'I' for Inactive)
REMARK    1  A    between atoms: C_1  and  O_2
REMARK    2  A    between atoms: O_2  and  C_3
REMARK    3  A    between atoms: C_8  and  C_9
REMARK    4  A    between atoms: N_17  and  C_20
REMARK    5  A    between atoms: C_26  and  C_28
REMARK    6  A    between atoms: C_26  and  C_39
REMARK    7  A    between atoms: C_28  and  C_29
REMARK                            x       y       z     vdW  Elec       q    Type
REMARK                         _______ _______ _______ _____ _____    ______ ____
ROOT
ATOM      1  C   UNL     1       0.052  -2.828   0.005  0.00  0.00    -0.023 C 
ATOM      2  C   UNL     1       0.990  -2.945  -1.192  0.00  0.00    +0.077 C 
ATOM      3  C   UNL     1       0.294  -4.187  -1.866  0.00  0.00    +0.086 C 
ATOM      4  C   UNL     1       0.826  -4.137  -3.207  0.00  0.00    +0.225 C 
ATOM      5  O   UNL     1       1.078  -5.072  -3.937  0.00  0.00    -0.275 OA
ATOM      6  N   UNL     1       0.983  -2.800  -3.476  0.00  0.00    -0.239 N 
ATOM      7  C   UNL     1       0.882  -2.006  -2.352  0.00  0.00    +0.225 C 
ATOM      8  O   UNL     1       0.730  -0.805  -2.306  0.00  0.00    -0.275 OA
ATOM      9  C   UNL     1       0.129  -5.132  -0.755  0.00  0.00    +0.052 C 
ATOM     10  N   UNL     1      -0.118  -4.251   0.447  0.00  0.00    +0.396 N 
ATOM     11  H   UNL     1       0.556  -4.469   1.166  0.00  0.00    -0.083 HD
ATOM     12  H   UNL     1      -1.054  -4.390   0.800  0.00  0.00    -0.083 HD
ENDROOT
BRANCH   1  18
ATOM     13  C   UNL     1       0.418  -0.644   1.181  0.00  0.00    +0.122 A 
ATOM     14  C   UNL     1       0.996   0.112   2.191  0.00  0.00    +0.046 A 
ATOM     15  C   UNL     1       1.836  -0.489   3.107  0.00  0.00    +0.004 A 
ATOM     16  C   UNL     1       2.102  -1.843   3.019  0.00  0.00    +0.000 A 
ATOM     17  C   UNL     1       1.528  -2.599   2.014  0.00  0.00    +0.005 A 
ATOM     18  C   UNL     1       0.682  -2.003   1.097  0.00  0.00    -0.019 A 
BRANCH  13  20
ATOM     19  C   UNL     1      -0.635   1.349   0.424  0.00  0.00    +0.277 C 
ATOM     20  O   UNL     1      -0.409  -0.055   0.278  0.00  0.00    -0.495 OA
ENDBRANCH  13  20
ENDBRANCH   1  18
BRANCH   6  21
ATOM     21  C   UNL     1       1.246  -2.268  -4.816  0.00  0.00    +0.084 C 
ATOM     22  C   UNL     1       2.580  -1.518  -4.814  0.00  0.00    +0.023 C 
ATOM     23  C   UNL     1       2.855  -0.962  -6.212  0.00  0.00    +0.002 C 
ATOM     24  C   UNL     1       1.731  -0.003  -6.610  0.00  0.00    +0.000 C 
ATOM     25  C   UNL     1       0.397  -0.753  -6.612  0.00  0.00    +0.002 C 
ATOM     26  C   UNL     1       0.122  -1.309  -5.213  0.00  0.00    +0.023 C 
ENDBRANCH   6  21
BRANCH   9  27
ATOM     27  C   UNL     1       1.375  -5.962  -0.582  0.00  0.00    +0.347 C 
ATOM     28  O   UNL     1       1.988  -5.929   0.471  0.00  0.00    -0.248 OA
ATOM     29  O   UNL     1       1.770  -6.667  -1.496  0.00  0.00    -0.248 OA
ENDBRANCH   9  27
BRANCH   9  30
ATOM     30  C   UNL     1      -1.084  -6.032  -0.996  0.00  0.00    +0.037 C 
BRANCH  30  31
ATOM     31  C   UNL     1      -1.307  -6.909   0.210  0.00  0.00    -0.023 A 
ATOM     32  C   UNL     1      -0.853  -8.160   0.382  0.00  0.00    +0.087 A 
ATOM     33  N   UNL     1      -1.253  -8.638   1.600  0.00  0.00    -0.360 N 
ATOM     34  H   UNL     1      -1.046  -9.520   1.948  0.00  0.00    +0.165 HD
ATOM     35  C   UNL     1      -1.993  -7.682   2.258  0.00  0.00    +0.047 A 
ATOM     36  C   UNL     1      -2.054  -6.554   1.419  0.00  0.00    +0.003 A 
ATOM     37  C   UNL     1      -2.744  -5.413   1.833  0.00  0.00    +0.010 A 
ATOM     38  C   UNL     1      -3.354  -5.397   3.056  0.00  0.00    +0.001 A 
ATOM     39  C   UNL     1      -3.294  -6.505   3.889  0.00  0.00    +0.002 A 
ATOM     40  C   UNL     1      -2.627  -7.645   3.496  0.00  0.00    +0.026 A 
ENDBRANCH  30  31
ENDBRANCH   9  30
TORSDOF 6
