REMARK  Name = ZINC09324068
REMARK  8 active torsions:
REMARK  status: ('A' for Active; 'I' for Inactive)
REMARK    1  A    between atoms: C_1  and  C_2
REMARK    2  A    between atoms: C_4  and  C_29
REMARK    3  A    between atoms: C_5  and  N_9
REMARK    4  A    between atoms: C_6  and  C_8
REMARK    5  A    between atoms: C_10  and  C_12
REMARK    6  A    between atoms: C_12  and  S_13
REMARK    7  A    between atoms: S_13  and  C_14
REMARK    8  A    between atoms: N_22  and  C_23
REMARK                            x       y       z     vdW  Elec       q    Type
REMARK                         _______ _______ _______ _____ _____    ______ ____
ROOT
ATOM      1  C   UNL     1      -7.556   1.065  -0.776  0.00  0.00    +0.160 A 
ATOM      2  N   UNL     1      -7.546  -0.224  -1.060  0.00  0.00    -0.133 NA
ATOM      3  N   UNL     1      -8.732  -0.881  -1.295  0.00  0.00    -0.125 NA
ATOM      4  C   UNL     1      -9.871  -0.221  -1.237  0.00  0.00    +0.190 A 
ATOM      5  S   UNL     1      -9.305   1.423  -0.825  0.00  0.00    -0.024 S 
ATOM      6  N   UNL     1     -11.170  -0.682  -1.439  0.00  0.00    -0.247 N 
ATOM      7  C   UNL     1     -11.385  -1.978  -1.741  0.00  0.00    +0.306 C 
ATOM      8  O   UNL     1     -10.445  -2.744  -1.838  0.00  0.00    -0.252 OA
ATOM      9  N   UNL     1     -12.642  -2.425  -1.936  0.00  0.00    -0.296 N 
ATOM     10  H   UNL     1     -11.919  -0.072  -1.361  0.00  0.00    +0.158 HD
ATOM     11  H   UNL     1     -13.391  -1.814  -1.859  0.00  0.00    +0.151 HD
ENDROOT
BRANCH   9  12
ATOM     12  C   UNL     1     -12.876  -3.833  -2.265  0.00  0.00    +0.074 C 
ATOM     13  C   UNL     1     -12.726  -4.036  -3.774  0.00  0.00    +0.022 C 
ATOM     14  C   UNL     1     -12.970  -5.507  -4.117  0.00  0.00    +0.002 C 
ATOM     15  C   UNL     1     -14.384  -5.903  -3.687  0.00  0.00    +0.000 C 
ATOM     16  C   UNL     1     -14.534  -5.700  -2.178  0.00  0.00    +0.002 C 
ATOM     17  C   UNL     1     -14.289  -4.229  -1.835  0.00  0.00    +0.022 C 
ENDBRANCH   9  12
BRANCH   1  18
ATOM     18  S   UNL     1      -6.205   2.144  -0.435  0.00  0.00    -0.088 S 
BRANCH  18  19
ATOM     19  C   UNL     1      -4.746   1.073  -0.559  0.00  0.00    +0.172 C 
BRANCH  19  21
ATOM     20  N   UNL     1      -2.294   1.291  -0.322  0.00  0.00    -0.284 N 
ATOM     21  C   UNL     1      -3.504   1.882  -0.285  0.00  0.00    +0.227 C 
ATOM     22  O   UNL     1      -3.595   3.064  -0.031  0.00  0.00    -0.275 OA
ATOM     23  H   UNL     1      -2.226   0.331  -0.445  0.00  0.00    +0.155 HD
BRANCH  20  28
ATOM     24  C   UNL     1       2.413   4.408   0.244  0.00  0.00    +0.044 C 
ATOM     25  C   UNL     1       1.161   3.583   0.092  0.00  0.00    -0.050 A 
ATOM     26  C   UNL     1       0.190   3.615   1.076  0.00  0.00    +0.008 A 
ATOM     27  C   UNL     1      -0.958   2.859   0.940  0.00  0.00    -0.029 A 
ATOM     28  C   UNL     1      -1.134   2.062  -0.184  0.00  0.00    +0.039 A 
ATOM     29  C   UNL     1      -0.160   2.038  -1.173  0.00  0.00    -0.029 A 
ATOM     30  C   UNL     1       0.986   2.795  -1.031  0.00  0.00    +0.008 A 
ATOM     31  C   UNL     1      -0.350   1.180  -2.398  0.00  0.00    +0.045 C 
ATOM     32  C   UNL     1      -2.016   2.893   2.013  0.00  0.00    +0.045 C 
ENDBRANCH  20  28
ENDBRANCH  19  21
ENDBRANCH  18  19
ENDBRANCH   1  18
TORSDOF 5
