REMARK  Name = ZINC35741569
REMARK  5 active torsions:
REMARK  status: ('A' for Active; 'I' for Inactive)
REMARK    1  A    between atoms: C_1  and  C_2
REMARK    2  A    between atoms: C_2  and  C_4
REMARK    3  A    between atoms: C_2  and  N_20
REMARK    4  A    between atoms: N_9  and  C_10
REMARK    5  A    between atoms: C_26  and  C_28
REMARK                            x       y       z     vdW  Elec       q    Type
REMARK                         _______ _______ _______ _____ _____    ______ ____
ROOT
ATOM      1  C   UNL     1       0.731  -0.503   1.223  0.00  0.00    +0.237 C 
ATOM      2  O   UNL     1       1.725  -1.186   1.099  0.00  0.00    -0.274 OA
ATOM      3  N   UNL     1       0.278  -0.191   2.453  0.00  0.00    -0.239 N 
ATOM      4  C   UNL     1       0.930  -0.637   3.545  0.00  0.00    +0.306 C 
ATOM      5  O   UNL     1       1.926  -1.322   3.420  0.00  0.00    -0.252 OA
ATOM      6  N   UNL     1       0.476  -0.324   4.775  0.00  0.00    -0.294 N 
ATOM      7  H   UNL     1      -0.517   0.356   2.553  0.00  0.00    +0.159 HD
ATOM      8  H   UNL     1      -0.319   0.222   4.875  0.00  0.00    +0.151 HD
ENDROOT
BRANCH   6   9
ATOM      9  C   UNL     1       1.185  -0.810   5.962  0.00  0.00    +0.037 C 
ATOM     10  C   UNL     1       1.206  -2.340   5.954  0.00  0.00    +0.029 C 
ATOM     11  C   UNL     1       1.946  -2.846   7.193  0.00  0.00    -0.008 C 
ATOM     12  C   UNL     1       1.230  -2.353   8.452  0.00  0.00    +0.007 C 
ATOM     13  C   UNL     1       1.209  -0.823   8.460  0.00  0.00    -0.008 C 
ATOM     14  C   UNL     1       0.469  -0.316   7.221  0.00  0.00    +0.029 C 
ATOM     15  C   UNL     1       2.644  -0.293   8.450  0.00  0.00    +0.007 C 
ATOM     16  C   UNL     1       3.361  -0.787   7.191  0.00  0.00    -0.008 C 
ATOM     17  C   UNL     1       3.381  -2.317   7.182  0.00  0.00    +0.007 C 
ATOM     18  C   UNL     1       2.620  -0.280   5.951  0.00  0.00    +0.029 C 
ENDBRANCH   6   9
BRANCH   1  20
ATOM     19  C   UNL     1      -0.019   1.526   0.010  0.00  0.00    +0.034 C 
ATOM     20  C   UNL     1       0.002  -0.004   0.002  0.00  0.00    +0.140 C 
BRANCH  20  21
ATOM     21  N   UNL     1       0.690  -0.478  -1.207  0.00  0.00    -0.289 NA
ATOM     22  C   UNL     1       2.069   0.026  -1.259  0.00  0.00    +0.104 C 
ATOM     23  C   UNL     1       2.805  -0.632  -2.431  0.00  0.00    +0.123 C 
ATOM     24  N   UNL     1       2.018  -0.420  -3.656  0.00  0.00    -0.299 N 
ATOM     25  C   UNL     1       0.590  -0.774  -3.635  0.00  0.00    +0.123 C 
ATOM     26  C   UNL     1      -0.059  -0.110  -2.416  0.00  0.00    +0.104 C 
ATOM     27  C   UNL     1       2.590   0.085  -4.767  0.00  0.00    +0.213 C 
ATOM     28  O   UNL     1       3.768   0.371  -4.766  0.00  0.00    -0.276 OA
ATOM     29  C   UNL     1       1.765   0.294  -6.010  0.00  0.00    +0.109 C 
ENDBRANCH  20  21
ENDBRANCH   1  20
TORSDOF 3
