REMARK  Name = ZINC33599079
REMARK  8 active torsions:
REMARK  status: ('A' for Active; 'I' for Inactive)
REMARK    1  A    between atoms: C_1  and  C_2
REMARK    2  A    between atoms: C_7  and  C_8
REMARK    3  A    between atoms: N_16  and  C_19
REMARK    4  A    between atoms: C_23  and  N_25
REMARK    5  A    between atoms: C_28  and  C_30
REMARK    6  A    between atoms: C_28  and  C_38
REMARK    7  A    between atoms: C_30  and  C_31
REMARK    8  A    between atoms: C_34  and  O_37
REMARK                            x       y       z     vdW  Elec       q    Type
REMARK                         _______ _______ _______ _____ _____    ______ ____
ROOT
ATOM      1  C   UNL     1       0.058  -0.146   2.604  0.00  0.00    -0.026 C 
ATOM      2  C   UNL     1      -1.355  -0.037   3.169  0.00  0.00    +0.077 C 
ATOM      3  C   UNL     1      -0.947   0.184   4.675  0.00  0.00    +0.086 C 
ATOM      4  C   UNL     1      -2.165   0.712   5.240  0.00  0.00    +0.229 C 
ATOM      5  O   UNL     1      -2.592   0.542   6.362  0.00  0.00    -0.275 OA
ATOM      6  N   UNL     1      -2.734   1.448   4.231  0.00  0.00    -0.210 N 
ATOM      7  C   UNL     1      -2.160   1.212   2.999  0.00  0.00    +0.229 C 
ATOM      8  O   UNL     1      -2.273   1.875   1.991  0.00  0.00    -0.275 OA
ATOM      9  C   UNL     1       0.043  -0.872   4.920  0.00  0.00    +0.052 C 
ATOM     10  N   UNL     1       0.758  -1.024   3.598  0.00  0.00    +0.396 N 
ATOM     11  H   UNL     1       0.708  -1.987   3.299  0.00  0.00    -0.083 HD
ATOM     12  H   UNL     1       1.723  -0.741   3.684  0.00  0.00    -0.083 HD
ENDROOT
BRANCH   1  19
ATOM     13  C   UNL     1       2.463  -0.220   1.005  0.00  0.00    +0.044 C 
ATOM     14  C   UNL     1       1.189  -0.828   0.478  0.00  0.00    -0.049 A 
ATOM     15  C   UNL     1       1.173  -1.426  -0.768  0.00  0.00    +0.003 A 
ATOM     16  C   UNL     1       0.004  -1.984  -1.252  0.00  0.00    +0.000 A 
ATOM     17  C   UNL     1      -1.148  -1.945  -0.489  0.00  0.00    +0.000 A 
ATOM     18  C   UNL     1      -1.131  -1.347   0.757  0.00  0.00    +0.002 A 
ATOM     19  C   UNL     1       0.038  -0.793   1.243  0.00  0.00    -0.058 A 
ENDBRANCH   1  19
BRANCH   6  20
ATOM     20  C   UNL     1      -3.799   2.340   4.427  0.00  0.00    +0.046 A 
ATOM     21  C   UNL     1      -4.332   2.520   5.696  0.00  0.00    +0.024 A 
ATOM     22  C   UNL     1      -5.380   3.398   5.885  0.00  0.00    +0.004 A 
ATOM     23  C   UNL     1      -5.900   4.098   4.812  0.00  0.00    +0.033 A 
ATOM     24  C   UNL     1      -5.372   3.920   3.546  0.00  0.00    +0.128 A 
ATOM     25  C   UNL     1      -4.319   3.048   3.352  0.00  0.00    +0.056 A 
BRANCH  24  26
ATOM     26  N   UNL     1      -5.931   4.671   2.400  0.00  0.00    +0.056 N 
ATOM     27  O   UNL     1      -6.850   5.439   2.570  0.00  0.00    -0.126 OA
ATOM     28  O   UNL     1      -5.470   4.516   1.293  0.00  0.00    -0.126 OA
ENDBRANCH  24  26
ENDBRANCH   6  20
BRANCH   9  29
ATOM     29  C   UNL     1      -0.643  -2.151   5.325  0.00  0.00    +0.347 C 
ATOM     30  O   UNL     1      -0.501  -3.158   4.653  0.00  0.00    -0.248 OA
ATOM     31  O   UNL     1      -1.339  -2.179   6.326  0.00  0.00    -0.248 OA
ENDBRANCH   9  29
BRANCH   9  32
ATOM     32  C   UNL     1       1.036  -0.433   5.998  0.00  0.00    +0.035 C 
BRANCH  32  33
ATOM     33  C   UNL     1       2.112  -1.478   6.146  0.00  0.00    -0.048 A 
ATOM     34  C   UNL     1       1.946  -2.518   7.042  0.00  0.00    +0.007 A 
ATOM     35  C   UNL     1       2.930  -3.477   7.179  0.00  0.00    +0.045 A 
ATOM     36  C   UNL     1       4.087  -3.396   6.418  0.00  0.00    +0.117 A 
ATOM     37  C   UNL     1       4.251  -2.352   5.519  0.00  0.00    +0.045 A 
ATOM     38  C   UNL     1       3.261  -1.398   5.381  0.00  0.00    +0.007 A 
BRANCH  36  39
ATOM     39  O   UNL     1       5.058  -4.338   6.551  0.00  0.00    -0.507 OA
ATOM     40  H   UNL     1       4.956  -5.094   5.958  0.00  0.00    +0.292 HD
ENDBRANCH  36  39
ENDBRANCH  32  33
ENDBRANCH   9  32
TORSDOF 7
