REMARK  Name = ZINC63372882
REMARK  9 active torsions:
REMARK  status: ('A' for Active; 'I' for Inactive)
REMARK    1  A    between atoms: C_1  and  C_2
REMARK    2  A    between atoms: C_2  and  C_3
REMARK    3  A    between atoms: C_2  and  C_4
REMARK    4  A    between atoms: C_4  and  C_6
REMARK    5  A    between atoms: C_4  and  N_18
REMARK    6  A    between atoms: N_8  and  C_9
REMARK    7  A    between atoms: C_9  and  C_10
REMARK    8  A    between atoms: C_10  and  C_11
REMARK    9  A    between atoms: C_21  and  C_37
REMARK                            x       y       z     vdW  Elec       q    Type
REMARK                         _______ _______ _______ _____ _____    ______ ____
ROOT
ATOM      1  N   UNL     1      -2.417   0.264   0.834  0.00  0.00    -0.212 N 
ATOM      2  C   UNL     1      -2.365   0.190   2.179  0.00  0.00    +0.249 C 
ATOM      3  O   UNL     1      -1.578  -0.446   2.847  0.00  0.00    -0.273 OA
ATOM      4  C   UNL     1      -3.492   1.065   2.683  0.00  0.00    +0.136 C 
ATOM      5  C   UNL     1      -4.500   0.223   3.474  0.00  0.00    +0.139 C 
ATOM      6  C   UNL     1      -5.811   0.998   3.466  0.00  0.00    -0.034 C 
ATOM      7  C   UNL     1      -6.139   1.191   4.740  0.00  0.00    -0.001 A 
ATOM      8  C   UNL     1      -7.317   1.819   5.361  0.00  0.00    +0.010 A 
ATOM      9  C   UNL     1      -7.327   1.858   6.720  0.00  0.00    +0.001 A 
ATOM     10  C   UNL     1      -6.298   1.342   7.513  0.00  0.00    +0.002 A 
ATOM     11  C   UNL     1      -5.181   0.744   7.026  0.00  0.00    +0.026 A 
ATOM     12  C   UNL     1      -5.056   0.640   5.609  0.00  0.00    +0.043 A 
ATOM     13  N   UNL     1      -4.107   0.102   4.881  0.00  0.00    -0.375 N 
ATOM     14  C   UNL     1      -6.487   1.469   2.201  0.00  0.00    +0.052 C 
ATOM     15  C   UNL     1      -5.431   2.237   1.381  0.00  0.00    +0.115 C 
ATOM     16  N   UNL     1      -4.172   1.489   1.438  0.00  0.00    -0.269 N 
ATOM     17  C   UNL     1      -3.432   1.034   0.419  0.00  0.00    +0.313 C 
ATOM     18  O   UNL     1      -3.657   1.287  -0.748  0.00  0.00    -0.252 OA
ATOM     19  C   UNL     1      -2.973   2.257   3.489  0.00  0.00    +0.044 C 
ATOM     20  H   UNL     1      -3.288  -0.301   5.208  0.00  0.00    +0.160 HD
ENDROOT
BRANCH   1  21
ATOM     21  C   UNL     1      -1.476  -0.410  -0.065  0.00  0.00    +0.174 C 
BRANCH  21  22
ATOM     22  C   UNL     1      -1.641  -1.903   0.062  0.00  0.00    +0.234 C 
ATOM     23  O   UNL     1      -2.188  -2.372   1.037  0.00  0.00    -0.274 OA
ATOM     24  N   UNL     1      -1.182  -2.716  -0.909  0.00  0.00    -0.313 N 
ATOM     25  H   UNL     1      -0.677  -2.349  -1.651  0.00  0.00    +0.149 HD
BRANCH  24  26
ATOM     26  C   UNL     1      -1.445  -4.156  -0.844  0.00  0.00    +0.109 C 
BRANCH  26  27
ATOM     27  C   UNL     1      -0.819  -4.844  -2.059  0.00  0.00    +0.054 C 
BRANCH  27  28
ATOM     28  C   UNL     1      -1.089  -6.325  -1.992  0.00  0.00    -0.046 A 
ATOM     29  C   UNL     1      -0.200  -7.162  -1.343  0.00  0.00    +0.005 A 
ATOM     30  C   UNL     1      -0.448  -8.520  -1.281  0.00  0.00    +0.020 A 
ATOM     31  C   UNL     1      -1.586  -9.043  -1.869  0.00  0.00    +0.041 A 
ATOM     32  C   UNL     1      -2.475  -8.205  -2.518  0.00  0.00    +0.020 A 
ATOM     33  C   UNL     1      -2.229  -6.846  -2.574  0.00  0.00    +0.005 A 
ATOM     34 CL   UNL     1      -1.897 -10.749  -1.792  0.00  0.00    -0.084 Cl
ENDBRANCH  27  28
ENDBRANCH  26  27
ENDBRANCH  24  26
ENDBRANCH  21  22
BRANCH  21  36
ATOM     35  C   UNL     1       0.932  -0.638  -0.691  0.00  0.00    +0.009 C 
ATOM     36  C   UNL     1      -0.044  -0.022   0.313  0.00  0.00    +0.013 C 
ATOM     37  C   UNL     1       0.094   1.501   0.289  0.00  0.00    +0.009 C 
ENDBRANCH  21  36
ENDBRANCH   1  21
TORSDOF 6
