REMARK  Name = ZINC47873500
REMARK  4 active torsions:
REMARK  status: ('A' for Active; 'I' for Inactive)
REMARK    1  A    between atoms: C_1  and  C_2
REMARK    2  A    between atoms: C_2  and  C_3
REMARK    3  A    between atoms: C_9  and  N_11
REMARK    4  A    between atoms: N_16  and  C_21
REMARK                            x       y       z     vdW  Elec       q    Type
REMARK                         _______ _______ _______ _____ _____    ______ ____
ROOT
ATOM      1  N   UNL     1      -0.692  -2.627  -1.011  0.00  0.00    -0.325 N 
ATOM      2  C   UNL     1      -0.093  -3.867  -0.902  0.00  0.00    +0.133 A 
ATOM      3  C   UNL     1       0.610  -4.427  -1.987  0.00  0.00    +0.078 A 
ATOM      4  C   UNL     1       0.897  -4.010  -3.304  0.00  0.00    +0.148 A 
ATOM      5  N   UNL     1       1.600  -4.940  -3.887  0.00  0.00    -0.177 NA
ATOM      6  N   UNL     1       1.808  -6.001  -2.997  0.00  0.00    -0.249 N 
ATOM      7  C   UNL     1       1.200  -5.694  -1.816  0.00  0.00    +0.163 A 
ATOM      8  N   UNL     1       1.070  -6.311  -0.642  0.00  0.00    -0.216 NA
ATOM      9  C   UNL     1       0.404  -5.747   0.341  0.00  0.00    +0.225 A 
ATOM     10  N   UNL     1      -0.161  -4.558   0.230  0.00  0.00    -0.220 NA
ATOM     11  C   UNL     1       2.552  -7.230  -3.285  0.00  0.00    +0.174 C 
ATOM     12  H   UNL     1      -0.635  -2.133  -1.844  0.00  0.00    +0.148 HD
ENDROOT
BRANCH   1  18
ATOM     13  C   UNL     1      -1.433  -0.534   0.013  0.00  0.00    +0.009 C 
ATOM     14  C   UNL     1      -2.135  -0.131  -1.286  0.00  0.00    +0.005 C 
ATOM     15  C   UNL     1      -3.571  -0.661  -1.275  0.00  0.00    +0.000 C 
ATOM     16  C   UNL     1      -3.551  -2.186  -1.157  0.00  0.00    +0.002 C 
ATOM     17  C   UNL     1      -2.849  -2.589   0.141  0.00  0.00    +0.022 C 
ATOM     18  C   UNL     1      -1.413  -2.059   0.130  0.00  0.00    +0.075 C 
BRANCH  13  20
ATOM     19  C   UNL     1      -0.019   1.526   0.010  0.00  0.00    +0.004 C 
ATOM     20  C   UNL     1       0.002  -0.004   0.002  0.00  0.00    +0.002 C 
ENDBRANCH  13  20
ENDBRANCH   1  18
TORSDOF 2
