REMARK  Name = ZINC29192262
REMARK  7 active torsions:
REMARK  status: ('A' for Active; 'I' for Inactive)
REMARK    1  A    between atoms: C_1  and  C_2
REMARK    2  A    between atoms: C_15  and  C_17
REMARK    3  A    between atoms: C_17  and  C_19
REMARK    4  A    between atoms: C_17  and  N_20
REMARK    5  A    between atoms: C_23  and  C_26
REMARK    6  A    between atoms: N_28  and  C_29
REMARK    7  A    between atoms: C_29  and  C_30
REMARK                            x       y       z     vdW  Elec       q    Type
REMARK                         _______ _______ _______ _____ _____    ______ ____
ROOT
ATOM      1  C   UNL     1       0.969  -5.593  -3.610  0.00  0.00    -0.004 C 
ATOM      2  C   UNL     1       0.692  -4.223  -2.986  0.00  0.00    -0.005 C 
ENDROOT
BRANCH   1  16
ATOM      3  C   UNL     1       5.377 -11.921   2.689  0.00  0.00    +0.008 C 
ATOM      4  C   UNL     1       4.426 -11.180   1.746  0.00  0.00    -0.009 C 
ATOM      5  C   UNL     1       3.747 -10.032   2.499  0.00  0.00    +0.008 C 
ATOM      6  C   UNL     1       2.620  -9.447   1.647  0.00  0.00    +0.037 C 
ATOM      7  C   UNL     1       3.176  -9.089   0.271  0.00  0.00    -0.023 A 
ATOM      8  C   UNL     1       4.340  -9.629  -0.162  0.00  0.00    -0.004 A 
ATOM      9  S   UNL     1       4.595  -8.945  -1.781  0.00  0.00    -0.073 S 
ATOM     10  C   UNL     1       3.146  -7.942  -1.873  0.00  0.00    +0.116 A 
ATOM     11  C   UNL     1       2.507  -8.172  -0.634  0.00  0.00    +0.075 A 
ATOM     12  C   UNL     1       1.271  -7.481  -0.400  0.00  0.00    +0.260 A 
ATOM     13  O   UNL     1       0.641  -7.611   0.636  0.00  0.00    -0.267 OA
ATOM     14  N   UNL     1       0.849  -6.675  -1.403  0.00  0.00    -0.312 N 
ATOM     15  H   UNL     1      -0.089  -6.111  -1.298  0.00  0.00    +0.170 HD
ATOM     16  C   UNL     1       1.534  -6.517  -2.561  0.00  0.00    +0.097 A 
ATOM     17  N   UNL     1       2.668  -7.132  -2.813  0.00  0.00    -0.228 NA
ATOM     18  C   UNL     1       5.219 -10.595   0.569  0.00  0.00    +0.046 C 
ENDBRANCH   1  16
BRANCH   1  19
ATOM     19  N   UNL     1       1.937  -5.446  -4.705  0.00  0.00    +0.386 N 
ATOM     20  C   UNL     1       3.217  -4.923  -4.210  0.00  0.00    -0.077 C 
ATOM     21  C   UNL     1       4.148  -4.646  -5.393  0.00  0.00    -0.006 C 
ATOM     22  C   UNL     1       4.373  -5.944  -6.174  0.00  0.00    +0.071 C 
ATOM     23  C   UNL     1       3.021  -6.493  -6.636  0.00  0.00    -0.006 C 
ATOM     24  C   UNL     1       2.122  -6.716  -5.418  0.00  0.00    -0.077 C 
ATOM     25  H   UNL     1       1.531  -4.716  -5.421  0.00  0.00    -0.081 HD
BRANCH  22  26
ATOM     26  C   UNL     1       5.241  -5.665  -7.374  0.00  0.00    +0.216 C 
ATOM     27  O   UNL     1       4.820  -5.884  -8.490  0.00  0.00    -0.276 OA
ATOM     28  N   UNL     1       6.484  -5.173  -7.207  0.00  0.00    -0.311 N 
ATOM     29  H   UNL     1       6.865  -4.974  -6.194  0.00  0.00    +0.149 HD
BRANCH  28  30
ATOM     30  C   UNL     1       7.328  -4.902  -8.373  0.00  0.00    +0.139 C 
BRANCH  30  31
ATOM     31  C   UNL     1       8.658  -4.362  -7.917  0.00  0.00    -0.030 A 
ATOM     32  C   UNL     1       8.836  -2.999  -7.768  0.00  0.00    +0.005 A 
ATOM     33  C   UNL     1      10.055  -2.504  -7.344  0.00  0.00    +0.000 A 
ATOM     34  C   UNL     1      11.099  -3.370  -7.079  0.00  0.00    +0.000 A 
ATOM     35  C   UNL     1      10.923  -4.732  -7.234  0.00  0.00    +0.000 A 
ATOM     36  C   UNL     1       9.702  -5.228  -7.652  0.00  0.00    +0.005 A 
ENDBRANCH  30  31
ENDBRANCH  28  30
ENDBRANCH  22  26
ENDBRANCH   1  19
TORSDOF 5
