REMARK  Name = ZINC39673322
REMARK  6 active torsions:
REMARK  status: ('A' for Active; 'I' for Inactive)
REMARK    1  A    between atoms: C_5  and  C_7
REMARK    2  A    between atoms: C_11  and  C_20
REMARK    3  A    between atoms: N_22  and  C_23
REMARK    4  A    between atoms: C_23  and  C_24
REMARK    5  A    between atoms: C_27  and  O_30
REMARK    6  A    between atoms: O_30  and  C_31
REMARK                            x       y       z     vdW  Elec       q    Type
REMARK                         _______ _______ _______ _____ _____    ______ ____
ROOT
ATOM      1  C   UNL     1       1.234  -2.303  -0.057  0.00  0.00    +0.265 C 
ATOM      2  O   UNL     1       0.216  -2.963   0.004  0.00  0.00    -0.268 OA
ATOM      3  N   UNL     1       2.435  -2.915  -0.037  0.00  0.00    -0.295 N 
ATOM      4  C   UNL     1       3.776  -2.287  -0.095  0.00  0.00    +0.121 C 
ATOM      5  C   UNL     1       4.635  -3.108   0.893  0.00  0.00    +0.100 C 
ATOM      6  C   UNL     1       3.934  -4.474   0.981  0.00  0.00    -0.004 C 
ATOM      7  C   UNL     1       2.713  -4.369   0.055  0.00  0.00    +0.115 C 
ATOM      8  C   UNL     1       3.481  -4.744   2.413  0.00  0.00    -0.010 C 
ATOM      9  C   UNL     1       2.837  -6.131   2.486  0.00  0.00    -0.082 C 
ATOM     10  N   UNL     1       3.808  -7.146   2.059  0.00  0.00    +0.379 N 
ATOM     11  C   UNL     1       4.168  -6.934   0.652  0.00  0.00    -0.082 C 
ATOM     12  C   UNL     1       4.868  -5.580   0.501  0.00  0.00    -0.010 C 
ATOM     13  H   UNL     1       4.637  -7.078   2.631  0.00  0.00    -0.086 HD
ATOM     14  H   UNL     1       3.403  -8.064   2.167  0.00  0.00    -0.086 HD
ENDROOT
BRANCH   1  19
ATOM     15  C   UNL     1      -0.144   1.181  -0.265  0.00  0.00    +0.004 A 
ATOM     16  C   UNL     1       1.046   1.889  -0.332  0.00  0.00    +0.020 A 
ATOM     17  C   UNL     1       2.248   1.200  -0.307  0.00  0.00    +0.111 A 
ATOM     18  N   UNL     1       2.273  -0.112  -0.220  0.00  0.00    -0.250 NA
ATOM     19  C   UNL     1       1.157  -0.827  -0.154  0.00  0.00    +0.126 A 
ATOM     20  C   UNL     1      -0.087  -0.201  -0.174  0.00  0.00    +0.033 A 
ENDBRANCH   1  19
BRANCH   5  21
ATOM     21  C   UNL     1       6.036  -3.269   0.361  0.00  0.00    +0.218 C 
ATOM     22  O   UNL     1       6.230  -3.307  -0.836  0.00  0.00    -0.275 OA
ATOM     23  N   UNL     1       7.074  -3.370   1.215  0.00  0.00    -0.311 N 
ATOM     24  H   UNL     1       6.919  -3.339   2.172  0.00  0.00    +0.149 HD
BRANCH  23  25
ATOM     25  C   UNL     1       8.436  -3.526   0.698  0.00  0.00    +0.139 C 
BRANCH  25  26
ATOM     26  C   UNL     1       9.403  -3.615   1.850  0.00  0.00    -0.030 A 
ATOM     27  C   UNL     1       9.972  -2.464   2.365  0.00  0.00    +0.009 A 
ATOM     28  C   UNL     1      10.859  -2.543   3.420  0.00  0.00    +0.046 A 
ATOM     29  C   UNL     1      11.179  -3.778   3.965  0.00  0.00    +0.127 A 
ATOM     30  C   UNL     1      10.607  -4.931   3.447  0.00  0.00    +0.046 A 
ATOM     31  C   UNL     1       9.716  -4.846   2.395  0.00  0.00    +0.009 A 
BRANCH  29  32
ATOM     32  O   UNL     1      12.052  -3.859   5.003  0.00  0.00    -0.434 OA
BRANCH  32  33
ATOM     33  C   UNL     1      12.335  -5.163   5.513  0.00  0.00    +0.541 C 
ATOM     34  F   UNL     1      11.152  -5.752   5.971  0.00  0.00    -0.166 F 
ATOM     35  F   UNL     1      12.886  -5.952   4.497  0.00  0.00    -0.166 F 
ENDBRANCH  32  33
ENDBRANCH  29  32
ENDBRANCH  25  26
ENDBRANCH  23  25
ENDBRANCH   5  21
TORSDOF 6
