REMARK  Name = ZINC01264693
REMARK  5 active torsions:
REMARK  status: ('A' for Active; 'I' for Inactive)
REMARK    1  A    between atoms: C_4  and  C_7
REMARK    2  A    between atoms: C_7  and  C_8
REMARK    3  A    between atoms: C_10  and  C_27
REMARK    4  A    between atoms: C_10  and  C_31
REMARK    5  A    between atoms: N_18  and  C_21
REMARK                            x       y       z     vdW  Elec       q    Type
REMARK                         _______ _______ _______ _____ _____    ______ ____
ROOT
ATOM      1  C   UNL     1       3.738  -2.430   1.807  0.00  0.00    +0.101 C 
ATOM      2  N   UNL     1       3.142  -2.082   2.889  0.00  0.00    -0.244 NA
ATOM      3  C   UNL     1       3.850  -1.720   4.110  0.00  0.00    +0.285 C 
ATOM      4  C   UNL     1       5.298  -1.432   3.833  0.00  0.00    +0.100 A 
ATOM      5  C   UNL     1       6.083  -0.753   4.780  0.00  0.00    +0.262 A 
ATOM      6  O   UNL     1       5.595  -0.388   5.836  0.00  0.00    -0.267 OA
ATOM      7  N   UNL     1       7.382  -0.510   4.512  0.00  0.00    -0.274 N 
ATOM      8  H   UNL     1       7.926  -0.041   5.164  0.00  0.00    +0.173 HD
ATOM      9  C   UNL     1       7.929  -0.909   3.350  0.00  0.00    +0.335 A 
ATOM     10  O   UNL     1       9.103  -0.680   3.131  0.00  0.00    -0.246 OA
ATOM     11  N   UNL     1       7.197  -1.560   2.426  0.00  0.00    -0.250 N 
ATOM     12  C   UNL     1       5.870  -1.826   2.659  0.00  0.00    +0.124 A 
ATOM     13  N   UNL     1       5.107  -2.485   1.721  0.00  0.00    -0.288 N 
ATOM     14  H   UNL     1       5.533  -2.981   1.004  0.00  0.00    +0.155 HD
ENDROOT
BRANCH  11  15
ATOM     15  C   UNL     1       7.790  -1.966   1.224  0.00  0.00    +0.053 A 
ATOM     16  C   UNL     1       7.772  -1.124   0.120  0.00  0.00    +0.026 A 
ATOM     17  C   UNL     1       8.358  -1.527  -1.064  0.00  0.00    +0.002 A 
ATOM     18  C   UNL     1       8.963  -2.768  -1.151  0.00  0.00    +0.000 A 
ATOM     19  C   UNL     1       8.982  -3.609  -0.053  0.00  0.00    +0.002 A 
ATOM     20  C   UNL     1       8.402  -3.209   1.135  0.00  0.00    +0.026 A 
ENDBRANCH  11  15
BRANCH   3  21
ATOM     21  C   UNL     1       3.750  -2.875   5.109  0.00  0.00    +0.428 C 
ATOM     22  F   UNL     1       4.327  -4.022   4.554  0.00  0.00    -0.167 F 
ATOM     23  F   UNL     1       4.428  -2.534   6.285  0.00  0.00    -0.167 F 
ATOM     24  F   UNL     1       2.405  -3.123   5.402  0.00  0.00    -0.167 F 
ENDBRANCH   3  21
BRANCH   3  25
ATOM     25  C   UNL     1       3.198  -0.476   4.717  0.00  0.00    +0.428 C 
ATOM     26  F   UNL     1       1.806  -0.605   4.663  0.00  0.00    -0.167 F 
ATOM     27  F   UNL     1       3.603  -0.341   6.050  0.00  0.00    -0.167 F 
ATOM     28  F   UNL     1       3.590   0.656   3.994  0.00  0.00    -0.167 F 
ENDBRANCH   3  25
BRANCH   1  29
ATOM     29  C   UNL     1       2.913  -2.795   0.600  0.00  0.00    +0.106 C 
BRANCH  29  33
ATOM     30  C   UNL     1      -1.236  -2.414   1.541  0.00  0.00    +0.000 A 
ATOM     31  C   UNL     1      -0.542  -1.334   1.029  0.00  0.00    +0.000 A 
ATOM     32  C   UNL     1       0.801  -1.457   0.725  0.00  0.00    +0.004 A 
ATOM     33  C   UNL     1       1.449  -2.660   0.932  0.00  0.00    -0.040 A 
ATOM     34  C   UNL     1       0.755  -3.740   1.445  0.00  0.00    +0.004 A 
ATOM     35  C   UNL     1      -0.588  -3.618   1.748  0.00  0.00    +0.000 A 
ENDBRANCH  29  33
ENDBRANCH   1  29
TORSDOF 5
