REMARK  Name = ZINC12970182
REMARK  7 active torsions:
REMARK  status: ('A' for Active; 'I' for Inactive)
REMARK    1  A    between atoms: C_1  and  C_2
REMARK    2  A    between atoms: C_5  and  C_8
REMARK    3  A    between atoms: C_8  and  C_10
REMARK    4  A    between atoms: N_14  and  C_24
REMARK    5  A    between atoms: C_15  and  C_17
REMARK    6  A    between atoms: C_21  and  O_23
REMARK    7  A    between atoms: C_24  and  C_25
REMARK                            x       y       z     vdW  Elec       q    Type
REMARK                         _______ _______ _______ _____ _____    ______ ____
ROOT
ATOM      1  C   UNL     1      -3.169   1.085  -1.327  0.00  0.00    +0.076 C 
ATOM      2  C   UNL     1      -4.376   1.661  -1.110  0.00  0.00    +0.249 C 
ATOM      3  C   UNL     1      -4.517   1.965   0.330  0.00  0.00    +0.288 C 
ATOM      4  O   UNL     1      -5.489   2.485   0.841  0.00  0.00    -0.266 OA
ATOM      5  N   UNL     1      -3.410   1.581   0.991  0.00  0.00    -0.276 N 
ATOM      6  C   UNL     1      -2.479   1.002   0.014  0.00  0.00    +0.145 C 
ATOM      7  O   UNL     1      -5.305   1.917  -2.060  0.00  0.00    -0.282 OA
ENDROOT
BRANCH   6   8
ATOM      8  C   UNL     1      -1.198   1.794  -0.012  0.00  0.00    -0.019 A 
ATOM      9  C   UNL     1      -1.239   3.173  -0.102  0.00  0.00    +0.006 A 
ATOM     10  C   UNL     1      -0.065   3.902  -0.132  0.00  0.00    +0.004 A 
ATOM     11  C   UNL     1       1.154   3.254  -0.068  0.00  0.00    +0.045 A 
ATOM     12  C   UNL     1       1.198   1.871   0.027  0.00  0.00    +0.117 A 
ATOM     13  C   UNL     1       0.018   1.141   0.058  0.00  0.00    +0.051 A 
BRANCH  12  14
ATOM     14  O   UNL     1       2.395   1.231   0.091  0.00  0.00    -0.507 OA
ATOM     15  H   UNL     1       2.429   0.134   0.167  0.00  0.00    +0.292 HD
ENDBRANCH  12  14
ENDBRANCH   6   8
BRANCH   1  16
ATOM     16  C   UNL     1      -2.635   0.630  -2.614  0.00  0.00    +0.195 C 
ATOM     17  O   UNL     1      -2.385   1.438  -3.489  0.00  0.00    -0.287 OA
BRANCH  16  22
ATOM     18  C   UNL     1      -1.719  -4.977  -3.531  0.00  0.00    +0.044 C 
ATOM     19  C   UNL     1      -1.958  -3.509  -3.291  0.00  0.00    -0.050 A 
ATOM     20  C   UNL     1      -1.567  -2.583  -4.242  0.00  0.00    +0.004 A 
ATOM     21  C   UNL     1      -1.783  -1.237  -4.029  0.00  0.00    +0.012 A 
ATOM     22  C   UNL     1      -2.400  -0.811  -2.850  0.00  0.00    +0.022 A 
ATOM     23  C   UNL     1      -2.787  -1.750  -1.893  0.00  0.00    +0.012 A 
ATOM     24  C   UNL     1      -2.569  -3.093  -2.121  0.00  0.00    +0.004 A 
ENDBRANCH  16  22
ENDBRANCH   1  16
BRANCH   5  25
ATOM     25  C   UNL     1      -3.174   1.717   2.430  0.00  0.00    +0.183 C 
BRANCH  25  26
ATOM     26  C   UNL     1      -2.521   3.046   2.709  0.00  0.00    +0.122 A 
ATOM     27  C   UNL     1      -3.163   4.198   2.972  0.00  0.00    +0.046 A 
ATOM     28  C   UNL     1      -2.169   5.184   3.170  0.00  0.00    +0.041 A 
ATOM     29  C   UNL     1      -0.980   4.576   3.016  0.00  0.00    +0.195 A 
ATOM     30  O   UNL     1      -1.199   3.279   2.743  0.00  0.00    -0.466 OA
ENDBRANCH  25  26
ENDBRANCH   5  25
TORSDOF 6
