REMARK  Name = ZINC15000732
REMARK  8 active torsions:
REMARK  status: ('A' for Active; 'I' for Inactive)
REMARK    1  A    between atoms: C_4  and  C_7
REMARK    2  A    between atoms: C_7  and  C_13
REMARK    3  A    between atoms: C_13  and  N_62
REMARK    4  A    between atoms: C_14  and  N_62
REMARK    5  A    between atoms: N_25  and  C_28
REMARK    6  A    between atoms: C_28  and  C_29
REMARK    7  A    between atoms: C_29  and  C_30
REMARK    8  A    between atoms: C_30  and  O_31
REMARK                            x       y       z     vdW  Elec       q    Type
REMARK                         _______ _______ _______ _____ _____    ______ ____
ROOT
ATOM      1  C   UNL     1      -3.887   0.750   3.317  0.00  0.00    -0.067 C 
ATOM      2  C   UNL     1      -4.515   1.523   4.481  0.00  0.00    -0.011 C 
ATOM      3  C   UNL     1      -5.968   1.087   4.669  0.00  0.00    +0.035 C 
ATOM      4  C   UNL     1      -6.017  -0.433   4.792  0.00  0.00    -0.023 A 
ATOM      5  C   UNL     1      -4.979  -1.191   4.364  0.00  0.00    -0.006 A 
ATOM      6  S   UNL     1      -5.460  -2.867   4.698  0.00  0.00    -0.073 S 
ATOM      7  C   UNL     1      -7.045  -2.549   5.407  0.00  0.00    +0.116 A 
ATOM      8  C   UNL     1      -7.149  -1.141   5.361  0.00  0.00    +0.076 A 
ATOM      9  C   UNL     1      -8.356  -0.560   5.877  0.00  0.00    +0.262 A 
ATOM     10  O   UNL     1      -8.545   0.644   5.884  0.00  0.00    -0.267 OA
ATOM     11  N   UNL     1      -9.271  -1.436   6.356  0.00  0.00    -0.299 N 
ATOM     12  C   UNL     1      -9.081  -2.777   6.359  0.00  0.00    +0.203 A 
ATOM     13  N   UNL     1      -7.990  -3.346   5.895  0.00  0.00    -0.230 NA
ATOM     14  C   UNL     1      -3.703  -0.714   3.743  0.00  0.00    +0.027 C 
ENDROOT
BRANCH   1  15
ATOM     15  N   UNL     1      -2.575   1.340   2.992  0.00  0.00    +0.382 N 
ATOM     16  H   UNL     1      -2.615   2.356   3.135  0.00  0.00    -0.085 HD
ATOM     17  H   UNL     1      -1.860   0.936   3.608  0.00  0.00    -0.085 HD
BRANCH  15  18
ATOM     18  C   UNL     1      -2.221   1.060   1.588  0.00  0.00    -0.071 C 
BRANCH  18  19
ATOM     19  C   UNL     1      -0.930   1.803   1.238  0.00  0.00    -0.015 C 
ATOM     20  C   UNL     1       0.167   1.420   2.236  0.00  0.00    +0.038 C 
ATOM     21  C   UNL     1       0.460  -0.078   2.113  0.00  0.00    +0.160 C 
ATOM     22  O   UNL     1       0.843  -0.378   0.769  0.00  0.00    -0.380 OA
ATOM     23  C   UNL     1      -0.163  -0.087  -0.203  0.00  0.00    +0.160 C 
ATOM     24  C   UNL     1      -0.481   1.411  -0.173  0.00  0.00    +0.038 C 
BRANCH  19  28
ATOM     25  C   UNL     1      -1.608   6.017   1.406  0.00  0.00    +0.000 A 
ATOM     26  C   UNL     1      -0.334   5.530   1.185  0.00  0.00    +0.000 A 
ATOM     27  C   UNL     1      -0.114   4.167   1.130  0.00  0.00    +0.004 A 
ATOM     28  C   UNL     1      -1.169   3.289   1.298  0.00  0.00    -0.043 A 
ATOM     29  C   UNL     1      -2.445   3.776   1.514  0.00  0.00    +0.004 A 
ATOM     30  C   UNL     1      -2.663   5.140   1.574  0.00  0.00    +0.000 A 
ENDBRANCH  19  28
ENDBRANCH  18  19
ENDBRANCH  15  18
ENDBRANCH   1  15
BRANCH  11  31
ATOM     31  C   UNL     1     -10.526  -0.908   6.898  0.00  0.00    +0.128 C 
BRANCH  31  32
ATOM     32  C   UNL     1     -11.564  -0.812   5.778  0.00  0.00    +0.049 C 
BRANCH  32  33
ATOM     33  C   UNL     1     -12.874  -0.260   6.343  0.00  0.00    +0.157 C 
BRANCH  33  34
ATOM     34  O   UNL     1     -13.844  -0.170   5.298  0.00  0.00    -0.395 OA
ATOM     35  H   UNL     1     -14.702   0.172   5.585  0.00  0.00    +0.209 HD
ENDBRANCH  33  34
ENDBRANCH  32  33
ENDBRANCH  31  32
ENDBRANCH  11  31
TORSDOF 8
