REMARK  Name = ZINC39544789
REMARK  7 active torsions:
REMARK  status: ('A' for Active; 'I' for Inactive)
REMARK    1  A    between atoms: C_1  and  C_2
REMARK    2  A    between atoms: C_2  and  C_3
REMARK    3  A    between atoms: C_2  and  C_4
REMARK    4  A    between atoms: C_4  and  N_5
REMARK    5  A    between atoms: N_5  and  C_6
REMARK    6  A    between atoms: C_11  and  O_12
REMARK    7  A    between atoms: C_13  and  C_15
REMARK                            x       y       z     vdW  Elec       q    Type
REMARK                         _______ _______ _______ _____ _____    ______ ____
ROOT
ATOM      1  C   UNL     1      -2.724   1.829  -0.093  0.00  0.00    +0.030 C 
ATOM      2  C   UNL     1      -2.466   3.310  -0.455  0.00  0.00    +0.068 C 
ATOM      3  C   UNL     1      -3.351   4.110   0.492  0.00  0.00    +0.136 C 
ATOM      4  C   UNL     1      -4.029   3.071   1.353  0.00  0.00    +0.085 C 
ATOM      5  N   UNL     1      -5.337   3.481   1.822  0.00  0.00    -0.350 N 
ATOM      6  C   UNL     1      -6.465   3.313   1.014  0.00  0.00    +0.027 A 
ATOM      7  C   UNL     1      -7.684   3.860   1.386  0.00  0.00    +0.023 A 
ATOM      8  C   UNL     1      -8.793   3.673   0.584  0.00  0.00    +0.002 A 
ATOM      9  C   UNL     1      -8.684   2.941  -0.584  0.00  0.00    +0.000 A 
ATOM     10  C   UNL     1      -7.468   2.401  -0.958  0.00  0.00    +0.003 A 
ATOM     11  C   UNL     1      -6.349   2.590  -0.164  0.00  0.00    -0.043 A 
ATOM     12  C   UNL     1      -5.027   2.032  -0.598  0.00  0.00    -0.037 C 
ATOM     13  N   UNL     1      -4.091   1.848   0.521  0.00  0.00    +0.407 N 
ATOM     14  O   UNL     1      -3.481   5.309   0.543  0.00  0.00    -0.298 OA
ATOM     15  H   UNL     1      -5.431   3.874   2.704  0.00  0.00    +0.145 HD
ATOM     16  H   UNL     1      -4.283   1.020   1.065  0.00  0.00    -0.077 HD
ENDROOT
BRANCH   1  18
ATOM     17  N   UNL     1      -1.745   0.045  -1.500  0.00  0.00    -0.269 N 
ATOM     18  C   UNL     1      -2.711   0.970  -1.332  0.00  0.00    +0.207 C 
ATOM     19  O   UNL     1      -3.569   1.111  -2.177  0.00  0.00    -0.277 OA
BRANCH  17  20
ATOM     20  C   UNL     1      -0.693  -0.045  -0.579  0.00  0.00    +0.078 A 
ATOM     21  C   UNL     1       0.463   0.698  -0.768  0.00  0.00    +0.027 A 
ATOM     22  C   UNL     1       1.499   0.607   0.142  0.00  0.00    +0.002 A 
ATOM     23  C   UNL     1       1.387  -0.223   1.242  0.00  0.00    +0.004 A 
ATOM     24  C   UNL     1       0.237  -0.967   1.437  0.00  0.00    +0.047 A 
ATOM     25  C   UNL     1      -0.808  -0.877   0.533  0.00  0.00    +0.138 A 
BRANCH  25  26
ATOM     26  O   UNL     1      -1.942  -1.602   0.726  0.00  0.00    -0.505 OA
ATOM     27  H   UNL     1      -1.921  -2.479   0.319  0.00  0.00    +0.292 HD
ENDBRANCH  25  26
ENDBRANCH  17  20
BRANCH  17  28
ATOM     28  C   UNL     1      -1.794  -0.865  -2.647  0.00  0.00    +0.116 C 
BRANCH  28  30
ATOM     29  C   UNL     1      -3.906  -1.888  -1.788  0.00  0.00    +0.009 C 
ATOM     30  C   UNL     1      -2.469  -2.173  -2.231  0.00  0.00    +0.001 C 
ATOM     31  C   UNL     1      -2.484  -3.140  -3.417  0.00  0.00    +0.009 C 
ENDBRANCH  28  30
ENDBRANCH  17  28
ENDBRANCH   1  18
TORSDOF 5
