REMARK  Name = ZINC13499207
REMARK  17 active torsions:
REMARK  status: ('A' for Active; 'I' for Inactive)
REMARK    1  A    between atoms: C_1  and  C_2
REMARK    2  A    between atoms: C_2  and  O_3
REMARK    3  A    between atoms: O_3  and  C_4
REMARK    4  A    between atoms: C_4  and  C_6
REMARK    5  A    between atoms: C_6  and  N_7
REMARK    6  A    between atoms: C_8  and  C_12
REMARK    7  A    between atoms: C_12  and  C_14
REMARK    8  A    between atoms: C_12  and  N_65
REMARK    9  A    between atoms: C_14  and  C_15
REMARK   10  A    between atoms: C_14  and  C_16
REMARK   11  A    between atoms: C_17  and  C_18
REMARK   12  A    between atoms: C_17  and  N_65
REMARK   13  A    between atoms: C_18  and  O_19
REMARK   14  A    between atoms: C_20  and  C_21
REMARK   15  A    between atoms: C_20  and  N_65
REMARK   16  A    between atoms: C_24  and  C_34
REMARK   17  A    between atoms: C_27  and  C_33
REMARK                            x       y       z     vdW  Elec       q    Type
REMARK                         _______ _______ _______ _____ _____    ______ ____
ROOT
ATOM      1  N   UNL     1      -2.399   0.913   1.210  0.00  0.00    +0.391 N 
ATOM      2  H   UNL     1      -2.948   0.763   0.355  0.00  0.00    -0.080 HD
ENDROOT
BRANCH   1   3
ATOM      3  C   UNL     1      -1.345   1.912   0.934  0.00  0.00    +0.006 C 
BRANCH   3   5
ATOM      4  N   UNL     1      -1.630   4.417   1.322  0.00  0.00    -0.220 N 
ATOM      5  C   UNL     1      -1.986   3.261   0.731  0.00  0.00    +0.139 A 
ATOM      6  N   UNL     1      -2.995   3.538  -0.058  0.00  0.00    -0.115 NA
ATOM      7  N   UNL     1      -3.250   4.796   0.048  0.00  0.00    -0.023 NA
ATOM      8  N   UNL     1      -2.425   5.331   0.879  0.00  0.00    -0.043 NA
BRANCH   4   9
ATOM      9  C   UNL     1      -0.543   4.602   2.286  0.00  0.00    +0.267 C 
BRANCH   9  10
ATOM     10  C   UNL     1       0.691   5.084   1.566  0.00  0.00    +0.329 C 
ATOM     11  O   UNL     1       0.637   5.354   0.390  0.00  0.00    -0.249 OA
BRANCH  10  12
ATOM     12  O   UNL     1       1.849   5.214   2.232  0.00  0.00    -0.464 OA
BRANCH  12  14
ATOM     13  C   UNL     1       4.215   5.768   2.396  0.00  0.00    +0.048 C 
ATOM     14  C   UNL     1       2.995   5.684   1.475  0.00  0.00    +0.229 C 
ENDBRANCH  12  14
ENDBRANCH  10  12
ENDBRANCH   9  10
ENDBRANCH   4   9
ENDBRANCH   3   5
BRANCH   3  15
ATOM     15  C   UNL     1      -0.601   1.505  -0.339  0.00  0.00    -0.024 C 
ATOM     16  C   UNL     1       0.532   2.498  -0.608  0.00  0.00    +0.006 C 
ATOM     17  C   UNL     1      -1.573   1.508  -1.521  0.00  0.00    +0.006 C 
ENDBRANCH   3  15
ENDBRANCH   1   3
BRANCH   1  18
ATOM     18  C   UNL     1      -3.296   1.406   2.276  0.00  0.00    -0.049 C 
BRANCH  18  19
ATOM     19  C   UNL     1      -4.584   0.580   2.255  0.00  0.00    +0.137 C 
BRANCH  19  20
ATOM     20  O   UNL     1      -4.298  -0.759   2.664  0.00  0.00    -0.397 OA
ATOM     21  H   UNL     1      -5.081  -1.320   2.748  0.00  0.00    +0.209 HD
ENDBRANCH  19  20
ENDBRANCH  18  19
ENDBRANCH   1  18
BRANCH   1  22
ATOM     22  C   UNL     1      -1.785  -0.368   1.618  0.00  0.00    -0.036 C 
BRANCH  22  23
ATOM     23  C   UNL     1      -0.993  -0.194   2.888  0.00  0.00    +0.001 A 
ATOM     24  C   UNL     1      -1.571  -0.455   4.086  0.00  0.00    +0.017 A 
ATOM     25  C   UNL     1      -0.772  -0.280   5.301  0.00  0.00    +0.002 A 
ATOM     26  C   UNL     1      -1.311  -0.539   6.565  0.00  0.00    -0.041 A 
ATOM     27  C   UNL     1      -0.541  -0.363   7.679  0.00  0.00    +0.004 A 
ATOM     28  C   UNL     1       0.773   0.072   7.568  0.00  0.00    +0.005 A 
ATOM     29  C   UNL     1       1.325   0.334   6.332  0.00  0.00    -0.026 A 
ATOM     30  C   UNL     1       0.560   0.160   5.184  0.00  0.00    +0.052 A 
ATOM     31  N   UNL     1       1.087   0.413   3.935  0.00  0.00    -0.322 N 
ATOM     32  H   UNL     1       2.005   0.717   3.857  0.00  0.00    +0.169 HD
ATOM     33  C   UNL     1       0.347   0.246   2.825  0.00  0.00    +0.251 A 
ATOM     34  O   UNL     1       0.846   0.480   1.738  0.00  0.00    -0.268 OA
ATOM     35  C   UNL     1       2.753   0.804   6.226  0.00  0.00    +0.046 C 
ATOM     36  C   UNL     1      -2.736  -1.012   6.697  0.00  0.00    +0.044 C 
ENDBRANCH  22  23
ENDBRANCH   1  22
TORSDOF 12
