REMARK  Name = ZINC36622024
REMARK  10 active torsions:
REMARK  status: ('A' for Active; 'I' for Inactive)
REMARK    1  A    between atoms: C_1  and  C_2
REMARK    2  A    between atoms: C_3  and  C_34
REMARK    3  A    between atoms: C_11  and  C_13
REMARK    4  A    between atoms: C_13  and  S_14
REMARK    5  A    between atoms: S_14  and  C_15
REMARK    6  A    between atoms: C_15  and  C_17
REMARK    7  A    between atoms: C_15  and  C_18
REMARK    8  A    between atoms: N_20  and  C_21
REMARK    9  A    between atoms: C_21  and  C_23
REMARK   10  A    between atoms: C_21  and  C_24
REMARK                            x       y       z     vdW  Elec       q    Type
REMARK                         _______ _______ _______ _____ _____    ______ ____
ROOT
ATOM      1  C   UNL     1      -0.018  -6.175   5.586  0.00  0.00    +0.129 C 
ATOM      2  C   UNL     1      -1.309  -6.047   6.398  0.00  0.00    +0.029 C 
ENDROOT
BRANCH   1   3
ATOM      3  C   UNL     1       0.170  -7.609   5.165  0.00  0.00    +0.226 C 
ATOM      4  O   UNL     1      -0.128  -7.956   4.041  0.00  0.00    -0.275 OA
ATOM      5  N   UNL     1       0.670  -8.508   6.037  0.00  0.00    -0.308 N 
ATOM      6  H   UNL     1       0.908  -8.230   6.935  0.00  0.00    +0.149 HD
BRANCH   5   7
ATOM      7  C   UNL     1       0.853  -9.902   5.628  0.00  0.00    +0.101 C 
ATOM      8  C   UNL     1      -0.443 -10.679   5.871  0.00  0.00    +0.033 C 
BRANCH   7   9
ATOM      9  C   UNL     1       1.967 -10.520   6.432  0.00  0.00    -0.020 A 
ATOM     10  C   UNL     1       2.255 -10.049   7.677  0.00  0.00    +0.006 A 
ATOM     11  C   UNL     1       3.282 -10.607   8.435  0.00  0.00    +0.001 A 
ATOM     12  C   UNL     1       4.027 -11.639   7.954  0.00  0.00    +0.008 A 
ATOM     13  C   UNL     1       3.760 -12.152   6.674  0.00  0.00    -0.018 A 
ATOM     14  C   UNL     1       2.711 -11.588   5.904  0.00  0.00    -0.013 A 
ATOM     15  C   UNL     1       2.440 -12.105   4.626  0.00  0.00    +0.009 A 
ATOM     16  C   UNL     1       3.182 -13.141   4.147  0.00  0.00    +0.001 A 
ATOM     17  C   UNL     1       4.209 -13.700   4.906  0.00  0.00    +0.001 A 
ATOM     18  C   UNL     1       4.509 -13.216   6.143  0.00  0.00    +0.008 A 
ENDBRANCH   7   9
ENDBRANCH   5   7
ENDBRANCH   1   3
BRANCH   1  19
ATOM     19  S   UNL     1      -0.124  -5.121   4.113  0.00  0.00    -0.141 S 
BRANCH  19  20
ATOM     20  C   UNL     1      -0.194  -3.437   4.782  0.00  0.00    +0.144 C 
BRANCH  20  31
ATOM     21  C   UNL     1      -0.615   1.633   0.416  0.00  0.00    +0.045 C 
ATOM     22  C   UNL     1      -0.534   0.130   0.357  0.00  0.00    -0.026 A 
ATOM     23  C   UNL     1      -0.534  -0.504  -0.826  0.00  0.00    -0.008 A 
ATOM     24  S   UNL     1      -0.427  -2.225  -0.372  0.00  0.00    -0.073 S 
ATOM     25  C   UNL     1      -0.386  -2.042   1.392  0.00  0.00    +0.116 A 
ATOM     26  C   UNL     1      -0.451  -0.649   1.578  0.00  0.00    +0.075 A 
ATOM     27  C   UNL     1      -0.431  -0.205   2.941  0.00  0.00    +0.260 A 
ATOM     28  O   UNL     1      -0.487   0.984   3.205  0.00  0.00    -0.267 OA
ATOM     29  N   UNL     1      -0.348  -1.121   3.924  0.00  0.00    -0.310 N 
ATOM     30  H   UNL     1      -0.334  -0.826   4.848  0.00  0.00    +0.170 HD
ATOM     31  C   UNL     1      -0.285  -2.449   3.648  0.00  0.00    +0.121 A 
ATOM     32  N   UNL     1      -0.311  -2.886   2.417  0.00  0.00    -0.226 NA
ATOM     33  C   UNL     1      -0.607   0.094  -2.207  0.00  0.00    +0.052 C 
ENDBRANCH  20  31
ENDBRANCH  19  20
ENDBRANCH   1  19
TORSDOF 6
