REMARK  Name = ZINC67483152
REMARK  9 active torsions:
REMARK  status: ('A' for Active; 'I' for Inactive)
REMARK    1  A    between atoms: C_1  and  C_2
REMARK    2  A    between atoms: C_3  and  C_13
REMARK    3  A    between atoms: C_5  and  C_7
REMARK    4  A    between atoms: N_15  and  C_16
REMARK    5  A    between atoms: N_15  and  C_21
REMARK    6  A    between atoms: C_16  and  C_17
REMARK    7  A    between atoms: C_17  and  N_18
REMARK    8  A    between atoms: N_18  and  C_19
REMARK    9  A    between atoms: N_18  and  C_20
REMARK                            x       y       z     vdW  Elec       q    Type
REMARK                         _______ _______ _______ _____ _____    ______ ____
ROOT
ATOM      1  C   UNL     1       0.334  -0.474  -2.495  0.00  0.00    +0.255 C 
ATOM      2  O   UNL     1       0.540  -1.069  -1.454  0.00  0.00    -0.269 OA
ATOM      3  N   UNL     1      -0.102  -1.146  -3.579  0.00  0.00    -0.296 N 
ENDROOT
BRANCH   1   6
ATOM      4  C   UNL     1       1.045   1.439  -0.131  0.00  0.00    +0.067 C 
ATOM      5  C   UNL     1       0.878   1.875  -1.564  0.00  0.00    +0.058 A 
ATOM      6  C   UNL     1       0.561   0.972  -2.571  0.00  0.00    +0.097 A 
ATOM      7  S   UNL     1       0.505   2.063  -3.984  0.00  0.00    -0.059 S 
ATOM      8  C   UNL     1       0.876   3.497  -3.186  0.00  0.00    +0.148 A 
ATOM      9  N   UNL     1       1.019   3.123  -1.925  0.00  0.00    -0.240 NA
BRANCH   8  10
ATOM     10  C   UNL     1       1.006   4.855  -3.756  0.00  0.00    +0.206 A 
ATOM     11  N   UNL     1       1.304   5.967  -3.069  0.00  0.00    -0.213 NA
ATOM     12  H   UNL     1       1.014   7.096  -5.928  0.00  0.00    +0.190 HD
ATOM     13  C   UNL     1       1.339   6.991  -3.879  0.00  0.00    +0.216 A 
ATOM     14  N   UNL     1       1.060   6.558  -5.122  0.00  0.00    -0.265 N 
ATOM     15  N   UNL     1       0.852   5.172  -5.025  0.00  0.00    -0.150 NA
ENDBRANCH   8  10
ENDBRANCH   1   6
BRANCH   3  16
ATOM     16  C   UNL     1      -0.436  -2.568  -3.475  0.00  0.00    +0.076 C 
ATOM     17  C   UNL     1      -1.543  -2.775  -2.420  0.00  0.00    +0.022 C 
ATOM     18  C   UNL     1      -1.163  -4.106  -1.725  0.00  0.00    +0.002 C 
ATOM     19  C   UNL     1       0.383  -4.024  -1.655  0.00  0.00    +0.002 C 
ATOM     20  C   UNL     1       0.788  -3.363  -2.988  0.00  0.00    +0.022 C 
ENDBRANCH   3  16
BRANCH   3  21
ATOM     21  C   UNL     1      -0.242  -0.453  -4.863  0.00  0.00    +0.090 C 
BRANCH  21  22
ATOM     22  C   UNL     1       1.109  -0.430  -5.580  0.00  0.00    -0.060 C 
BRANCH  22  23
ATOM     23  N   UNL     1       0.968   0.265  -6.867  0.00  0.00    +0.377 N 
ATOM     24  C   UNL     1       0.631   1.674  -6.628  0.00  0.00    -0.097 C 
ATOM     25  C   UNL     1       2.233   0.183  -7.609  0.00  0.00    -0.097 C 
ATOM     26  H   UNL     1       0.234  -0.170  -7.405  0.00  0.00    -0.083 HD
ENDBRANCH  22  23
ENDBRANCH  21  22
ENDBRANCH   3  21
TORSDOF 6
