REMARK  Name = ZINC04834655
REMARK  8 active torsions:
REMARK  status: ('A' for Active; 'I' for Inactive)
REMARK    1  A    between atoms: C_1  and  C_2
REMARK    2  A    between atoms: C_18  and  C_19
REMARK    3  A    between atoms: C_18  and  N_58
REMARK    4  A    between atoms: N_21  and  N_22
REMARK    5  A    between atoms: C_23  and  C_25
REMARK    6  A    between atoms: C_25  and  C_26
REMARK    7  A    between atoms: C_25  and  C_27
REMARK    8  A    between atoms: C_25  and  C_28
REMARK                            x       y       z     vdW  Elec       q    Type
REMARK                         _______ _______ _______ _____ _____    ______ ____
ROOT
ATOM      1  C   UNL     1      -1.306  -0.752   0.013  0.00  0.00    +0.044 C 
ATOM      2  C   UNL     1       0.002  -0.004   0.002  0.00  0.00    -0.050 A 
ATOM      3  C   UNL     1      -0.017   1.381   0.010  0.00  0.00    +0.005 A 
ATOM      4  C   UNL     1       1.144   2.133   0.003  0.00  0.00    +0.026 A 
ATOM      5  C   UNL     1       2.353   1.441  -0.013  0.00  0.00    +0.049 A 
ATOM      6  C   UNL     1       2.367   0.014  -0.023  0.00  0.00    +0.003 A 
ATOM      7  C   UNL     1       1.174  -0.717  -0.014  0.00  0.00    +0.013 A 
ATOM      8  C   UNL     1       3.753  -0.370  -0.045  0.00  0.00    -0.020 A 
ATOM      9  C   UNL     1       4.466   0.774  -0.055  0.00  0.00    +0.009 A 
ATOM     10  N   UNL     1       3.647   1.867  -0.017  0.00  0.00    -0.347 N 
ATOM     11  C   UNL     1       4.197   3.230   0.032  0.00  0.00    +0.103 C 
ATOM     12  C   UNL     1       5.676   3.163  -0.367  0.00  0.00    -0.055 C 
ATOM     13  C   UNL     1       5.978   0.774  -0.083  0.00  0.00    -0.020 C 
ATOM     14  C   UNL     1       6.469  -0.299   0.875  0.00  0.00    -0.009 C 
ATOM     15  C   UNL     1       5.681  -1.586   0.897  0.00  0.00    +0.003 C 
ATOM     16  C   UNL     1       4.486  -1.683  -0.040  0.00  0.00    +0.037 C 
ATOM     17  N   UNL     1       6.377   2.118   0.407  0.00  0.00    +0.392 N 
ATOM     18  H   UNL     1       6.115   2.204   1.397  0.00  0.00    -0.080 HD
ENDROOT
BRANCH  17  19
ATOM     19  C   UNL     1       7.840   2.289   0.280  0.00  0.00    +0.021 C 
BRANCH  19  20
ATOM     20  C   UNL     1       8.245   3.559   0.983  0.00  0.00    +0.213 C 
ATOM     21  O   UNL     1       7.404   4.252   1.516  0.00  0.00    -0.276 OA
ATOM     22  N   UNL     1       9.542   3.925   1.019  0.00  0.00    -0.236 N 
ATOM     23  H   UNL     1      10.214   3.371   0.592  0.00  0.00    +0.173 HD
BRANCH  22  24
ATOM     24  N   UNL     1       9.918   5.106   1.673  0.00  0.00    -0.234 N 
ATOM     25  C   UNL     1      11.215   5.472   1.709  0.00  0.00    +0.234 C 
ATOM     26  O   UNL     1      12.056   4.779   1.175  0.00  0.00    -0.274 OA
ATOM     27  H   UNL     1       9.246   5.660   2.099  0.00  0.00    +0.173 HD
BRANCH  25  28
ATOM     28  C   UNL     1      11.620   6.742   2.412  0.00  0.00    +0.040 C 
ATOM     29  C   UNL     1      13.136   6.922   2.305  0.00  0.00    +0.020 C 
ATOM     30  C   UNL     1      10.918   7.933   1.757  0.00  0.00    +0.020 C 
ATOM     31  C   UNL     1      11.218   6.659   3.885  0.00  0.00    +0.020 C 
ENDBRANCH  25  28
ENDBRANCH  22  24
ENDBRANCH  19  20
ENDBRANCH  17  19
TORSDOF 4
