REMARK  Name = ZINC22607073
REMARK  7 active torsions:
REMARK  status: ('A' for Active; 'I' for Inactive)
REMARK    1  A    between atoms: C_1  and  O_2
REMARK    2  A    between atoms: O_2  and  C_3
REMARK    3  A    between atoms: C_5  and  C_13
REMARK    4  A    between atoms: C_7  and  O_11
REMARK    5  A    between atoms: C_8  and  O_9
REMARK    6  A    between atoms: O_9  and  C_10
REMARK    7  A    between atoms: O_11  and  C_12
REMARK                            x       y       z     vdW  Elec       q    Type
REMARK                         _______ _______ _______ _____ _____    ______ ____
ROOT
ATOM      1  C   UNL     1       2.402   0.386  -4.230  0.00  0.00    +0.093 C 
ATOM      2  C   UNL     1       3.871   0.092  -4.308  0.00  0.00    +0.069 A 
ATOM      3  C   UNL     1       4.377  -0.691  -5.298  0.00  0.00    +0.112 A 
ATOM      4  N   UNL     1       5.723  -0.943  -5.332  0.00  0.00    -0.315 N 
ATOM      5  H   UNL     1       6.093  -1.501  -6.034  0.00  0.00    +0.170 HD
ATOM      6  C   UNL     1       6.541  -0.411  -4.383  0.00  0.00    +0.200 A 
ATOM      7  N   UNL     1       6.065   0.351  -3.422  0.00  0.00    -0.177 NA
ATOM      8  C   UNL     1       4.754   0.628  -3.345  0.00  0.00    +0.280 A 
ATOM      9  O   UNL     1       4.327   1.340  -2.448  0.00  0.00    -0.265 OA
ATOM     10  N   UNL     1       7.885  -0.674  -4.430  0.00  0.00    -0.301 N 
ATOM     11  C   UNL     1       8.808  -0.021  -3.491  0.00  0.00    +0.108 C 
ATOM     12  C   UNL     1       9.633  -1.100  -2.782  0.00  0.00    +0.019 C 
ATOM     13  C   UNL     1      10.319  -1.982  -3.827  0.00  0.00    +0.003 C 
ATOM     14  C   UNL     1       9.259  -2.673  -4.689  0.00  0.00    +0.019 C 
ATOM     15  C   UNL     1       8.429  -1.617  -5.416  0.00  0.00    +0.108 C 
ATOM     16  N   UNL     1       3.544  -1.221  -6.255  0.00  0.00    -0.304 N 
ATOM     17  C   UNL     1       2.302  -0.688  -6.472  0.00  0.00    +0.017 C 
ATOM     18  C   UNL     1       1.716   0.091  -5.540  0.00  0.00    +0.024 C 
ATOM     19  C   UNL     1       0.447   0.654  -5.763  0.00  0.00    +0.162 C 
ATOM     20  O   UNL     1      -0.057   1.347  -4.901  0.00  0.00    -0.292 OA
ATOM     21  C   UNL     1      -0.299   0.413  -7.047  0.00  0.00    +0.080 C 
ATOM     22  C   UNL     1       0.711   0.172  -8.173  0.00  0.00    +0.014 C 
ATOM     23  C   UNL     1       1.607  -0.999  -7.775  0.00  0.00    +0.051 C 
ATOM     24  H   UNL     1       3.839  -1.980  -6.782  0.00  0.00    +0.153 HD
ENDROOT
BRANCH   1  27
ATOM     25  C   UNL     1       0.599  -0.640  -1.071  0.00  0.00    +0.165 A 
ATOM     26  C   UNL     1       1.169   0.138  -2.068  0.00  0.00    +0.054 A 
ATOM     27  C   UNL     1       1.785  -0.464  -3.149  0.00  0.00    -0.028 A 
ATOM     28  C   UNL     1       1.837  -1.842  -3.241  0.00  0.00    +0.054 A 
ATOM     29  C   UNL     1       1.270  -2.627  -2.249  0.00  0.00    +0.165 A 
ATOM     30  C   UNL     1       0.654  -2.026  -1.157  0.00  0.00    +0.204 A 
BRANCH  25  32
ATOM     31  C   UNL     1      -0.026   1.381   0.015  0.00  0.00    +0.277 C 
ATOM     32  O   UNL     1      -0.007  -0.047  -0.007  0.00  0.00    -0.491 OA
ENDBRANCH  25  32
BRANCH  30  33
ATOM     33  O   UNL     1       0.102  -2.793  -0.178  0.00  0.00    -0.488 OA
ATOM     34  C   UNL     1      -1.269  -3.163  -0.339  0.00  0.00    +0.277 C 
ENDBRANCH  30  33
BRANCH  29  35
ATOM     35  O   UNL     1       1.321  -3.983  -2.341  0.00  0.00    -0.491 OA
ATOM     36  C   UNL     1       1.974  -4.531  -3.487  0.00  0.00    +0.277 C 
ENDBRANCH  29  35
ENDBRANCH   1  27
TORSDOF 4
