REMARK  Name = ZINC39678946
REMARK  12 active torsions:
REMARK  status: ('A' for Active; 'I' for Inactive)
REMARK    1  A    between atoms: C_1  and  C_2
REMARK    2  A    between atoms: C_2  and  C_3
REMARK    3  A    between atoms: C_3  and  C_5
REMARK    4  A    between atoms: C_3  and  C_6
REMARK    5  A    between atoms: C_10  and  C_19
REMARK    6  A    between atoms: N_21  and  C_22
REMARK    7  A    between atoms: C_22  and  C_23
REMARK    8  A    between atoms: C_23  and  C_24
REMARK    9  A    between atoms: C_24  and  C_25
REMARK   10  A    between atoms: C_25  and  N_26
REMARK   11  A    between atoms: N_26  and  C_27
REMARK   12  A    between atoms: N_26  and  C_28
REMARK                            x       y       z     vdW  Elec       q    Type
REMARK                         _______ _______ _______ _____ _____    ______ ____
ROOT
ATOM      1  C   UNL     1       0.339  -1.897  -1.448  0.00  0.00    +0.218 C 
ATOM      2  O   UNL     1      -0.367  -2.558  -0.716  0.00  0.00    -0.275 OA
ATOM      3  N   UNL     1       1.090  -2.503  -2.388  0.00  0.00    -0.300 N 
ATOM      4  C   UNL     1       2.090  -1.884  -3.289  0.00  0.00    +0.121 C 
ATOM      5  C   UNL     1       3.241  -2.913  -3.360  0.00  0.00    +0.100 C 
ATOM      6  C   UNL     1       2.586  -4.259  -3.010  0.00  0.00    -0.004 C 
ATOM      7  C   UNL     1       1.107  -3.941  -2.751  0.00  0.00    +0.115 C 
ATOM      8  C   UNL     1       2.721  -5.232  -4.178  0.00  0.00    -0.010 C 
ATOM      9  C   UNL     1       2.114  -6.582  -3.785  0.00  0.00    -0.082 C 
ATOM     10  N   UNL     1       2.807  -7.106  -2.602  0.00  0.00    +0.379 N 
ATOM     11  C   UNL     1       2.595  -6.211  -1.458  0.00  0.00    -0.082 C 
ATOM     12  C   UNL     1       3.222  -4.846  -1.753  0.00  0.00    -0.010 C 
ATOM     13  H   UNL     1       2.447  -8.023  -2.381  0.00  0.00    -0.086 HD
ATOM     14  H   UNL     1       3.795  -7.174  -2.795  0.00  0.00    -0.086 HD
ENDROOT
BRANCH   5  15
ATOM     15  C   UNL     1       4.312  -2.571  -2.356  0.00  0.00    +0.218 C 
ATOM     16  O   UNL     1       4.031  -1.938  -1.361  0.00  0.00    -0.275 OA
ATOM     17  N   UNL     1       5.583  -2.969  -2.565  0.00  0.00    -0.315 N 
ATOM     18  H   UNL     1       5.808  -3.475  -3.361  0.00  0.00    +0.149 HD
BRANCH  17  19
ATOM     19  C   UNL     1       6.624  -2.637  -1.589  0.00  0.00    +0.104 C 
BRANCH  19  20
ATOM     20  C   UNL     1       7.965  -3.202  -2.062  0.00  0.00    +0.017 C 
BRANCH  20  21
ATOM     21  C   UNL     1       9.052  -2.855  -1.043  0.00  0.00    -0.017 C 
BRANCH  21  22
ATOM     22  C   UNL     1      10.393  -3.420  -1.516  0.00  0.00    -0.080 C 
BRANCH  22  23
ATOM     23  N   UNL     1      11.437  -3.087  -0.537  0.00  0.00    +0.376 N 
ATOM     24  C   UNL     1      12.699  -3.730  -0.929  0.00  0.00    -0.097 C 
ATOM     25  C   UNL     1      11.622  -1.631  -0.495  0.00  0.00    -0.097 C 
ATOM     26  H   UNL     1      11.161  -3.418   0.375  0.00  0.00    -0.083 HD
ENDBRANCH  22  23
ENDBRANCH  21  22
ENDBRANCH  20  21
ENDBRANCH  19  20
ENDBRANCH  17  19
ENDBRANCH   5  15
BRANCH   1  27
ATOM     27  C   UNL     1       0.376  -0.397  -1.305  0.00  0.00    +0.072 C 
ATOM     28  C   UNL     1       0.222  -0.021   0.170  0.00  0.00    +0.017 C 
BRANCH  27  30
ATOM     29  C   UNL     1      -0.658   1.746  -2.068  0.00  0.00    +0.004 C 
ATOM     30  C   UNL     1      -0.769   0.220  -2.111  0.00  0.00    +0.009 C 
ENDBRANCH  27  30
ENDBRANCH   1  27
TORSDOF 8
