REMARK  Name = ZINC05102279
REMARK  3 active torsions:
REMARK  status: ('A' for Active; 'I' for Inactive)
REMARK    1  A    between atoms: C_4  and  C_7
REMARK    2  A    between atoms: C_10  and  C_12
REMARK    3  A    between atoms: C_22  and  C_24
REMARK                            x       y       z     vdW  Elec       q    Type
REMARK                         _______ _______ _______ _____ _____    ______ ____
ROOT
ATOM      1  C   UNL     1      -2.462  10.665   1.039  0.00  0.00    +0.063 C 
ATOM      2  C   UNL     1      -1.548   9.662   0.750  0.00  0.00    +0.084 C 
ATOM      3  C   UNL     1      -1.982   8.277   0.428  0.00  0.00    +0.153 C 
ATOM      4  N   UNL     1      -3.098   8.002  -0.197  0.00  0.00    -0.283 NA
ATOM      5  N   UNL     1      -1.074   7.287   0.862  0.00  0.00    -0.152 N 
ATOM      6  C   UNL     1       0.233   7.669   1.077  0.00  0.00    +0.181 C 
ATOM      7  N   UNL     1       0.734   8.876   0.996  0.00  0.00    -0.152 NA
ATOM      8  C   UNL     1      -0.089   9.915   0.746  0.00  0.00    +0.273 C 
ATOM      9  O   UNL     1       0.356  11.030   0.523  0.00  0.00    -0.268 OA
ATOM     10  S   UNL     1       1.016   6.127   1.470  0.00  0.00    -0.033 S 
ATOM     11  C   UNL     1      -0.438   5.092   1.375  0.00  0.00    +0.130 C 
ATOM     12  N   UNL     1      -1.371   5.953   1.048  0.00  0.00    -0.164 NA
ATOM     13  H   UNL     1      -3.335   7.080  -0.383  0.00  0.00    +0.188 HD
ENDROOT
BRANCH  11  14
ATOM     14  C   UNL     1      -0.557   3.635   1.600  0.00  0.00    +0.009 A 
ATOM     15  C   UNL     1       0.569   2.884   1.939  0.00  0.00    +0.010 A 
ATOM     16  C   UNL     1       0.452   1.525   2.148  0.00  0.00    +0.001 A 
ATOM     17  C   UNL     1      -0.779   0.907   2.022  0.00  0.00    +0.000 A 
ATOM     18  C   UNL     1      -1.899   1.645   1.681  0.00  0.00    +0.001 A 
ATOM     19  C   UNL     1      -1.796   3.005   1.475  0.00  0.00    +0.010 A 
ENDBRANCH  11  14
BRANCH   1  23
ATOM     20  C   UNL     1      -0.702  13.445   2.390  0.00  0.00    +0.136 A 
ATOM     21  C   UNL     1      -1.958  14.004   2.281  0.00  0.00    +0.050 A 
ATOM     22  C   UNL     1      -2.797  13.024   1.752  0.00  0.00    +0.050 A 
ATOM     23  C   UNL     1      -2.017  11.892   1.557  0.00  0.00    +0.129 A 
ATOM     24  O   UNL     1      -0.759  12.174   1.956  0.00  0.00    -0.455 OA
BRANCH  20  28
ATOM     25  C   UNL     1       2.760  15.406   3.869  0.00  0.00    +0.000 A 
ATOM     26  C   UNL     1       2.842  14.091   3.446  0.00  0.00    +0.001 A 
ATOM     27  C   UNL     1       1.721  13.447   2.965  0.00  0.00    +0.011 A 
ATOM     28  C   UNL     1       0.501  14.127   2.905  0.00  0.00    +0.017 A 
ATOM     29  C   UNL     1       0.428  15.456   3.328  0.00  0.00    +0.011 A 
ATOM     30  C   UNL     1       1.556  16.085   3.812  0.00  0.00    +0.001 A 
ENDBRANCH  20  28
ENDBRANCH   1  23
TORSDOF 3
