REMARK  Name = ZINC09111824
REMARK  7 active torsions:
REMARK  status: ('A' for Active; 'I' for Inactive)
REMARK    1  A    between atoms: C_1  and  C_2
REMARK    2  A    between atoms: C_5  and  N_8
REMARK    3  A    between atoms: C_11  and  C_16
REMARK    4  A    between atoms: C_16  and  S_17
REMARK    5  A    between atoms: S_17  and  C_18
REMARK    6  A    between atoms: C_21  and  C_26
REMARK    7  A    between atoms: N_22  and  C_23
REMARK                            x       y       z     vdW  Elec       q    Type
REMARK                         _______ _______ _______ _____ _____    ______ ____
ROOT
ATOM      1  N   UNL     1       1.740   3.329  -0.828  0.00  0.00    -0.284 N 
ATOM      2  C   UNL     1       2.860   4.103  -0.594  0.00  0.00    +0.224 A 
ATOM      3  N   UNL     1       2.733   5.410  -0.376  0.00  0.00    -0.198 NA
ATOM      4  C   UNL     1       3.803   6.150  -0.147  0.00  0.00    +0.146 A 
ATOM      5  N   UNL     1       5.004   5.598  -0.144  0.00  0.00    -0.199 NA
ATOM      6  C   UNL     1       5.140   4.293  -0.367  0.00  0.00    +0.217 A 
ATOM      7  N   UNL     1       4.066   3.545  -0.592  0.00  0.00    -0.181 NA
ATOM      8  N   UNL     1       6.394   3.718  -0.364  0.00  0.00    -0.327 N 
ATOM      9  H   UNL     1       0.869   3.748  -0.908  0.00  0.00    +0.155 HD
ATOM     10  H   UNL     1       6.492   2.767  -0.526  0.00  0.00    +0.145 HD
ATOM     11  H   UNL     1       7.178   4.265  -0.200  0.00  0.00    +0.145 HD
ENDROOT
BRANCH   1  16
ATOM     12  C   UNL     1       2.234  -2.301  -1.314  0.00  0.00    +0.044 C 
ATOM     13  C   UNL     1       2.102  -0.805  -1.184  0.00  0.00    -0.050 A 
ATOM     14  C   UNL     1       2.944  -0.110  -0.336  0.00  0.00    +0.005 A 
ATOM     15  C   UNL     1       2.827   1.261  -0.216  0.00  0.00    +0.023 A 
ATOM     16  C   UNL     1       1.862   1.941  -0.948  0.00  0.00    +0.034 A 
ATOM     17  C   UNL     1       1.018   1.239  -1.799  0.00  0.00    +0.023 A 
ATOM     18  C   UNL     1       1.141  -0.132  -1.915  0.00  0.00    +0.005 A 
ENDBRANCH   1  16
BRANCH   4  19
ATOM     19  C   UNL     1       3.655   7.628   0.107  0.00  0.00    +0.153 C 
BRANCH  19  20
ATOM     20  S   UNL     1       3.737   8.521  -1.466  0.00  0.00    -0.078 S 
BRANCH  20  21
ATOM     21  C   UNL     1       3.541  10.174  -0.889  0.00  0.00    +0.193 A 
ATOM     22  N   UNL     1       3.379  10.551   0.360  0.00  0.00    -0.122 NA
ATOM     23  N   UNL     1       3.271  11.829   0.425  0.00  0.00    -0.128 NA
ATOM     24  C   UNL     1       3.348  12.348  -0.779  0.00  0.00    +0.168 A 
ATOM     25  N   UNL     1       3.523  11.304  -1.657  0.00  0.00    -0.299 N 
BRANCH  24  26
ATOM     26  C   UNL     1       3.263  13.782  -1.125  0.00  0.00    +0.054 A 
ATOM     27  C   UNL     1       4.191  14.349  -1.999  0.00  0.00    +0.014 A 
ATOM     28  C   UNL     1       4.106  15.688  -2.319  0.00  0.00    +0.001 A 
ATOM     29  C   UNL     1       3.103  16.471  -1.774  0.00  0.00    +0.003 A 
ATOM     30  C   UNL     1       2.179  15.918  -0.906  0.00  0.00    +0.039 A 
ATOM     31  C   UNL     1       2.249  14.576  -0.582  0.00  0.00    +0.134 A 
ATOM     32  F   UNL     1       1.343  14.035   0.261  0.00  0.00    -0.205 F 
ENDBRANCH  24  26
BRANCH  25  33
ATOM     33  C   UNL     1       3.662  11.386  -3.114  0.00  0.00    +0.091 C 
ATOM     34  C   UNL     1       3.453  10.101  -3.917  0.00  0.00    +0.027 C 
ATOM     35  C   UNL     1       4.860  10.679  -3.750  0.00  0.00    +0.027 C 
ENDBRANCH  25  33
ENDBRANCH  20  21
ENDBRANCH  19  20
ENDBRANCH   4  19
TORSDOF 6
