REMARK  Name = ZINC04083863
REMARK  6 active torsions:
REMARK  status: ('A' for Active; 'I' for Inactive)
REMARK    1  A    between atoms: C_1  and  C_2
REMARK    2  A    between atoms: C_2  and  O_4
REMARK    3  A    between atoms: O_4  and  C_5
REMARK    4  A    between atoms: C_9  and  C_30
REMARK    5  A    between atoms: C_14  and  C_29
REMARK    6  A    between atoms: C_25  and  C_27
REMARK                            x       y       z     vdW  Elec       q    Type
REMARK                         _______ _______ _______ _____ _____    ______ ____
ROOT
ATOM      1  C   UNL     1      -3.774  -7.832  -3.779  0.00  0.00    +0.180 C 
ATOM      2  C   UNL     1      -2.936  -8.153  -2.540  0.00  0.00    +0.046 C 
ATOM      3  C   UNL     1      -2.974  -6.969  -1.571  0.00  0.00    +0.015 C 
ATOM      4  C   UNL     1      -2.340  -5.745  -2.240  0.00  0.00    -0.008 C 
ATOM      5  C   UNL     1      -2.385  -4.556  -1.295  0.00  0.00    +0.003 C 
ATOM      6  C   UNL     1      -1.307  -4.706  -0.225  0.00  0.00    +0.005 C 
ATOM      7  C   UNL     1      -1.260  -3.488   0.711  0.00  0.00    +0.008 C 
ATOM      8  C   UNL     1      -1.020  -2.267  -0.157  0.00  0.00    -0.016 C 
ATOM      9  C   UNL     1      -2.260  -2.103  -1.077  0.00  0.00    -0.001 C 
ATOM     10  C   UNL     1      -2.228  -3.250  -2.086  0.00  0.00    +0.000 C 
ATOM     11  C   UNL     1      -3.432  -3.115  -3.027  0.00  0.00    +0.031 C 
ATOM     12  C   UNL     1      -3.496  -4.330  -3.906  0.00  0.00    -0.027 C 
ATOM     13  C   UNL     1      -3.016  -5.487  -3.553  0.00  0.00    -0.064 C 
ATOM     14  C   UNL     1      -3.150  -6.648  -4.524  0.00  0.00    +0.075 C 
ATOM     15  C   UNL     1      -2.038  -0.700  -1.651  0.00  0.00    +0.005 C 
ATOM     16  C   UNL     1      -1.546   0.108  -0.416  0.00  0.00    +0.016 C 
ATOM     17  C   UNL     1      -0.941  -0.926   0.566  0.00  0.00    +0.108 C 
ATOM     18  C   UNL     1       0.234  -2.473  -1.009  0.00  0.00    +0.012 C 
ATOM     19  C   UNL     1      -0.873  -6.069  -2.530  0.00  0.00    +0.016 C 
ENDROOT
BRANCH  17  20
ATOM     20  C   UNL     1       0.495  -0.580   0.868  0.00  0.00    +0.360 C 
ATOM     21  O   UNL     1       1.262  -1.443   1.224  0.00  0.00    -0.246 OA
ATOM     22  O   UNL     1       0.921   0.686   0.741  0.00  0.00    -0.246 OA
ENDBRANCH  17  20
BRANCH   1  23
ATOM     23  O   UNL     1      -3.809  -8.990  -4.653  0.00  0.00    -0.461 OA
BRANCH  23  25
ATOM     24  C   UNL     1      -5.014 -10.330  -6.341  0.00  0.00    +0.136 C 
ATOM     25  C   UNL     1      -4.906  -9.150  -5.409  0.00  0.00    +0.304 C 
ATOM     26  O   UNL     1      -5.808  -8.349  -5.342  0.00  0.00    -0.251 OA
ENDBRANCH  23  25
ENDBRANCH   1  23
TORSDOF 3
