REMARK  Name = ZINC08867499
REMARK  10 active torsions:
REMARK  status: ('A' for Active; 'I' for Inactive)
REMARK    1  A    between atoms: C_1  and  C_2
REMARK    2  A    between atoms: C_6  and  C_34
REMARK    3  A    between atoms: C_7  and  N_8
REMARK    4  A    between atoms: C_9  and  C_13
REMARK    5  A    between atoms: C_13  and  C_15
REMARK    6  A    between atoms: C_13  and  N_60
REMARK    7  A    between atoms: C_21  and  C_22
REMARK    8  A    between atoms: C_21  and  N_60
REMARK    9  A    between atoms: C_22  and  C_23
REMARK   10  A    between atoms: C_24  and  C_33
REMARK                            x       y       z     vdW  Elec       q    Type
REMARK                         _______ _______ _______ _____ _____    ______ ____
ROOT
ATOM      1  C   UNL     1      -1.842   6.096   0.048  0.00  0.00    +0.030 C 
ENDROOT
BRANCH   1   2
ATOM      2  C   UNL     1      -2.139   6.387   1.497  0.00  0.00    -0.054 A 
ATOM      3  C   UNL     1      -2.297   7.693   1.921  0.00  0.00    +0.002 A 
ATOM      4  C   UNL     1      -2.574   7.960   3.248  0.00  0.00    +0.000 A 
ATOM      5  C   UNL     1      -2.683   6.922   4.154  0.00  0.00    +0.000 A 
ATOM      6  C   UNL     1      -2.519   5.616   3.731  0.00  0.00    +0.000 A 
ATOM      7  C   UNL     1      -2.247   5.348   2.403  0.00  0.00    +0.002 A 
ENDBRANCH   1   2
BRANCH   1   9
ATOM      8  N   UNL     1       0.637   5.645  -0.354  0.00  0.00    -0.198 N 
ATOM      9  C   UNL     1      -0.419   6.483  -0.261  0.00  0.00    +0.147 A 
ATOM     10  N   UNL     1       0.024   7.692  -0.488  0.00  0.00    -0.114 NA
ATOM     11  N   UNL     1       1.287   7.676  -0.718  0.00  0.00    -0.023 NA
ATOM     12  N   UNL     1       1.737   6.469  -0.649  0.00  0.00    -0.039 NA
BRANCH   8  19
ATOM     13  C   UNL     1       1.909   4.566   1.953  0.00  0.00    +0.046 C 
ATOM     14  C   UNL     1       1.246   3.686   0.925  0.00  0.00    -0.025 A 
ATOM     15  C   UNL     1       1.243   2.314   1.089  0.00  0.00    +0.005 A 
ATOM     16  C   UNL     1       0.634   1.506   0.146  0.00  0.00    +0.001 A 
ATOM     17  C   UNL     1       0.031   2.067  -0.964  0.00  0.00    +0.005 A 
ATOM     18  C   UNL     1       0.026   3.438  -1.130  0.00  0.00    -0.025 A 
ATOM     19  C   UNL     1       0.636   4.253  -0.186  0.00  0.00    +0.075 A 
ATOM     20  C   UNL     1      -0.636   4.050  -2.338  0.00  0.00    +0.046 C 
ENDBRANCH   8  19
ENDBRANCH   1   9
BRANCH   1  21
ATOM     21  N   UNL     1      -2.753   6.878  -0.808  0.00  0.00    +0.389 N 
ATOM     22  H   UNL     1      -2.315   7.024  -1.725  0.00  0.00    -0.084 HD
ATOM     23  H   UNL     1      -2.935   7.788  -0.367  0.00  0.00    -0.084 HD
BRANCH  21  24
ATOM     24  C   UNL     1      -4.029   6.161  -0.988  0.00  0.00    -0.076 C 
BRANCH  24  25
ATOM     25  C   UNL     1      -4.952   6.995  -1.879  0.00  0.00    +0.018 C 
BRANCH  25  26
ATOM     26  C   UNL     1      -6.259   6.269  -2.067  0.00  0.00    -0.021 A 
ATOM     27  C   UNL     1      -6.554   5.397  -3.045  0.00  0.00    +0.017 A 
ATOM     28  N   UNL     1      -7.835   4.939  -2.890  0.00  0.00    -0.358 N 
ATOM     29  H   UNL     1      -8.271   4.298  -3.473  0.00  0.00    +0.166 HD
ATOM     30  C   UNL     1      -8.412   5.526  -1.787  0.00  0.00    +0.047 A 
ATOM     31  C   UNL     1      -7.451   6.385  -1.223  0.00  0.00    +0.003 A 
ATOM     32  C   UNL     1      -7.761   7.122  -0.079  0.00  0.00    +0.010 A 
ATOM     33  C   UNL     1      -8.999   7.007   0.488  0.00  0.00    +0.001 A 
ATOM     34  C   UNL     1      -9.951   6.161  -0.065  0.00  0.00    +0.002 A 
ATOM     35  C   UNL     1      -9.666   5.423  -1.193  0.00  0.00    +0.026 A 
ATOM     36  C   UNL     1      -5.614   4.982  -4.146  0.00  0.00    +0.063 C 
ENDBRANCH  25  26
ENDBRANCH  24  25
ENDBRANCH  21  24
ENDBRANCH   1  21
TORSDOF 7
