REMARK  Name = ZINC37131173
REMARK  5 active torsions:
REMARK  status: ('A' for Active; 'I' for Inactive)
REMARK    1  A    between atoms: C_1  and  C_2
REMARK    2  A    between atoms: C_7  and  C_21
REMARK    3  A    between atoms: C_9  and  N_10
REMARK    4  A    between atoms: N_10  and  C_11
REMARK    5  A    between atoms: C_14  and  N_18
REMARK                            x       y       z     vdW  Elec       q    Type
REMARK                         _______ _______ _______ _____ _____    ______ ____
ROOT
ATOM      1  N   UNL     1       0.056  -0.038   2.447  0.00  0.00    -0.340 N 
ATOM      2  H   UNL     1      -0.888   0.180   2.413  0.00  0.00    +0.146 HD
ENDROOT
BRANCH   1   9
ATOM      3  C   UNL     1      -0.019   1.526   0.010  0.00  0.00    +0.009 C 
ATOM      4  C   UNL     1       0.002  -0.004   0.002  0.00  0.00    +0.006 C 
ATOM      5  C   UNL     1       0.718  -0.497  -1.257  0.00  0.00    +0.005 C 
ATOM      6  C   UNL     1       0.739  -2.027  -1.265  0.00  0.00    +0.001 C 
ATOM      7  C   UNL     1       1.479  -2.534  -0.026  0.00  0.00    +0.005 C 
ATOM      8  C   UNL     1       0.763  -2.041   1.233  0.00  0.00    +0.006 C 
ATOM      9  C   UNL     1       0.742  -0.511   1.242  0.00  0.00    +0.076 C 
ATOM     10  C   UNL     1      -0.673  -2.570   1.244  0.00  0.00    +0.009 C 
ENDBRANCH   1   9
BRANCH   1  11
ATOM     11  C   UNL     1       0.763   0.098   3.644  0.00  0.00    +0.042 A 
ATOM     12  C   UNL     1       2.117  -0.208   3.693  0.00  0.00    +0.026 A 
ATOM     13  C   UNL     1       2.813  -0.072   4.878  0.00  0.00    +0.034 A 
ATOM     14  C   UNL     1       2.163   0.369   6.016  0.00  0.00    +0.127 A 
ATOM     15  C   UNL     1       0.815   0.675   5.973  0.00  0.00    +0.049 A 
ATOM     16  C   UNL     1       0.114   0.546   4.789  0.00  0.00    +0.041 A 
ATOM     17 BR   UNL     1      -1.727   0.972   4.728  0.00  0.00    -0.048 Br
BRANCH  14  18
ATOM     18  N   UNL     1       2.912   0.513   7.285  0.00  0.00    +0.056 N 
ATOM     19  O   UNL     1       4.090   0.245   7.325  0.00  0.00    -0.126 OA
ATOM     20  O   UNL     1       2.345   0.898   8.281  0.00  0.00    -0.126 OA
ENDBRANCH  14  18
ENDBRANCH   1  11
TORSDOF 3
