REMARK  Name = ZINC59010669
REMARK  6 active torsions:
REMARK  status: ('A' for Active; 'I' for Inactive)
REMARK    1  A    between atoms: C_1  and  C_2
REMARK    2  A    between atoms: C_5  and  C_7
REMARK    3  A    between atoms: C_9  and  C_12
REMARK    4  A    between atoms: C_12  and  N_13
REMARK    5  A    between atoms: C_16  and  C_20
REMARK    6  A    between atoms: C_16  and  C_21
REMARK                            x       y       z     vdW  Elec       q    Type
REMARK                         _______ _______ _______ _____ _____    ______ ____
ROOT
ATOM      1  N   UNL     1       5.646  -4.227  -1.414  0.00  0.00    -0.218 N 
ATOM      2  C   UNL     1       5.899  -5.266  -2.234  0.00  0.00    +0.251 C 
ATOM      3  O   UNL     1       5.772  -6.446  -1.982  0.00  0.00    -0.272 OA
ATOM      4  C   UNL     1       6.375  -4.655  -3.537  0.00  0.00    +0.135 C 
ATOM      5  N   UNL     1       6.330  -3.206  -3.275  0.00  0.00    -0.281 N 
ATOM      6  C   UNL     1       5.889  -3.056  -2.014  0.00  0.00    +0.310 C 
ATOM      7  O   UNL     1       5.731  -1.977  -1.477  0.00  0.00    -0.252 OA
ATOM      8  C   UNL     1       7.803  -5.102  -3.852  0.00  0.00    +0.047 C 
ATOM      9  H   UNL     1       6.570  -2.498  -3.893  0.00  0.00    +0.152 HD
ENDROOT
BRANCH   4  10
ATOM     10  C   UNL     1       5.443  -5.018  -4.665  0.00  0.00    -0.012 A 
ATOM     11  C   UNL     1       4.750  -6.214  -4.627  0.00  0.00    +0.010 A 
ATOM     12  C   UNL     1       3.893  -6.555  -5.659  0.00  0.00    +0.050 A 
ATOM     13  C   UNL     1       3.731  -5.692  -6.729  0.00  0.00    +0.162 A 
ATOM     14  C   UNL     1       4.427  -4.492  -6.767  0.00  0.00    +0.162 A 
ATOM     15  C   UNL     1       5.280  -4.152  -5.731  0.00  0.00    +0.055 A 
ATOM     16  O   UNL     1       4.259  -3.648  -7.826  0.00  0.00    -0.488 OA
ATOM     17  C   UNL     1       4.775  -4.107  -9.078  0.00  0.00    +0.232 C 
ATOM     18  C   UNL     1       3.769  -5.006  -9.778  0.00  0.00    +0.082 C 
ATOM     19  C   UNL     1       3.509  -6.293  -9.010  0.00  0.00    +0.232 C 
ATOM     20  O   UNL     1       2.888  -6.015  -7.753  0.00  0.00    -0.488 OA
ENDBRANCH   4  10
BRANCH   1  21
ATOM     21  C   UNL     1       5.160  -4.363  -0.039  0.00  0.00    +0.174 C 
BRANCH  21  24
ATOM     22  C   UNL     1       1.662  -3.220  -0.025  0.00  0.00    +0.144 A 
ATOM     23  N   UNL     1       2.990  -3.240  -0.027  0.00  0.00    -0.239 NA
ATOM     24  C   UNL     1       3.654  -4.372  -0.037  0.00  0.00    +0.067 A 
ATOM     25  C   UNL     1       2.980  -5.552  -0.047  0.00  0.00    +0.072 A 
ATOM     26  S   UNL     1       1.289  -4.969  -0.033  0.00  0.00    -0.072 S 
BRANCH  22  31
ATOM     27  C   UNL     1      -0.018   1.503   0.010  0.00  0.00    +0.086 C 
ATOM     28  C   UNL     1       0.002  -0.004   0.002  0.00  0.00    +0.103 A 
ATOM     29  C   UNL     1      -1.083  -0.804   0.003  0.00  0.00    +0.045 A 
ATOM     30  C   UNL     1      -0.617  -2.133  -0.008  0.00  0.00    +0.052 A 
ATOM     31  C   UNL     1       0.745  -2.071  -0.014  0.00  0.00    +0.160 A 
ATOM     32  O   UNL     1       1.104  -0.771  -0.013  0.00  0.00    -0.458 OA
ENDBRANCH  22  31
ENDBRANCH  21  24
ENDBRANCH   1  21
TORSDOF 4
