REMARK  Name = ZINC21531584
REMARK  3 active torsions:
REMARK  status: ('A' for Active; 'I' for Inactive)
REMARK    1  A    between atoms: C_1  and  C_2
REMARK    2  A    between atoms: N_11  and  C_12
REMARK    3  A    between atoms: C_15  and  C_18
REMARK                            x       y       z     vdW  Elec       q    Type
REMARK                         _______ _______ _______ _____ _____    ______ ____
ROOT
ATOM      1  C   UNL     1      -0.018   1.503   0.010  0.00  0.00    +0.070 C 
ATOM      2  C   UNL     1       0.002  -0.004   0.002  0.00  0.00    +0.093 A 
ATOM      3  C   UNL     1       0.009  -0.863  -1.179  0.00  0.00    +0.103 A 
ATOM      4  C   UNL     1      -0.001  -0.640  -2.567  0.00  0.00    +0.135 A 
ATOM      5  N   UNL     1       0.010  -1.696  -3.375  0.00  0.00    -0.220 NA
ATOM      6  C   UNL     1       0.029  -2.924  -2.891  0.00  0.00    +0.227 A 
ATOM      7  N   UNL     1       0.038  -3.178  -1.599  0.00  0.00    -0.198 NA
ATOM      8  C   UNL     1       0.029  -2.188  -0.711  0.00  0.00    +0.263 A 
ATOM      9  O   UNL     1       0.035  -2.132   0.631  0.00  0.00    -0.334 OA
ATOM     10  N   UNL     1       0.023  -0.780   1.044  0.00  0.00    -0.080 NA
ATOM     11  N   UNL     1      -0.022   0.642  -3.077  0.00  0.00    -0.326 N 
ATOM     12  H   UNL     1      -0.030   1.404  -2.476  0.00  0.00    +0.148 HD
ENDROOT
BRANCH  11  13
ATOM     13  C   UNL     1      -0.031   0.854  -4.527  0.00  0.00    +0.072 C 
ATOM     14  C   UNL     1      -1.470   0.782  -5.043  0.00  0.00    +0.022 C 
ATOM     15  C   UNL     1      -1.480   1.003  -6.557  0.00  0.00    +0.005 C 
ATOM     16  C   UNL     1      -0.891   2.378  -6.876  0.00  0.00    -0.014 C 
ATOM     17  C   UNL     1       0.547   2.450  -6.360  0.00  0.00    +0.005 C 
ATOM     18  C   UNL     1       0.557   2.229  -4.846  0.00  0.00    +0.022 C 
ATOM     19  C   UNL     1      -0.902   2.599  -8.390  0.00  0.00    +0.007 C 
ENDBRANCH  11  13
TORSDOF 1
