REMARK  Name = ZINC34831325
REMARK  13 active torsions:
REMARK  status: ('A' for Active; 'I' for Inactive)
REMARK    1  A    between atoms: C_1  and  C_2
REMARK    2  A    between atoms: C_2  and  N_3
REMARK    3  A    between atoms: N_6  and  C_9
REMARK    4  A    between atoms: C_10  and  C_22
REMARK    5  A    between atoms: C_11  and  C_21
REMARK    6  A    between atoms: N_13  and  C_14
REMARK    7  A    between atoms: C_22  and  N_23
REMARK    8  A    between atoms: N_23  and  C_24
REMARK    9  A    between atoms: C_24  and  C_25
REMARK   10  A    between atoms: C_25  and  C_26
REMARK   11  A    between atoms: C_25  and  C_27
REMARK   12  A    between atoms: C_28  and  C_30
REMARK   13  A    between atoms: C_34  and  N_36
REMARK                            x       y       z     vdW  Elec       q    Type
REMARK                         _______ _______ _______ _____ _____    ______ ____
ROOT
ATOM      1  C   UNL     1      -3.890  -2.539  -1.402  0.00  0.00    +0.130 A 
ATOM      2  C   UNL     1      -4.005  -3.892  -1.301  0.00  0.00    +0.032 A 
ATOM      3  C   UNL     1      -4.739  -4.344  -2.401  0.00  0.00    +0.067 A 
ATOM      4  N   UNL     1      -5.058  -3.311  -3.140  0.00  0.00    -0.170 NA
ATOM      5  N   UNL     1      -4.543  -2.158  -2.534  0.00  0.00    -0.218 N 
ATOM      6  C   UNL     1      -5.102  -5.778  -2.689  0.00  0.00    +0.068 C 
ENDROOT
BRANCH   1  10
ATOM      7  N   UNL     1      -2.139   0.625   0.595  0.00  0.00    +0.382 N 
ATOM      8  C   UNL     1      -3.599   0.483   0.515  0.00  0.00    -0.060 C 
ATOM      9  C   UNL     1      -3.969  -1.003   0.558  0.00  0.00    +0.088 C 
ATOM     10  N   UNL     1      -3.233  -1.699  -0.508  0.00  0.00    -0.318 N 
ATOM     11  C   UNL     1      -1.781  -1.482  -0.603  0.00  0.00    +0.088 C 
ATOM     12  C   UNL     1      -1.513   0.027  -0.591  0.00  0.00    -0.060 C 
ATOM     13  H   UNL     1      -1.803   0.157   1.423  0.00  0.00    -0.082 HD
BRANCH   7  15
ATOM     14  C   UNL     1      -2.338   2.646   1.962  0.00  0.00    -0.017 C 
ATOM     15  C   UNL     1      -1.791   2.050   0.664  0.00  0.00    -0.082 C 
ENDBRANCH   7  15
ENDBRANCH   1  10
BRANCH   5  16
ATOM     16  C   UNL     1      -4.673  -0.846  -3.011  0.00  0.00    +0.070 A 
ATOM     17  C   UNL     1      -5.052   0.173  -2.147  0.00  0.00    +0.028 A 
ATOM     18  C   UNL     1      -5.179   1.465  -2.618  0.00  0.00    +0.005 A 
ATOM     19  C   UNL     1      -4.930   1.745  -3.949  0.00  0.00    +0.038 A 
ATOM     20  C   UNL     1      -4.552   0.732  -4.814  0.00  0.00    +0.125 A 
ATOM     21  C   UNL     1      -4.418  -0.563  -4.345  0.00  0.00    +0.066 A 
ATOM     22  F   UNL     1      -4.310   1.008  -6.114  0.00  0.00    -0.205 F 
ENDBRANCH   5  16
BRANCH   2  23
ATOM     23  C   UNL     1      -3.440  -4.750  -0.198  0.00  0.00    +0.148 C 
BRANCH  23  24
ATOM     24  N   UNL     1      -4.480  -5.008   0.801  0.00  0.00    -0.293 N 
ATOM     25  C   UNL     1      -4.561  -4.236   1.903  0.00  0.00    +0.247 C 
ATOM     26  O   UNL     1      -3.816  -3.285   2.036  0.00  0.00    -0.270 OA
BRANCH  25  27
ATOM     27  C   UNL     1      -5.557  -4.546   2.951  0.00  0.00    +0.039 A 
ATOM     28  C   UNL     1      -6.058  -5.843   3.080  0.00  0.00    +0.013 A 
ATOM     29  C   UNL     1      -6.987  -6.126   4.060  0.00  0.00    +0.003 A 
ATOM     30  C   UNL     1      -7.423  -5.128   4.913  0.00  0.00    +0.033 A 
ATOM     31  C   UNL     1      -6.931  -3.840   4.790  0.00  0.00    +0.127 A 
ATOM     32  C   UNL     1      -5.997  -3.546   3.818  0.00  0.00    +0.045 A 
BRANCH  31  33
ATOM     33  N   UNL     1      -7.403  -2.779   5.707  0.00  0.00    +0.056 N 
ATOM     34  O   UNL     1      -8.217  -3.037   6.562  0.00  0.00    -0.126 OA
ATOM     35  O   UNL     1      -6.974  -1.653   5.601  0.00  0.00    -0.126 OA
ENDBRANCH  31  33
ENDBRANCH  25  27
BRANCH  24  36
ATOM     36  C   UNL     1      -5.431  -6.104   0.603  0.00  0.00    +0.111 C 
BRANCH  36  37
ATOM     37  C   UNL     1      -4.728  -7.441   0.852  0.00  0.00    +0.000 C 
ATOM     38  C   UNL     1      -3.723  -7.283   1.994  0.00  0.00    +0.009 C 
ATOM     39  C   UNL     1      -5.765  -8.501   1.227  0.00  0.00    +0.009 C 
ENDBRANCH  36  37
ENDBRANCH  24  36
ENDBRANCH  23  24
ENDBRANCH   2  23
TORSDOF 9
