REMARK  Name = ZINC09586247
REMARK  9 active torsions:
REMARK  status: ('A' for Active; 'I' for Inactive)
REMARK    1  A    between atoms: C_1  and  O_2
REMARK    2  A    between atoms: O_2  and  C_3
REMARK    3  A    between atoms: C_3  and  C_4
REMARK    4  A    between atoms: C_4  and  N_64
REMARK    5  A    between atoms: C_5  and  C_6
REMARK    6  A    between atoms: C_5  and  N_64
REMARK    7  A    between atoms: C_18  and  C_19
REMARK    8  A    between atoms: C_18  and  N_64
REMARK    9  A    between atoms: C_24  and  C_27
REMARK                            x       y       z     vdW  Elec       q    Type
REMARK                         _______ _______ _______ _____ _____    ______ ____
ROOT
ATOM      1  N   UNL     1       2.060   5.450  -0.183  0.00  0.00    +0.392 N 
ATOM      2  H   UNL     1       1.308   5.689   0.473  0.00  0.00    -0.080 HD
ENDROOT
BRANCH   1   3
ATOM      3  C   UNL     1       1.636   5.811  -1.552  0.00  0.00    -0.049 C 
BRANCH   3   4
ATOM      4  C   UNL     1       2.675   5.348  -2.576  0.00  0.00    +0.141 C 
BRANCH   4   6
ATOM      5  C   UNL     1       3.600   3.378  -3.580  0.00  0.00    +0.193 C 
ATOM      6  O   UNL     1       2.597   3.929  -2.725  0.00  0.00    -0.385 OA
ENDBRANCH   4   6
ENDBRANCH   3   4
ENDBRANCH   1   3
BRANCH   1   7
ATOM      7  C   UNL     1       2.325   3.998  -0.103  0.00  0.00    -0.002 C 
BRANCH   7   8
ATOM      8  C   UNL     1       1.017   3.259  -0.225  0.00  0.00    +0.094 A 
ATOM      9  N   UNL     1       1.035   1.902  -0.157  0.00  0.00    -0.312 N 
ATOM     10  H   UNL     1       1.878   1.438  -0.033  0.00  0.00    +0.170 HD
ATOM     11  C   UNL     1      -0.112   1.192  -0.262  0.00  0.00    +0.259 A 
ATOM     12  O   UNL     1      -0.110  -0.024  -0.204  0.00  0.00    -0.267 OA
ATOM     13  C   UNL     1      -1.360   1.946  -0.455  0.00  0.00    +0.065 A 
ATOM     14  C   UNL     1      -2.595   1.311  -0.568  0.00  0.00    +0.015 A 
ATOM     15  C   UNL     1      -3.733   2.066  -0.742  0.00  0.00    +0.001 A 
ATOM     16  C   UNL     1      -3.659   3.452  -0.799  0.00  0.00    +0.002 A 
ATOM     17  C   UNL     1      -2.450   4.099  -0.684  0.00  0.00    +0.028 A 
ATOM     18  C   UNL     1      -1.281   3.355  -0.507  0.00  0.00    +0.078 A 
ATOM     19  N   UNL     1      -0.069   3.951  -0.389  0.00  0.00    -0.236 NA
ENDBRANCH   7   8
ENDBRANCH   1   7
BRANCH   1  20
ATOM     20  C   UNL     1       3.276   6.206   0.185  0.00  0.00    +0.019 C 
BRANCH  20  21
ATOM     21  C   UNL     1       2.889   7.634   0.471  0.00  0.00    +0.199 C 
ATOM     22  O   UNL     1       1.746   7.999   0.298  0.00  0.00    -0.278 OA
ATOM     23  N   UNL     1       3.814   8.506   0.919  0.00  0.00    -0.303 N 
ATOM     24  C   UNL     1       5.223   8.107   1.040  0.00  0.00    +0.108 C 
ATOM     25  C   UNL     1       5.703   8.399   2.460  0.00  0.00    +0.029 C 
ATOM     26  C   UNL     1       5.435   9.868   2.795  0.00  0.00    +0.048 C 
ATOM     27  C   UNL     1       3.931  10.143   2.726  0.00  0.00    +0.029 C 
ATOM     28  C   UNL     1       3.432   9.872   1.303  0.00  0.00    +0.108 C 
BRANCH  26  29
ATOM     29  C   UNL     1       5.936  10.166   4.185  0.00  0.00    +0.083 A 
ATOM     30  N   UNL     1       6.842  11.029   4.550  0.00  0.00    -0.244 NA
ATOM     31  C   UNL     1       7.202  11.200   5.839  0.00  0.00    +0.078 A 
ATOM     32  C   UNL     1       8.156  12.086   6.387  0.00  0.00    +0.029 A 
ATOM     33  C   UNL     1       8.386  12.117   7.727  0.00  0.00    +0.002 A 
ATOM     34  C   UNL     1       7.699  11.288   8.603  0.00  0.00    +0.001 A 
ATOM     35  C   UNL     1       6.757  10.407   8.106  0.00  0.00    +0.017 A 
ATOM     36  C   UNL     1       6.518  10.368   6.754  0.00  0.00    +0.039 A 
ATOM     37  S   UNL     1       5.441   9.446   5.685  0.00  0.00    -0.072 S 
ENDBRANCH  26  29
ENDBRANCH  20  21
ENDBRANCH   1  20
TORSDOF 8
