REMARK  Name = ZINC11855128
REMARK  10 active torsions:
REMARK  status: ('A' for Active; 'I' for Inactive)
REMARK    1  A    between atoms: C_1  and  C_2
REMARK    2  A    between atoms: C_2  and  C_3
REMARK    3  A    between atoms: C_4  and  C_34
REMARK    4  A    between atoms: C_12  and  N_21
REMARK    5  A    between atoms: C_14  and  C_16
REMARK    6  A    between atoms: C_22  and  C_24
REMARK    7  A    between atoms: C_24  and  O_25
REMARK    8  A    between atoms: O_25  and  C_26
REMARK    9  A    between atoms: C_31  and  O_32
REMARK   10  A    between atoms: O_32  and  C_33
REMARK                            x       y       z     vdW  Elec       q    Type
REMARK                         _______ _______ _______ _____ _____    ______ ____
ROOT
ATOM      1  C   UNL     1      -1.479  -8.995  -0.057  0.00  0.00    +0.038 A 
ATOM      2  C   UNL     1      -1.085  -7.689  -0.048  0.00  0.00    +0.050 A 
ATOM      3  N   UNL     1      -1.996  -6.718  -0.034  0.00  0.00    -0.217 NA
ATOM      4  C   UNL     1      -3.284  -6.986  -0.017  0.00  0.00    +0.234 A 
ATOM      5  N   UNL     1      -3.737  -8.268  -0.025  0.00  0.00    -0.291 N 
ATOM      6  H   UNL     1      -4.690  -8.447  -0.017  0.00  0.00    +0.172 HD
ATOM      7  C   UNL     1      -2.855  -9.290  -0.045  0.00  0.00    +0.256 A 
ATOM      8  O   UNL     1      -3.244 -10.447  -0.052  0.00  0.00    -0.267 OA
ATOM      9  N   UNL     1      -4.193  -5.946   0.003  0.00  0.00    -0.185 N 
ATOM     10  C   UNL     1      -3.889  -4.614   0.013  0.00  0.00    +0.132 A 
ATOM     11  C   UNL     1      -5.058  -3.925   0.027  0.00  0.00    +0.074 A 
ATOM     12  C   UNL     1      -6.112  -4.863   0.031  0.00  0.00    +0.102 A 
ATOM     13  N   UNL     1      -5.588  -6.072   0.020  0.00  0.00    -0.162 NA
ATOM     14  C   UNL     1       0.382  -7.346  -0.061  0.00  0.00    +0.066 C 
ENDROOT
BRANCH  12  15
ATOM     15  C   UNL     1      -7.556  -4.545   0.045  0.00  0.00    +0.039 A 
ATOM     16  C   UNL     1      -8.627  -5.397   0.050  0.00  0.00    +0.018 A 
ATOM     17  C   UNL     1      -9.898  -4.864   0.064  0.00  0.00    +0.008 A 
ATOM     18  C   UNL     1     -10.049  -3.515   0.072  0.00  0.00    +0.046 A 
ATOM     19  S   UNL     1      -8.356  -2.949   0.067  0.00  0.00    -0.095 S 
ENDBRANCH  12  15
BRANCH  10  20
ATOM     20  N   UNL     1      -2.610  -4.062   0.004  0.00  0.00    -0.267 N 
ATOM     21  C   UNL     1      -2.453  -2.724   0.010  0.00  0.00    +0.256 C 
ATOM     22  O   UNL     1      -3.426  -2.000   0.023  0.00  0.00    -0.272 OA
ATOM     23  H   UNL     1      -1.832  -4.642  -0.006  0.00  0.00    +0.156 HD
BRANCH  21  24
ATOM     24  C   UNL     1      -1.069  -2.127   0.000  0.00  0.00    +0.325 C 
BRANCH  24  25
ATOM     25  O   UNL     1      -1.165  -0.702   0.009  0.00  0.00    -0.479 OA
BRANCH  25  26
ATOM     26  C   UNL     1       0.002  -0.004   0.002  0.00  0.00    +0.163 A 
ATOM     27  C   UNL     1       1.213  -0.677  -0.013  0.00  0.00    +0.049 A 
ATOM     28  C   UNL     1       2.399   0.033  -0.021  0.00  0.00    +0.004 A 
ATOM     29  C   UNL     1       2.380   1.415  -0.013  0.00  0.00    +0.004 A 
ATOM     30  C   UNL     1       1.175   2.093   0.002  0.00  0.00    +0.049 A 
ATOM     31  C   UNL     1      -0.017   1.387   0.010  0.00  0.00    +0.162 A 
BRANCH  31  32
ATOM     32  O   UNL     1      -1.203   2.053   0.019  0.00  0.00    -0.491 OA
ATOM     33  C   UNL     1      -1.146   3.481   0.026  0.00  0.00    +0.277 C 
ENDBRANCH  31  32
ENDBRANCH  25  26
ENDBRANCH  24  25
ENDBRANCH  21  24
ENDBRANCH  10  20
BRANCH   1  35
ATOM     34  C   UNL     1      -0.189 -10.578   1.352  0.00  0.00    +0.009 C 
ATOM     35  C   UNL     1      -0.458 -10.104  -0.078  0.00  0.00    +0.039 C 
ENDBRANCH   1  35
TORSDOF 7
