REMARK  Name = ZINC32508212
REMARK  6 active torsions:
REMARK  status: ('A' for Active; 'I' for Inactive)
REMARK    1  A    between atoms: C_6  and  N_7
REMARK    2  A    between atoms: N_19  and  C_20
REMARK    3  A    between atoms: C_20  and  C_22
REMARK    4  A    between atoms: C_22  and  O_23
REMARK    5  A    between atoms: O_23  and  C_24
REMARK    6  A    between atoms: C_24  and  C_25
REMARK                            x       y       z     vdW  Elec       q    Type
REMARK                         _______ _______ _______ _____ _____    ______ ____
ROOT
ATOM      1  N   UNL     1      -4.987  -5.246   0.021  0.00  0.00    -0.276 N 
ATOM      2  C   UNL     1      -6.417  -5.470  -0.063  0.00  0.00    +0.116 C 
ATOM      3  C   UNL     1      -6.724  -6.316  -1.322  0.00  0.00    +0.190 C 
ATOM      4  S   UNL     1      -8.366  -5.650  -1.833  0.00  0.00    -0.028 S 
ATOM      5  O   UNL     1      -9.387  -6.280  -1.073  0.00  0.00    -0.174 OA
ATOM      6  O   UNL     1      -8.448  -5.637  -3.252  0.00  0.00    -0.174 OA
ATOM      7  C   UNL     1      -8.123  -3.926  -1.220  0.00  0.00    +0.182 C 
ATOM      8  C   UNL     1      -7.235  -4.176   0.015  0.00  0.00    +0.097 C 
ATOM      9  S   UNL     1      -5.914  -2.910   0.077  0.00  0.00    -0.086 S 
ATOM     10  C   UNL     1      -4.491  -3.982   0.065  0.00  0.00    +0.154 C 
ATOM     11  N   UNL     1      -3.213  -3.622   0.098  0.00  0.00    -0.157 NA
ENDROOT
BRANCH   1  17
ATOM     12  C   UNL     1      -3.249  -6.574  -1.002  0.00  0.00    +0.027 A 
ATOM     13  C   UNL     1      -2.384  -7.652  -0.966  0.00  0.00    +0.051 A 
ATOM     14  C   UNL     1      -2.377  -8.501   0.129  0.00  0.00    +0.166 A 
ATOM     15  C   UNL     1      -3.242  -8.267   1.196  0.00  0.00    +0.168 A 
ATOM     16  C   UNL     1      -4.103  -7.184   1.161  0.00  0.00    +0.073 A 
ATOM     17  C   UNL     1      -4.112  -6.339   0.059  0.00  0.00    +0.039 A 
ATOM     18  O   UNL     1      -3.041  -9.233   2.139  0.00  0.00    -0.453 OA
ATOM     19  C   UNL     1      -1.765  -9.820   1.824  0.00  0.00    +0.466 C 
ATOM     20  O   UNL     1      -1.634  -9.614   0.405  0.00  0.00    -0.453 OA
ENDBRANCH   1  17
BRANCH  11  21
ATOM     21  C   UNL     1      -2.887  -2.332   0.139  0.00  0.00    +0.264 C 
ATOM     22  O   UNL     1      -3.758  -1.485   0.146  0.00  0.00    -0.271 OA
BRANCH  21  23
ATOM     23  C   UNL     1      -1.437  -1.923   0.176  0.00  0.00    +0.258 C 
BRANCH  23  24
ATOM     24  O   UNL     1      -1.346  -0.497   0.217  0.00  0.00    -0.359 OA
BRANCH  24  25
ATOM     25  C   UNL     1      -0.006  -0.002   0.254  0.00  0.00    +0.285 C 
BRANCH  25  26
ATOM     26  C   UNL     1      -0.028   1.505   0.295  0.00  0.00    +0.381 C 
ATOM     27  O   UNL     1      -1.083   2.093   0.287  0.00  0.00    -0.244 OA
ATOM     28  O   UNL     1       1.124   2.192   0.335  0.00  0.00    -0.244 OA
ENDBRANCH  25  26
ENDBRANCH  24  25
ENDBRANCH  23  24
ENDBRANCH  21  23
ENDBRANCH  11  21
TORSDOF 6
