REMARK  Name = ZINC64299071
REMARK  8 active torsions:
REMARK  status: ('A' for Active; 'I' for Inactive)
REMARK    1  A    between atoms: C_1  and  C_2
REMARK    2  A    between atoms: C_2  and  C_3
REMARK    3  A    between atoms: C_3  and  C_4
REMARK    4  A    between atoms: C_4  and  C_5
REMARK    5  A    between atoms: C_4  and  N_20
REMARK    6  A    between atoms: N_7  and  C_8
REMARK    7  A    between atoms: C_11  and  S_14
REMARK    8  A    between atoms: S_14  and  C_15
REMARK                            x       y       z     vdW  Elec       q    Type
REMARK                         _______ _______ _______ _____ _____    ______ ____
ROOT
ATOM      1  C   UNL     1      -2.903  -2.449  -0.033  0.00  0.00    +0.238 C 
ATOM      2  O   UNL     1      -3.569  -2.678   0.955  0.00  0.00    -0.273 OA
ATOM      3  N   UNL     1      -3.425  -2.649  -1.259  0.00  0.00    -0.284 N 
ATOM      4  H   UNL     1      -2.921  -2.396  -2.048  0.00  0.00    +0.155 HD
ENDROOT
BRANCH   3   5
ATOM      5  C   UNL     1      -4.696  -3.222  -1.394  0.00  0.00    +0.034 A 
ATOM      6  C   UNL     1      -5.519  -2.846  -2.448  0.00  0.00    +0.024 A 
ATOM      7  C   UNL     1      -6.771  -3.410  -2.582  0.00  0.00    +0.017 A 
ATOM      8  C   UNL     1      -7.209  -4.355  -1.662  0.00  0.00    +0.015 A 
ATOM      9  C   UNL     1      -6.386  -4.731  -0.608  0.00  0.00    +0.017 A 
ATOM     10  C   UNL     1      -5.131  -4.170  -0.478  0.00  0.00    +0.024 A 
BRANCH   8  11
ATOM     11  S   UNL     1      -8.808  -5.075  -1.831  0.00  0.00    -0.061 S 
BRANCH  11  12
ATOM     12  C   UNL     1      -8.514  -6.557  -2.738  0.00  0.00    +0.163 A 
ATOM     13  N   UNL     1      -7.396  -7.015  -3.287  0.00  0.00    -0.135 NA
ATOM     14  N   UNL     1      -7.361  -8.111  -3.909  0.00  0.00    -0.149 NA
ATOM     15  C   UNL     1      -8.429  -8.870  -4.055  0.00  0.00    +0.182 A 
ATOM     16  S   UNL     1      -9.636  -7.881  -3.178  0.00  0.00    -0.047 S 
ENDBRANCH  11  12
ENDBRANCH   8  11
ENDBRANCH   3   5
BRANCH   1  17
ATOM     17  C   UNL     1      -1.491  -1.942   0.112  0.00  0.00    +0.161 C 
BRANCH  17  18
ATOM     18  N   UNL     1      -0.995  -2.252   1.455  0.00  0.00    -0.288 N 
ATOM     19  C   UNL     1      -1.630  -1.762   2.538  0.00  0.00    +0.298 C 
ATOM     20  O   UNL     1      -2.614  -1.061   2.400  0.00  0.00    -0.253 OA
ATOM     21  N   UNL     1      -1.174  -2.048   3.773  0.00  0.00    -0.313 N 
ATOM     22  H   UNL     1      -0.210  -2.811   1.564  0.00  0.00    +0.151 HD
ATOM     23  H   UNL     1      -0.389  -2.607   3.883  0.00  0.00    +0.146 HD
ATOM     24  H   UNL     1      -1.631  -1.695   4.553  0.00  0.00    +0.146 HD
ENDBRANCH  17  18
BRANCH  17  25
ATOM     25  C   UNL     1      -1.470  -0.427  -0.102  0.00  0.00    +0.031 C 
BRANCH  25  27
ATOM     26  C   UNL     1      -0.002   1.586  -0.293  0.00  0.00    +0.004 C 
ATOM     27  C   UNL     1      -0.023   0.071  -0.080  0.00  0.00    -0.001 C 
ENDBRANCH  25  27
ENDBRANCH  17  25
ENDBRANCH   1  17
TORSDOF 7
