REMARK  Name = ZINC01335574
REMARK  10 active torsions:
REMARK  status: ('A' for Active; 'I' for Inactive)
REMARK    1  A    between atoms: C_1  and  C_2
REMARK    2  A    between atoms: C_2  and  C_3
REMARK    3  A    between atoms: C_3  and  C_4
REMARK    4  A    between atoms: C_4  and  C_6
REMARK    5  A    between atoms: C_4  and  N_19
REMARK    6  A    between atoms: N_10  and  C_11
REMARK    7  A    between atoms: C_11  and  C_12
REMARK    8  A    between atoms: N_19  and  C_20
REMARK    9  A    between atoms: N_19  and  C_37
REMARK   10  A    between atoms: C_20  and  C_21
REMARK                            x       y       z     vdW  Elec       q    Type
REMARK                         _______ _______ _______ _____ _____    ______ ____
ROOT
ATOM      1  N   UNL     1      -0.066  -2.347  -3.095  0.00  0.00    +0.391 N 
ATOM      2  H   UNL     1      -0.406  -1.689  -3.781  0.00  0.00    -0.080 HD
ENDROOT
BRANCH   1   3
ATOM      3  C   UNL     1       0.298  -3.604  -3.761  0.00  0.00    -0.067 C 
ATOM      4  C   UNL     1      -0.650  -3.853  -4.936  0.00  0.00    -0.015 C 
ATOM      5  C   UNL     1      -0.270  -5.163  -5.629  0.00  0.00    -0.002 C 
ATOM      6  C   UNL     1      -0.380  -6.318  -4.632  0.00  0.00    -0.000 C 
ATOM      7  C   UNL     1       0.569  -6.070  -3.458  0.00  0.00    -0.002 C 
ATOM      8  C   UNL     1       0.189  -4.760  -2.764  0.00  0.00    -0.015 C 
ENDBRANCH   1   3
BRANCH   1   9
ATOM      9  C   UNL     1       1.115  -1.788  -2.424  0.00  0.00    +0.003 C 
BRANCH   9  10
ATOM     10  C   UNL     1       2.242  -1.660  -3.415  0.00  0.00    +0.138 A 
ATOM     11  N   UNL     1       2.138  -1.647  -4.722  0.00  0.00    -0.115 NA
ATOM     12  N   UNL     1       3.322  -1.522  -5.214  0.00  0.00    -0.023 NA
ATOM     13  N   UNL     1       4.179  -1.455  -4.255  0.00  0.00    -0.044 NA
ATOM     14  N   UNL     1       3.552  -1.531  -3.131  0.00  0.00    -0.226 N 
BRANCH  14  15
ATOM     15  C   UNL     1       4.152  -1.489  -1.795  0.00  0.00    +0.182 C 
BRANCH  15  16
ATOM     16  C   UNL     1       4.632  -2.867  -1.417  0.00  0.00    -0.026 A 
ATOM     17  C   UNL     1       3.931  -3.611  -0.486  0.00  0.00    +0.008 A 
ATOM     18  C   UNL     1       4.370  -4.875  -0.138  0.00  0.00    +0.038 A 
ATOM     19  C   UNL     1       5.512  -5.395  -0.723  0.00  0.00    +0.123 A 
ATOM     20  C   UNL     1       6.213  -4.649  -1.655  0.00  0.00    +0.038 A 
ATOM     21  C   UNL     1       5.770  -3.388  -2.005  0.00  0.00    +0.008 A 
ATOM     22  F   UNL     1       5.942  -6.630  -0.384  0.00  0.00    -0.205 F 
ENDBRANCH  15  16
ENDBRANCH  14  15
ENDBRANCH   9  10
BRANCH   9  23
ATOM     23  C   UNL     1       0.774  -0.408  -1.858  0.00  0.00    -0.008 C 
BRANCH  23  25
ATOM     24  C   UNL     1      -0.030   0.826   0.161  0.00  0.00    +0.004 C 
ATOM     25  C   UNL     1       0.369  -0.545  -0.389  0.00  0.00    -0.005 C 
ENDBRANCH  23  25
ENDBRANCH   9  23
ENDBRANCH   1   9
BRANCH   1  26
ATOM     26  C   UNL     1      -1.118  -2.605  -2.102  0.00  0.00    -0.036 C 
BRANCH  26  27
ATOM     27  C   UNL     1      -2.367  -3.072  -2.803  0.00  0.00    +0.001 A 
ATOM     28  C   UNL     1      -2.859  -4.313  -2.555  0.00  0.00    +0.017 A 
ATOM     29  C   UNL     1      -4.073  -4.736  -3.251  0.00  0.00    +0.002 A 
ATOM     30  C   UNL     1      -4.625  -6.005  -3.036  0.00  0.00    +0.059 A 
ATOM     31  C   UNL     1      -5.772  -6.376  -3.705  0.00  0.00    +0.163 A 
ATOM     32  C   UNL     1      -6.385  -5.489  -4.596  0.00  0.00    +0.164 A 
ATOM     33  C   UNL     1      -5.845  -4.234  -4.817  0.00  0.00    +0.075 A 
ATOM     34  C   UNL     1      -4.690  -3.845  -4.151  0.00  0.00    +0.053 A 
ATOM     35  N   UNL     1      -4.139  -2.597  -4.359  0.00  0.00    -0.322 N 
ATOM     36  H   UNL     1      -4.564  -1.984  -4.979  0.00  0.00    +0.169 HD
ATOM     37  C   UNL     1      -3.025  -2.216  -3.710  0.00  0.00    +0.251 A 
ATOM     38  O   UNL     1      -2.569  -1.104  -3.915  0.00  0.00    -0.268 OA
ATOM     39  O   UNL     1      -7.521  -5.845  -5.254  0.00  0.00    -0.485 OA
ATOM     40  C   UNL     1      -7.830  -7.242  -5.298  0.00  0.00    +0.270 C 
ATOM     41  C   UNL     1      -7.653  -7.819  -3.887  0.00  0.00    +0.270 C 
ATOM     42  O   UNL     1      -6.294  -7.614  -3.487  0.00  0.00    -0.485 OA
ENDBRANCH  26  27
ENDBRANCH   1  26
TORSDOF 9
