REMARK  Name = ZINC56918794
REMARK  4 active torsions:
REMARK  status: ('A' for Active; 'I' for Inactive)
REMARK    1  A    between atoms: C_5  and  N_7
REMARK    2  A    between atoms: C_8  and  C_10
REMARK    3  A    between atoms: C_10  and  C_13
REMARK    4  A    between atoms: C_15  and  C_18
REMARK                            x       y       z     vdW  Elec       q    Type
REMARK                         _______ _______ _______ _____ _____    ______ ____
ROOT
ATOM      1  N   UNL     1       0.640  -1.985   0.912  0.00  0.00    -0.283 N 
ATOM      2  C   UNL     1      -0.328  -2.808   0.460  0.00  0.00    +0.229 C 
ATOM      3  O   UNL     1      -1.446  -2.380   0.267  0.00  0.00    -0.274 OA
ATOM      4  H   UNL     1       1.547  -2.312   1.011  0.00  0.00    +0.155 HD
ENDROOT
BRANCH   1   9
ATOM      5  C   UNL     1      -0.838   1.376   0.753  0.00  0.00    +0.004 A 
ATOM      6  C   UNL     1      -0.323   2.005   1.836  0.00  0.00    +0.031 A 
ATOM      7  C   UNL     1       0.571   1.321   2.704  0.00  0.00    +0.102 A 
ATOM      8  C   UNL     1       0.914  -0.062   2.397  0.00  0.00    +0.121 A 
ATOM      9  C   UNL     1       0.335  -0.662   1.240  0.00  0.00    +0.062 A 
ATOM     10  C   UNL     1      -0.514   0.054   0.454  0.00  0.00    +0.025 A 
ATOM     11  N   UNL     1       1.758  -0.601   3.276  0.00  0.00    -0.189 NA
ATOM     12  S   UNL     1       2.057   0.554   4.356  0.00  0.00    +0.117 S 
ATOM     13  N   UNL     1       1.169   1.777   3.806  0.00  0.00    -0.191 NA
ENDBRANCH   1   9
BRANCH   2  14
ATOM     14  C   UNL     1      -0.020  -4.259   0.194  0.00  0.00    +0.092 C 
ATOM     15  C   UNL     1      -0.149  -4.756  -1.247  0.00  0.00    +0.024 C 
ATOM     16  C   UNL     1      -1.186  -5.168  -0.199  0.00  0.00    +0.024 C 
BRANCH  14  17
ATOM     17  C   UNL     1       1.074  -4.857   1.041  0.00  0.00    +0.099 A 
ATOM     18  C   UNL     1       2.447  -4.628   0.889  0.00  0.00    +0.077 A 
ATOM     19  C   UNL     1       3.103  -5.347   1.845  0.00  0.00    +0.174 A 
ATOM     20  O   UNL     1       2.175  -6.003   2.570  0.00  0.00    -0.354 OA
ATOM     21  N   UNL     1       0.902  -5.673   2.045  0.00  0.00    -0.082 NA
BRANCH  19  22
ATOM     22  C   UNL     1       4.558  -5.398   2.049  0.00  0.00    +0.057 A 
ATOM     23  C   UNL     1       5.283  -6.106   2.989  0.00  0.00    +0.019 A 
ATOM     24  C   UNL     1       6.654  -5.992   2.980  0.00  0.00    +0.008 A 
ATOM     25  C   UNL     1       7.248  -5.194   2.056  0.00  0.00    +0.046 A 
ATOM     26  S   UNL     1       5.851  -4.566   1.140  0.00  0.00    -0.093 S 
ENDBRANCH  19  22
ENDBRANCH  14  17
ENDBRANCH   2  14
TORSDOF 4
