REMARK  Name = ZINC13616316
REMARK  3 active torsions:
REMARK  status: ('A' for Active; 'I' for Inactive)
REMARK    1  A    between atoms: C_4  and  N_7
REMARK    2  A    between atoms: N_7  and  C_8
REMARK    3  A    between atoms: C_13  and  C_15
REMARK                            x       y       z     vdW  Elec       q    Type
REMARK                         _______ _______ _______ _____ _____    ______ ____
ROOT
ATOM      1  C   UNL     1       3.640  -2.011  -0.045  0.00  0.00    +0.107 C 
ATOM      2  C   UNL     1       4.845  -2.683  -0.061  0.00  0.00    +0.166 C 
ATOM      3  C   UNL     1       6.189  -2.094  -0.066  0.00  0.00    +0.366 C 
ATOM      4  O   UNL     1       6.478  -0.911  -0.056  0.00  0.00    -0.243 OA
ATOM      5  O   UNL     1       7.039  -3.143  -0.083  0.00  0.00    -0.399 OA
ATOM      6  C   UNL     1       6.320  -4.283  -0.088  0.00  0.00    +0.267 C 
ATOM      7  N   UNL     1       5.037  -4.037  -0.070  0.00  0.00    -0.201 NA
ENDROOT
BRANCH   6   8
ATOM      8  C   UNL     1       6.904  -5.630  -0.107  0.00  0.00    +0.189 A 
ATOM      9  C   UNL     1       8.235  -5.927  -0.115  0.00  0.00    +0.055 A 
ATOM     10  C   UNL     1       8.338  -7.329  -0.133  0.00  0.00    +0.042 A 
ATOM     11  C   UNL     1       7.080  -7.819  -0.134  0.00  0.00    +0.196 A 
ATOM     12  O   UNL     1       6.217  -6.791  -0.113  0.00  0.00    -0.458 OA
ENDBRANCH   6   8
BRANCH   1  13
ATOM     13  N   UNL     1       3.620  -0.649  -0.037  0.00  0.00    -0.319 N 
ATOM     14  H   UNL     1       4.453  -0.151  -0.043  0.00  0.00    +0.152 HD
BRANCH  13  18
ATOM     15  C   UNL     1      -0.017   1.379   0.010  0.00  0.00    +0.000 A 
ATOM     16  C   UNL     1       1.169   2.090   0.002  0.00  0.00    +0.002 A 
ATOM     17  C   UNL     1       2.377   1.420  -0.013  0.00  0.00    +0.023 A 
ATOM     18  C   UNL     1       2.400   0.031  -0.021  0.00  0.00    +0.031 A 
ATOM     19  C   UNL     1       1.206  -0.680  -0.013  0.00  0.00    +0.023 A 
ATOM     20  C   UNL     1       0.002  -0.004   0.002  0.00  0.00    +0.002 A 
ENDBRANCH  13  18
ENDBRANCH   1  13
TORSDOF 3
