REMARK  Name = ZINC39675700
REMARK  9 active torsions:
REMARK  status: ('A' for Active; 'I' for Inactive)
REMARK    1  A    between atoms: C_1  and  C_2
REMARK    2  A    between atoms: C_2  and  C_3
REMARK    3  A    between atoms: C_7  and  C_16
REMARK    4  A    between atoms: N_18  and  C_19
REMARK    5  A    between atoms: C_19  and  C_20
REMARK    6  A    between atoms: C_20  and  C_22
REMARK    7  A    between atoms: C_20  and  N_28
REMARK    8  A    between atoms: N_28  and  C_29
REMARK    9  A    between atoms: N_28  and  C_30
REMARK                            x       y       z     vdW  Elec       q    Type
REMARK                         _______ _______ _______ _____ _____    ______ ____
ROOT
ATOM      1  C   UNL     1       1.014  -0.644  -2.306  0.00  0.00    +0.215 C 
ATOM      2  O   UNL     1       1.443   0.029  -3.219  0.00  0.00    -0.276 OA
ATOM      3  N   UNL     1       1.078  -1.989  -2.373  0.00  0.00    -0.300 N 
ATOM      4  C   UNL     1       0.605  -2.971  -1.369  0.00  0.00    +0.121 C 
ATOM      5  C   UNL     1      -0.013  -4.115  -2.204  0.00  0.00    +0.100 C 
ATOM      6  C   UNL     1       0.670  -4.011  -3.578  0.00  0.00    -0.004 C 
ATOM      7  C   UNL     1       1.631  -2.819  -3.469  0.00  0.00    +0.115 C 
ATOM      8  C   UNL     1      -0.368  -3.747  -4.665  0.00  0.00    -0.010 C 
ATOM      9  C   UNL     1       0.328  -3.704  -6.028  0.00  0.00    -0.082 C 
ATOM     10  N   UNL     1       1.007  -4.982  -6.273  0.00  0.00    +0.379 N 
ATOM     11  C   UNL     1       2.066  -5.185  -5.277  0.00  0.00    -0.082 C 
ATOM     12  C   UNL     1       1.444  -5.290  -3.882  0.00  0.00    -0.010 C 
ATOM     13  H   UNL     1       0.338  -5.735  -6.209  0.00  0.00    -0.086 HD
ATOM     14  H   UNL     1       1.413  -4.974  -7.197  0.00  0.00    -0.086 HD
ENDROOT
BRANCH   5  15
ATOM     15  C   UNL     1       0.284  -5.449  -1.567  0.00  0.00    +0.218 C 
ATOM     16  O   UNL     1       1.320  -5.613  -0.959  0.00  0.00    -0.275 OA
ATOM     17  N   UNL     1      -0.602  -6.459  -1.675  0.00  0.00    -0.316 N 
ATOM     18  H   UNL     1      -1.431  -6.328  -2.162  0.00  0.00    +0.149 HD
BRANCH  17  19
ATOM     19  C   UNL     1      -0.314  -7.755  -1.056  0.00  0.00    +0.093 C 
BRANCH  19  20
ATOM     20  C   UNL     1      -1.419  -8.750  -1.417  0.00  0.00    -0.021 C 
BRANCH  20  21
ATOM     21  C   UNL     1      -2.720  -8.299  -0.805  0.00  0.00    -0.059 A 
ATOM     22  C   UNL     1      -2.976  -8.543   0.532  0.00  0.00    +0.002 A 
ATOM     23  C   UNL     1      -4.170  -8.129   1.093  0.00  0.00    +0.000 A 
ATOM     24  C   UNL     1      -5.106  -7.471   0.319  0.00  0.00    +0.000 A 
ATOM     25  C   UNL     1      -4.850  -7.226  -1.017  0.00  0.00    +0.000 A 
ATOM     26  C   UNL     1      -3.655  -7.635  -1.578  0.00  0.00    +0.002 A 
ENDBRANCH  20  21
BRANCH  20  27
ATOM     27  N   UNL     1      -1.069 -10.079  -0.900  0.00  0.00    +0.382 N 
ATOM     28  C   UNL     1      -2.136 -11.031  -1.235  0.00  0.00    -0.096 C 
ATOM     29  C   UNL     1       0.193 -10.524  -1.506  0.00  0.00    -0.096 C 
ATOM     30  H   UNL     1      -0.963 -10.033   0.103  0.00  0.00    -0.082 HD
ENDBRANCH  20  27
ENDBRANCH  19  20
ENDBRANCH  17  19
ENDBRANCH   5  15
BRANCH   1  32
ATOM     31  C   UNL     1       0.461   1.542  -1.274  0.00  0.00    +0.013 C 
ATOM     32  C   UNL     1       0.410   0.023  -1.097  0.00  0.00    +0.092 C 
ENDBRANCH   1  32
TORSDOF 6
