REMARK  Name = ZINC41636555
REMARK  6 active torsions:
REMARK  status: ('A' for Active; 'I' for Inactive)
REMARK    1  A    between atoms: C_1  and  C_2
REMARK    2  A    between atoms: N_5  and  C_11
REMARK    3  A    between atoms: C_7  and  C_10
REMARK    4  A    between atoms: C_11  and  C_13
REMARK    5  A    between atoms: C_11  and  C_20
REMARK    6  A    between atoms: C_21  and  O_28
REMARK                            x       y       z     vdW  Elec       q    Type
REMARK                         _______ _______ _______ _____ _____    ______ ____
ROOT
ATOM      1  C   UNL     1      -2.768  -2.557   0.042  0.00  0.00    +0.129 C 
ENDROOT
BRANCH   1   5
ATOM      2  C   UNL     1       1.403  -2.042  -2.520  0.00  0.00    +0.039 C 
ATOM      3  C   UNL     1       0.689  -1.726  -1.205  0.00  0.00    +0.130 C 
ATOM      4  C   UNL     1      -0.720  -2.325  -1.231  0.00  0.00    +0.116 C 
ATOM      5  N   UNL     1      -1.429  -1.953   0.002  0.00  0.00    -0.286 NA
ATOM      6  C   UNL     1      -1.506  -0.491   0.138  0.00  0.00    +0.116 C 
ATOM      7  C   UNL     1      -0.089   0.089   0.150  0.00  0.00    +0.130 C 
ATOM      8  O   UNL     1       0.596  -0.308  -1.040  0.00  0.00    -0.371 OA
ATOM      9  C   UNL     1       0.667  -0.434   1.374  0.00  0.00    +0.039 C 
ENDBRANCH   1   5
BRANCH   1  10
ATOM     10  C   UNL     1      -3.467  -2.142   1.311  0.00  0.00    +0.076 A 
ATOM     11  C   UNL     1      -4.668  -1.573   1.466  0.00  0.00    +0.228 A 
ATOM     12  N   UNL     1      -5.141  -1.266   2.719  0.00  0.00    -0.174 N 
ATOM     13  C   UNL     1      -4.339  -1.564   3.779  0.00  0.00    +0.199 A 
ATOM     14  S   UNL     1      -2.914  -2.289   3.003  0.00  0.00    -0.047 S 
ATOM     15  N   UNL     1      -4.929  -1.211   4.888  0.00  0.00    -0.208 NA
ATOM     16  C   UNL     1      -6.116  -0.679   4.604  0.00  0.00    +0.246 A 
ATOM     17  N   UNL     1      -6.294  -0.687   3.311  0.00  0.00    -0.150 NA
BRANCH  11  18
ATOM     18  O   UNL     1      -5.429  -1.296   0.373  0.00  0.00    -0.492 OA
ATOM     19  H   UNL     1      -6.280  -0.886   0.579  0.00  0.00    +0.294 HD
ENDBRANCH  11  18
ENDBRANCH   1  10
BRANCH   1  20
ATOM     20  C   UNL     1      -2.643  -4.058   0.004  0.00  0.00    -0.025 A 
ATOM     21  C   UNL     1      -1.721  -4.696   0.813  0.00  0.00    +0.007 A 
ATOM     22  C   UNL     1      -1.606  -6.072   0.779  0.00  0.00    +0.020 A 
ATOM     23  C   UNL     1      -2.415  -6.813  -0.065  0.00  0.00    +0.041 A 
ATOM     24  C   UNL     1      -3.338  -6.174  -0.874  0.00  0.00    +0.020 A 
ATOM     25  C   UNL     1      -3.455  -4.798  -0.835  0.00  0.00    +0.007 A 
ATOM     26 CL   UNL     1      -2.271  -8.542  -0.109  0.00  0.00    -0.084 Cl
ENDBRANCH   1  20
TORSDOF 4
