REMARK  Name = ZINC57933769
REMARK  4 active torsions:
REMARK  status: ('A' for Active; 'I' for Inactive)
REMARK    1  A    between atoms: C_1  and  C_2
REMARK    2  A    between atoms: C_2  and  C_18
REMARK    3  A    between atoms: N_5  and  C_15
REMARK    4  A    between atoms: C_15  and  C_16
REMARK                            x       y       z     vdW  Elec       q    Type
REMARK                         _______ _______ _______ _____ _____    ______ ____
ROOT
ATOM      1  C   UNL     1      -0.019   1.526   0.010  0.00  0.00    +0.041 C 
ATOM      2  C   UNL     1       0.002  -0.004   0.002  0.00  0.00    +0.103 C 
ATOM      3  C   UNL     1      -1.412  -0.528   0.024  0.00  0.00    +0.243 C 
ATOM      4  O   UNL     1      -2.303   0.129  -0.472  0.00  0.00    -0.273 OA
ATOM      5  N   UNL     1      -1.696  -1.716   0.588  0.00  0.00    -0.264 N 
ATOM      6  C   UNL     1      -0.718  -2.430   1.291  0.00  0.00    +0.059 A 
ATOM      7  C   UNL     1      -0.951  -3.735   1.694  0.00  0.00    +0.046 A 
ATOM      8  C   UNL     1       0.029  -4.430   2.381  0.00  0.00    +0.061 A 
ATOM      9  C   UNL     1       1.243  -3.828   2.667  0.00  0.00    +0.061 A 
ATOM     10  C   UNL     1       1.482  -2.523   2.270  0.00  0.00    +0.046 A 
ATOM     11  C   UNL     1       0.503  -1.823   1.587  0.00  0.00    +0.051 A 
ATOM     12  N   UNL     1       0.713  -0.493   1.192  0.00  0.00    -0.329 N 
ATOM     13 CL   UNL     1       2.467  -4.711   3.525  0.00  0.00    -0.082 Cl
ATOM     14 CL   UNL     1      -0.265  -6.065   2.886  0.00  0.00    -0.082 Cl
ATOM     15  C   UNL     1       0.714  -0.499  -1.258  0.00  0.00    +0.041 C 
ATOM     16  H   UNL     1       1.310   0.087   1.691  0.00  0.00    +0.147 HD
ENDROOT
BRANCH   5  17
ATOM     17  C   UNL     1      -3.046  -2.270   0.465  0.00  0.00    +0.140 C 
BRANCH  17  18
ATOM     18  C   UNL     1      -3.129  -3.120  -0.777  0.00  0.00    -0.015 C 
ATOM     19  C   UNL     1      -3.528  -4.365  -0.693  0.00  0.00    +0.005 C 
ENDBRANCH  17  18
ENDBRANCH   5  17
TORSDOF 2
