REMARK  Name = ZINC25186890
REMARK  5 active torsions:
REMARK  status: ('A' for Active; 'I' for Inactive)
REMARK    1  A    between atoms: C_4  and  C_13
REMARK    2  A    between atoms: C_13  and  O_14
REMARK    3  A    between atoms: O_14  and  C_15
REMARK    4  A    between atoms: C_15  and  C_17
REMARK    5  A    between atoms: C_20  and  C_22
REMARK                            x       y       z     vdW  Elec       q    Type
REMARK                         _______ _______ _______ _____ _____    ______ ____
ROOT
ATOM      1  C   UNL     1       1.268   2.021   0.001  0.00  0.00    +0.269 C 
ENDROOT
BRANCH   1   5
ATOM      2  C   UNL     1       4.541   4.854  -0.015  0.00  0.00    +0.016 A 
ATOM      3  C   UNL     1       3.502   3.966  -0.010  0.00  0.00    +0.013 A 
ATOM      4  C   UNL     1       2.186   4.439   0.011  0.00  0.00    +0.024 A 
ATOM      5  C   UNL     1       1.051   3.512   0.011  0.00  0.00    +0.007 A 
ATOM      6  C   UNL     1      -0.202   4.034   0.026  0.00  0.00    +0.099 A 
ATOM      7  C   UNL     1      -0.379   5.434   0.035  0.00  0.00    +0.338 A 
ATOM      8  O   UNL     1      -1.509   5.889   0.048  0.00  0.00    -0.245 OA
ATOM      9  O   UNL     1       0.665   6.276   0.029  0.00  0.00    -0.422 OA
ATOM     10  C   UNL     1       1.937   5.823   0.015  0.00  0.00    +0.140 A 
ATOM     11  C   UNL     1       3.007   6.707   0.009  0.00  0.00    +0.062 A 
ATOM     12  C   UNL     1       4.299   6.221  -0.006  0.00  0.00    +0.021 A 
ATOM     13 BR   UNL     1       5.753   7.430  -0.013  0.00  0.00    -0.050 Br
ENDBRANCH   1   5
BRANCH   1  14
ATOM     14  O   UNL     1      -0.016   1.344   0.009  0.00  0.00    -0.455 OA
BRANCH  14  15
ATOM     15  C   UNL     1       0.002  -0.004   0.002  0.00  0.00    +0.359 C 
ATOM     16  O   UNL     1       1.063  -0.598  -0.011  0.00  0.00    -0.243 OA
BRANCH  15  17
ATOM     17  C   UNL     1      -1.262  -0.757   0.010  0.00  0.00    +0.155 A 
ATOM     18  C   UNL     1      -1.255  -2.129  -0.003  0.00  0.00    +0.082 A 
ATOM     19  S   UNL     1      -2.954  -2.487   0.016  0.00  0.00    -0.075 S 
ATOM     20  C   UNL     1      -3.556  -0.807   0.031  0.00  0.00    +0.110 A 
ATOM     21  N   UNL     1      -2.430  -0.117   0.024  0.00  0.00    -0.232 NA
BRANCH  20  22
ATOM     22  C   UNL     1      -4.950  -0.316   0.045  0.00  0.00    +0.014 A 
ATOM     23  C   UNL     1      -6.022  -1.208   0.051  0.00  0.00    +0.018 A 
ATOM     24  C   UNL     1      -7.270  -0.690   0.065  0.00  0.00    +0.046 A 
ATOM     25  S   UNL     1      -6.954   1.065   0.071  0.00  0.00    -0.104 S 
ATOM     26  C   UNL     1      -5.221   1.023   0.060  0.00  0.00    +0.055 A 
ENDBRANCH  20  22
ENDBRANCH  15  17
ENDBRANCH  14  15
ENDBRANCH   1  14
TORSDOF 5
