REMARK  Name = ZINC39636389
REMARK  9 active torsions:
REMARK  status: ('A' for Active; 'I' for Inactive)
REMARK    1  A    between atoms: C_1  and  O_2
REMARK    2  A    between atoms: O_2  and  C_3
REMARK    3  A    between atoms: C_8  and  C_9
REMARK    4  A    between atoms: C_9  and  C_10
REMARK    5  A    between atoms: C_10  and  N_11
REMARK    6  A    between atoms: C_12  and  C_14
REMARK    7  A    between atoms: C_25  and  C_27
REMARK    8  A    between atoms: C_30  and  O_33
REMARK    9  A    between atoms: O_33  and  C_34
REMARK                            x       y       z     vdW  Elec       q    Type
REMARK                         _______ _______ _______ _____ _____    ______ ____
ROOT
ATOM      1  C   UNL     1      -3.544  -5.588   1.026  0.00  0.00    +0.100 C 
ATOM      2  C   UNL     1      -3.090  -7.036   1.315  0.00  0.00    +0.121 C 
ATOM      3  N   UNL     1      -4.322  -7.734   1.750  0.00  0.00    -0.296 N 
ATOM      4  C   UNL     1      -5.384  -7.196   0.867  0.00  0.00    +0.115 C 
ATOM      5  C   UNL     1      -5.050  -5.697   0.732  0.00  0.00    -0.004 C 
ATOM      6  C   UNL     1      -5.847  -4.885   1.748  0.00  0.00    -0.010 C 
ATOM      7  C   UNL     1      -7.336  -4.963   1.401  0.00  0.00    -0.082 C 
ATOM      8  N   UNL     1      -7.553  -4.438   0.047  0.00  0.00    +0.379 N 
ATOM      9  C   UNL     1      -6.858  -5.280  -0.933  0.00  0.00    -0.082 C 
ATOM     10  C   UNL     1      -5.348  -5.216  -0.685  0.00  0.00    -0.010 C 
ATOM     11  C   UNL     1      -4.449  -8.652   2.729  0.00  0.00    +0.248 C 
ATOM     12  O   UNL     1      -3.507  -8.899   3.457  0.00  0.00    -0.270 OA
ATOM     13  H   UNL     1      -8.541  -4.434  -0.156  0.00  0.00    -0.086 HD
ATOM     14  H   UNL     1      -7.197  -3.496  -0.008  0.00  0.00    -0.086 HD
ENDROOT
BRANCH  11  15
ATOM     15  C   UNL     1      -5.732  -9.358   2.917  0.00  0.00    +0.055 A 
ATOM     16  C   UNL     1      -6.675  -9.409   1.880  0.00  0.00    +0.020 A 
ATOM     17  C   UNL     1      -7.860 -10.080   2.103  0.00  0.00    +0.068 A 
ATOM     18  C   UNL     1      -8.078 -10.681   3.340  0.00  0.00    +0.220 A 
ATOM     19  N   UNL     1      -7.168 -10.615   4.299  0.00  0.00    -0.220 NA
ATOM     20  C   UNL     1      -6.022  -9.990   4.127  0.00  0.00    +0.127 A 
BRANCH  18  21
ATOM     21  O   UNL     1      -9.239 -11.342   3.565  0.00  0.00    -0.438 OA
BRANCH  21  22
ATOM     22  C   UNL     1      -9.382 -11.997   4.747  0.00  0.00    +0.130 A 
ATOM     23  C   UNL     1      -9.707 -11.293   5.897  0.00  0.00    +0.046 A 
ATOM     24  C   UNL     1      -9.851 -11.962   7.098  0.00  0.00    +0.004 A 
ATOM     25  C   UNL     1      -9.670 -13.332   7.153  0.00  0.00    +0.000 A 
ATOM     26  C   UNL     1      -9.346 -14.036   6.008  0.00  0.00    +0.004 A 
ATOM     27  C   UNL     1      -9.207 -13.373   4.804  0.00  0.00    +0.046 A 
ENDBRANCH  21  22
ENDBRANCH  18  21
ENDBRANCH  11  15
BRANCH   1  29
ATOM     28  N   UNL     1      -2.587  -3.713  -0.274  0.00  0.00    -0.315 N 
ATOM     29  C   UNL     1      -2.814  -5.038  -0.172  0.00  0.00    +0.218 C 
ATOM     30  O   UNL     1      -2.430  -5.788  -1.045  0.00  0.00    -0.275 OA
ATOM     31  H   UNL     1      -2.893  -3.114   0.424  0.00  0.00    +0.149 HD
BRANCH  28  32
ATOM     32  C   UNL     1      -1.877  -3.179  -1.439  0.00  0.00    +0.109 C 
BRANCH  32  33
ATOM     33  C   UNL     1      -1.752  -1.660  -1.308  0.00  0.00    +0.057 C 
BRANCH  33  39
ATOM     34  C   UNL     1      -1.718  -0.820  -3.671  0.00  0.00    +0.123 A 
ATOM     35  C   UNL     1      -1.044  -0.309  -4.770  0.00  0.00    +0.046 A 
ATOM     36  C   UNL     1       0.319  -0.097  -4.706  0.00  0.00    +0.004 A 
ATOM     37  C   UNL     1       1.012  -0.392  -3.546  0.00  0.00    +0.000 A 
ATOM     38  C   UNL     1       0.342  -0.902  -2.449  0.00  0.00    +0.007 A 
ATOM     39  C   UNL     1      -1.022  -1.111  -2.507  0.00  0.00    -0.004 A 
BRANCH  34  41
ATOM     40  C   UNL     1      -3.712  -0.707  -4.962  0.00  0.00    +0.277 C 
ATOM     41  O   UNL     1      -3.060  -1.029  -3.732  0.00  0.00    -0.495 OA
ENDBRANCH  34  41
ENDBRANCH  33  39
ENDBRANCH  32  33
ENDBRANCH  28  32
ENDBRANCH   1  29
TORSDOF 8
