REMARK  Name = ZINC36818044
REMARK  8 active torsions:
REMARK  status: ('A' for Active; 'I' for Inactive)
REMARK    1  A    between atoms: C_1  and  C_2
REMARK    2  A    between atoms: C_2  and  C_4
REMARK    3  A    between atoms: C_2  and  S_16
REMARK    4  A    between atoms: N_9  and  C_10
REMARK    5  A    between atoms: S_16  and  C_17
REMARK    6  A    between atoms: C_20  and  C_28
REMARK    7  A    between atoms: N_21  and  C_22
REMARK    8  A    between atoms: C_28  and  N_29
REMARK                            x       y       z     vdW  Elec       q    Type
REMARK                         _______ _______ _______ _____ _____    ______ ____
ROOT
ATOM      1  C   UNL     1       2.605   0.013   0.964  0.00  0.00    +0.197 A 
ATOM      2  N   UNL     1       3.127   0.777   0.032  0.00  0.00    -0.122 NA
ATOM      3  N   UNL     1       4.352   1.041   0.319  0.00  0.00    -0.135 NA
ATOM      4  C   UNL     1       4.684   0.468   1.440  0.00  0.00    +0.122 A 
ATOM      5  N   UNL     1       3.581  -0.205   1.897  0.00  0.00    -0.276 N 
ENDROOT
BRANCH   5   6
ATOM      6  C   UNL     1       3.476  -0.961   3.073  0.00  0.00    +0.050 A 
ATOM      7  C   UNL     1       3.543  -0.335   4.310  0.00  0.00    +0.026 A 
ATOM      8  C   UNL     1       3.438  -1.082   5.467  0.00  0.00    +0.002 A 
ATOM      9  C   UNL     1       3.268  -2.452   5.394  0.00  0.00    +0.000 A 
ATOM     10  C   UNL     1       3.200  -3.078   4.163  0.00  0.00    +0.002 A 
ATOM     11  C   UNL     1       3.298  -2.336   3.002  0.00  0.00    +0.026 A 
ENDBRANCH   5   6
BRANCH   1  12
ATOM     12  S   UNL     1       0.956  -0.608   1.007  0.00  0.00    -0.073 S 
BRANCH  12  14
ATOM     13  C   UNL     1       0.129   1.571  -0.425  0.00  0.00    +0.029 C 
ATOM     14  C   UNL     1       0.201   0.045  -0.508  0.00  0.00    +0.137 C 
BRANCH  14  15
ATOM     15  C   UNL     1      -1.189  -0.517  -0.658  0.00  0.00    +0.233 C 
ATOM     16  O   UNL     1      -1.802  -0.888   0.320  0.00  0.00    -0.274 OA
ATOM     17  N   UNL     1      -1.751  -0.606  -1.880  0.00  0.00    -0.239 N 
ATOM     18  C   UNL     1      -2.994  -1.108  -2.015  0.00  0.00    +0.306 C 
ATOM     19  O   UNL     1      -3.609  -1.481  -1.034  0.00  0.00    -0.252 OA
ATOM     20  N   UNL     1      -3.557  -1.198  -3.236  0.00  0.00    -0.296 N 
ATOM     21  H   UNL     1      -1.261  -0.309  -2.662  0.00  0.00    +0.159 HD
ATOM     22  H   UNL     1      -3.066  -0.901  -4.019  0.00  0.00    +0.151 HD
BRANCH  20  23
ATOM     23  C   UNL     1      -4.908  -1.744  -3.383  0.00  0.00    +0.074 C 
ATOM     24  C   UNL     1      -5.935  -0.632  -3.153  0.00  0.00    +0.022 C 
ATOM     25  C   UNL     1      -7.346  -1.202  -3.306  0.00  0.00    +0.002 C 
ATOM     26  C   UNL     1      -7.517  -1.771  -4.716  0.00  0.00    +0.000 C 
ATOM     27  C   UNL     1      -6.490  -2.882  -4.946  0.00  0.00    +0.002 C 
ATOM     28  C   UNL     1      -5.079  -2.312  -4.793  0.00  0.00    +0.022 C 
ENDBRANCH  20  23
ENDBRANCH  14  15
ENDBRANCH  12  14
ENDBRANCH   1  12
BRANCH   4  29
ATOM     29  C   UNL     1       6.030   0.536   2.114  0.00  0.00    -0.001 C 
BRANCH  29  30
ATOM     30  N   UNL     1       6.828  -0.637   1.734  0.00  0.00    +0.384 N 
ATOM     31  C   UNL     1       7.208  -0.555   0.300  0.00  0.00    -0.078 C 
ATOM     32  C   UNL     1       8.445  -1.484   0.207  0.00  0.00    -0.020 C 
ATOM     33  C   UNL     1       9.178  -1.218   1.542  0.00  0.00    -0.020 C 
ATOM     34  C   UNL     1       8.101  -0.655   2.488  0.00  0.00    -0.078 C 
ATOM     35  H   UNL     1       6.308  -1.484   1.909  0.00  0.00    -0.081 HD
ENDBRANCH  29  30
ENDBRANCH   4  29
TORSDOF 7
