REMARK  Name = ZINC63021614
REMARK  4 active torsions:
REMARK  status: ('A' for Active; 'I' for Inactive)
REMARK    1  A    between atoms: C_1  and  C_2
REMARK    2  A    between atoms: C_5  and  C_9
REMARK    3  A    between atoms: C_9  and  C_11
REMARK    4  A    between atoms: C_9  and  N_24
REMARK                            x       y       z     vdW  Elec       q    Type
REMARK                         _______ _______ _______ _____ _____    ______ ____
ROOT
ATOM      1  C   UNL     1       1.466  -4.761   0.214  0.00  0.00    -0.010 A 
ATOM      2  C   UNL     1       1.842  -5.195   1.471  0.00  0.00    +0.034 A 
ATOM      3  C   UNL     1       3.136  -5.641   1.688  0.00  0.00    +0.067 A 
ATOM      4  C   UNL     1       4.055  -5.651   0.637  0.00  0.00    +0.068 A 
ATOM      5  C   UNL     1       3.670  -5.214  -0.621  0.00  0.00    +0.043 A 
ATOM      6  C   UNL     1       2.376  -4.776  -0.830  0.00  0.00    +0.025 A 
ATOM      7 BR   UNL     1       1.847  -4.188  -2.548  0.00  0.00    -0.050 Br
ATOM      8  N   UNL     1       5.252  -6.144   1.152  0.00  0.00    -0.306 N 
ATOM      9  H   UNL     1       6.076  -6.266   0.656  0.00  0.00    +0.170 HD
ATOM     10  C   UNL     1       5.069  -6.421   2.457  0.00  0.00    +0.325 A 
ATOM     11  O   UNL     1       5.920  -6.867   3.204  0.00  0.00    -0.247 OA
ATOM     12  N   UNL     1       3.804  -6.128   2.810  0.00  0.00    -0.306 N 
ATOM     13  H   UNL     1       3.421  -6.238   3.695  0.00  0.00    +0.170 HD
ENDROOT
BRANCH   1  14
ATOM     14  C   UNL     1       0.060  -4.276  -0.023  0.00  0.00    +0.113 C 
BRANCH  14  19
ATOM     15  C   UNL     1      -0.018   1.503   0.010  0.00  0.00    +0.045 C 
ATOM     16  C   UNL     1       0.002  -0.004   0.002  0.00  0.00    -0.032 A 
ATOM     17  C   UNL     1       0.006  -0.689  -1.199  0.00  0.00    +0.005 A 
ATOM     18  C   UNL     1       0.025  -2.071  -1.207  0.00  0.00    +0.006 A 
ATOM     19  C   UNL     1       0.040  -2.769  -0.013  0.00  0.00    -0.025 A 
ATOM     20  C   UNL     1       0.036  -2.086   1.188  0.00  0.00    +0.025 A 
ATOM     21  C   UNL     1       0.023  -0.702   1.196  0.00  0.00    +0.044 A 
ATOM     22 CL   UNL     1       0.025   0.157   2.704  0.00  0.00    -0.083 Cl
ENDBRANCH  14  19
BRANCH  14  23
ATOM     23  N   UNL     1      -0.819  -4.784   1.039  0.00  0.00    -0.320 NA
ATOM     24  H   UNL     1      -0.873  -5.791   1.013  0.00  0.00    +0.119 HD
ATOM     25  H   UNL     1      -0.514  -4.462   1.946  0.00  0.00    +0.119 HD
ENDBRANCH  14  23
ENDBRANCH   1  14
TORSDOF 3
