REMARK  Name = ZINC40930538
REMARK  5 active torsions:
REMARK  status: ('A' for Active; 'I' for Inactive)
REMARK    1  A    between atoms: C_9  and  N_11
REMARK    2  A    between atoms: C_12  and  C_14
REMARK    3  A    between atoms: N_17  and  C_20
REMARK    4  A    between atoms: C_20  and  C_21
REMARK    5  A    between atoms: C_23  and  C_26
REMARK                            x       y       z     vdW  Elec       q    Type
REMARK                         _______ _______ _______ _____ _____    ______ ____
ROOT
ATOM      1  C   UNL     1       6.566   0.843  -1.604  0.00  0.00    +0.071 C 
ATOM      2  C   UNL     1       5.882   1.536  -2.786  0.00  0.00    -0.006 C 
ATOM      3  C   UNL     1       6.949   2.068  -3.745  0.00  0.00    -0.077 C 
ATOM      4  N   UNL     1       7.808   3.030  -3.042  0.00  0.00    +0.386 N 
ATOM      5  C   UNL     1       8.522   2.355  -1.952  0.00  0.00    -0.077 C 
ATOM      6  C   UNL     1       7.515   1.833  -0.924  0.00  0.00    -0.006 C 
ATOM      7  H   UNL     1       7.239   3.772  -2.662  0.00  0.00    -0.081 HD
ENDROOT
BRANCH   1   9
ATOM      8  N   UNL     1       4.577  -0.496  -0.997  0.00  0.00    -0.308 N 
ATOM      9  C   UNL     1       5.524   0.384  -0.617  0.00  0.00    +0.216 C 
ATOM     10  O   UNL     1       5.538   0.807   0.520  0.00  0.00    -0.276 OA
ATOM     11  H   UNL     1       4.566  -0.835  -1.906  0.00  0.00    +0.149 HD
BRANCH   8  20
ATOM     12  C   UNL     1      -0.017   1.377   0.010  0.00  0.00    +0.000 A 
ATOM     13  C   UNL     1       1.172   2.083   0.002  0.00  0.00    +0.000 A 
ATOM     14  C   UNL     1       2.376   1.406  -0.013  0.00  0.00    +0.006 A 
ATOM     15  C   UNL     1       2.396   0.021  -0.021  0.00  0.00    -0.024 A 
ATOM     16  C   UNL     1       1.208  -0.685  -0.013  0.00  0.00    -0.042 A 
ATOM     17  C   UNL     1       0.002  -0.004   0.002  0.00  0.00    +0.004 A 
ATOM     18  C   UNL     1       1.496  -2.171  -0.025  0.00  0.00    +0.037 C 
ATOM     19  C   UNL     1       2.966  -2.294  -0.480  0.00  0.00    +0.032 C 
ATOM     20  C   UNL     1       3.564  -0.942  -0.037  0.00  0.00    +0.104 C 
ENDBRANCH   8  20
ENDBRANCH   1   9
BRANCH   4  21
ATOM     21  C   UNL     1       8.780   3.596  -3.986  0.00  0.00    +0.022 C 
BRANCH  21  22
ATOM     22  C   UNL     1       9.581   4.671  -3.297  0.00  0.00    +0.211 A 
ATOM     23  N   UNL     1      10.699   4.492  -2.654  0.00  0.00    -0.192 NA
ATOM     24  C   UNL     1      11.141   5.666  -2.163  0.00  0.00    +0.209 A 
ATOM     25  N   UNL     1      10.290   6.607  -2.500  0.00  0.00    -0.056 NA
ATOM     26  O   UNL     1       9.265   5.972  -3.249  0.00  0.00    -0.340 OA
BRANCH  24  27
ATOM     27  C   UNL     1      12.377   5.862  -1.378  0.00  0.00    +0.060 A 
ATOM     28  C   UNL     1      12.887   7.015  -0.844  0.00  0.00    +0.019 A 
ATOM     29  C   UNL     1      14.069   6.954  -0.141  0.00  0.00    +0.008 A 
ATOM     30  C   UNL     1      14.692   5.755   0.002  0.00  0.00    +0.046 A 
ATOM     31  S   UNL     1      13.591   4.654  -0.872  0.00  0.00    -0.093 S 
ENDBRANCH  24  27
ENDBRANCH  21  22
ENDBRANCH   4  21
TORSDOF 5
