REMARK  Name = ZINC20946699
REMARK  6 active torsions:
REMARK  status: ('A' for Active; 'I' for Inactive)
REMARK    1  A    between atoms: C_1  and  C_2
REMARK    2  A    between atoms: C_3  and  C_14
REMARK    3  A    between atoms: N_5  and  C_7
REMARK    4  A    between atoms: C_16  and  C_19
REMARK    5  A    between atoms: N_21  and  C_22
REMARK    6  A    between atoms: C_22  and  C_23
REMARK                            x       y       z     vdW  Elec       q    Type
REMARK                         _______ _______ _______ _____ _____    ______ ____
ROOT
ATOM      1  C   UNL     1      -6.481   7.688  -0.222  0.00  0.00    +0.206 A 
ATOM      2  N   UNL     1      -5.504   7.396  -1.104  0.00  0.00    -0.183 NA
ATOM      3  C   UNL     1      -4.966   6.273  -0.678  0.00  0.00    +0.314 A 
ATOM      4  O   UNL     1      -5.630   5.919   0.434  0.00  0.00    -0.328 OA
ATOM      5  N   UNL     1      -6.487   6.741   0.682  0.00  0.00    -0.055 NA
ENDROOT
BRANCH   1   8
ATOM      6  C   UNL     1      -8.781   8.344   1.860  0.00  0.00    +0.068 C 
ATOM      7  C   UNL     1      -8.408   9.165   0.652  0.00  0.00    +0.071 A 
ATOM      8  C   UNL     1      -7.384   8.865  -0.268  0.00  0.00    +0.063 A 
ATOM      9  C   UNL     1      -7.377   9.851  -1.211  0.00  0.00    +0.126 A 
ATOM     10  N   UNL     1      -8.350  10.729  -0.891  0.00  0.00    -0.239 N 
ATOM     11  N   UNL     1      -8.977  10.280   0.278  0.00  0.00    -0.171 NA
BRANCH  10  12
ATOM     12  C   UNL     1      -8.678  11.890  -1.605  0.00  0.00    +0.065 A 
ATOM     13  C   UNL     1      -7.970  12.224  -2.752  0.00  0.00    +0.029 A 
ATOM     14  C   UNL     1      -8.297  13.367  -3.455  0.00  0.00    +0.017 A 
ATOM     15  C   UNL     1      -9.323  14.182  -3.014  0.00  0.00    +0.018 A 
ATOM     16  C   UNL     1     -10.027  13.854  -1.869  0.00  0.00    +0.017 A 
ATOM     17  C   UNL     1      -9.707  12.711  -1.164  0.00  0.00    +0.029 A 
ATOM     18 BR   UNL     1      -9.764  15.749  -3.977  0.00  0.00    -0.050 Br
ENDBRANCH  10  12
ENDBRANCH   1   8
BRANCH   3  19
ATOM     19  C   UNL     1      -3.845   5.535  -1.309  0.00  0.00    +0.302 C 
ATOM     20  O   UNL     1      -3.332   5.963  -2.323  0.00  0.00    -0.265 OA
ATOM     21  N   UNL     1      -3.396   4.391  -0.757  0.00  0.00    -0.305 N 
ATOM     22  H   UNL     1      -3.861   4.004   0.162  0.00  0.00    +0.149 HD
BRANCH  21  23
ATOM     23  C   UNL     1      -2.289   3.662  -1.380  0.00  0.00    +0.136 C 
BRANCH  23  24
ATOM     24  C   UNL     1      -1.978   2.408  -0.561  0.00  0.00    +0.135 C 
ATOM     25  C   UNL     1      -0.811   1.623  -1.201  0.00  0.00    +0.035 C 
ATOM     26  C   UNL     1      -0.013   1.086   0.008  0.00  0.00    +0.031 C 
ATOM     27  C   UNL     1      -0.788   1.610   1.237  0.00  0.00    +0.160 C 
ATOM     28  O   UNL     1      -1.501   2.772   0.753  0.00  0.00    -0.375 OA
ENDBRANCH  23  24
ENDBRANCH  21  23
ENDBRANCH   3  19
TORSDOF 5
