REMARK  Name = ZINC13256484
REMARK  7 active torsions:
REMARK  status: ('A' for Active; 'I' for Inactive)
REMARK    1  A    between atoms: C_1  and  C_2
REMARK    2  A    between atoms: C_8  and  C_15
REMARK    3  A    between atoms: C_12  and  C_13
REMARK    4  A    between atoms: C_15  and  S_16
REMARK    5  A    between atoms: S_16  and  C_17
REMARK    6  A    between atoms: C_20  and  C_25
REMARK    7  A    between atoms: N_21  and  C_22
REMARK                            x       y       z     vdW  Elec       q    Type
REMARK                         _______ _______ _______ _____ _____    ______ ____
ROOT
ATOM      1  C   UNL     1       1.391   8.368  -0.142  0.00  0.00    +0.151 C 
ENDROOT
BRANCH   1   9
ATOM      2  C   UNL     1       3.108  14.793  -0.335  0.00  0.00    +0.046 C 
ATOM      3  C   UNL     1       3.821  13.469  -0.229  0.00  0.00    -0.015 A 
ATOM      4  C   UNL     1       3.090  12.280  -0.219  0.00  0.00    +0.076 A 
ATOM      5  C   UNL     1       1.624  12.081  -0.301  0.00  0.00    +0.260 A 
ATOM      6  O   UNL     1       0.869  13.033  -0.393  0.00  0.00    -0.267 OA
ATOM      7  N   UNL     1       1.149  10.821  -0.277  0.00  0.00    -0.310 N 
ATOM      8  H   UNL     1       0.192  10.673  -0.334  0.00  0.00    +0.170 HD
ATOM      9  C   UNL     1       1.980   9.755  -0.170  0.00  0.00    +0.121 A 
ATOM     10  N   UNL     1       3.275   9.895  -0.096  0.00  0.00    -0.226 NA
ATOM     11  C   UNL     1       3.848  11.091  -0.116  0.00  0.00    +0.116 A 
ATOM     12  S   UNL     1       5.521  11.681  -0.039  0.00  0.00    -0.062 S 
ATOM     13  C   UNL     1       5.182  13.430  -0.142  0.00  0.00    +0.106 A 
BRANCH  13  14
ATOM     14  C   UNL     1       6.130  14.546  -0.135  0.00  0.00    +0.393 C 
ATOM     15  O   UNL     1       5.724  15.690  -0.214  0.00  0.00    -0.240 OA
ATOM     16  O   UNL     1       7.454  14.306  -0.040  0.00  0.00    -0.240 OA
ENDBRANCH  13  14
ENDBRANCH   1   9
BRANCH   1  17
ATOM     17  S   UNL     1       2.722   7.150  -0.002  0.00  0.00    -0.078 S 
BRANCH  17  18
ATOM     18  C   UNL     1       1.776   5.663   0.009  0.00  0.00    +0.193 A 
ATOM     19  N   UNL     1       0.468   5.571  -0.069  0.00  0.00    -0.122 NA
ATOM     20  N   UNL     1       0.109   4.338  -0.033  0.00  0.00    -0.128 NA
ATOM     21  C   UNL     1       1.167   3.566   0.069  0.00  0.00    +0.168 A 
ATOM     22  N   UNL     1       2.267   4.392   0.105  0.00  0.00    -0.299 N 
BRANCH  21  23
ATOM     23  C   UNL     1       1.174   2.090   0.139  0.00  0.00    +0.054 A 
ATOM     24  C   UNL     1       2.053   1.354  -0.656  0.00  0.00    +0.014 A 
ATOM     25  C   UNL     1       2.055  -0.023  -0.586  0.00  0.00    +0.001 A 
ATOM     26  C   UNL     1       1.188  -0.678   0.271  0.00  0.00    +0.003 A 
ATOM     27  C   UNL     1       0.312   0.043   1.062  0.00  0.00    +0.039 A 
ATOM     28  C   UNL     1       0.299   1.423   1.002  0.00  0.00    +0.134 A 
ATOM     29  F   UNL     1      -0.557   2.127   1.776  0.00  0.00    -0.205 F 
ENDBRANCH  21  23
BRANCH  22  30
ATOM     30  C   UNL     1       3.671   3.991   0.220  0.00  0.00    +0.091 C 
ATOM     31  C   UNL     1       4.681   5.064   0.632  0.00  0.00    +0.027 C 
ATOM     32  C   UNL     1       4.652   4.552  -0.810  0.00  0.00    +0.027 C 
ENDBRANCH  22  30
ENDBRANCH  17  18
ENDBRANCH   1  17
TORSDOF 6
