REMARK  Name = ZINC20813912
REMARK  12 active torsions:
REMARK  status: ('A' for Active; 'I' for Inactive)
REMARK    1  A    between atoms: C_1  and  C_2
REMARK    2  A    between atoms: C_2  and  C_3
REMARK    3  A    between atoms: C_3  and  C_4
REMARK    4  A    between atoms: C_4  and  O_5
REMARK    5  A    between atoms: O_5  and  C_6
REMARK    6  A    between atoms: C_9  and  C_12
REMARK    7  A    between atoms: C_13  and  C_26
REMARK    8  A    between atoms: C_14  and  N_25
REMARK    9  A    between atoms: C_16  and  S_20
REMARK   10  A    between atoms: C_17  and  C_18
REMARK   11  A    between atoms: S_20  and  C_21
REMARK   12  A    between atoms: C_21  and  C_22
REMARK                            x       y       z     vdW  Elec       q    Type
REMARK                         _______ _______ _______ _____ _____    ______ ____
ROOT
ATOM      1  C   UNL     1       1.844  -8.038  -3.111  0.00  0.00    +0.023 A 
ATOM      2  C   UNL     1       2.598  -8.820  -2.212  0.00  0.00    +0.100 A 
ATOM      3  C   UNL     1       2.679 -10.209  -2.420  0.00  0.00    +0.136 A 
ATOM      4  N   UNL     1       2.061 -10.782  -3.440  0.00  0.00    -0.224 NA
ATOM      5  C   UNL     1       1.343 -10.087  -4.310  0.00  0.00    +0.117 A 
ATOM      6  C   UNL     1       1.200  -8.693  -4.180  0.00  0.00    +0.093 A 
ENDROOT
BRANCH   1  10
ATOM      7  C   UNL     1       1.514  -3.832  -2.603  0.00  0.00    +0.121 A 
ATOM      8  C   UNL     1       0.978  -4.689  -1.650  0.00  0.00    +0.046 A 
ATOM      9  C   UNL     1       1.083  -6.054  -1.812  0.00  0.00    +0.012 A 
ATOM     10  C   UNL     1       1.729  -6.575  -2.935  0.00  0.00    -0.015 A 
ATOM     11  C   UNL     1       2.266  -5.710  -3.890  0.00  0.00    +0.012 A 
ATOM     12  C   UNL     1       2.152  -4.347  -3.725  0.00  0.00    +0.046 A 
BRANCH   7  13
ATOM     13  O   UNL     1       1.408  -2.488  -2.441  0.00  0.00    -0.492 OA
BRANCH  13  14
ATOM     14  C   UNL     1       0.739  -2.027  -1.265  0.00  0.00    +0.229 C 
BRANCH  14  15
ATOM     15  C   UNL     1       0.718  -0.497  -1.257  0.00  0.00    +0.041 C 
BRANCH  15  17
ATOM     16  C   UNL     1      -0.019   1.526   0.010  0.00  0.00    +0.004 C 
ATOM     17  C   UNL     1       0.002  -0.004   0.002  0.00  0.00    -0.000 C 
ENDBRANCH  15  17
ENDBRANCH  14  15
ENDBRANCH  13  14
ENDBRANCH   7  13
ENDBRANCH   1  10
BRANCH   3  18
ATOM     18  N   UNL     1       3.414 -10.986  -1.547  0.00  0.00    -0.342 N 
ATOM     19  H   UNL     1       3.870 -10.573  -0.796  0.00  0.00    +0.144 HD
ATOM     20  H   UNL     1       3.475 -11.944  -1.683  0.00  0.00    +0.144 HD
ENDBRANCH   3  18
BRANCH   6  21
ATOM     21  C   UNL     1       0.416  -7.951  -5.121  0.00  0.00    +0.102 C 
ATOM     22  N   UNL     1      -0.206  -7.362  -5.867  0.00  0.00    -0.191 NA
ENDBRANCH   6  21
BRANCH   2  23
ATOM     23  C   UNL     1       3.271  -8.210  -1.105  0.00  0.00    +0.103 C 
ATOM     24  N   UNL     1       3.804  -7.726  -0.227  0.00  0.00    -0.191 NA
ENDBRANCH   2  23
BRANCH   5  25
ATOM     25  S   UNL     1       0.549 -10.921  -5.644  0.00  0.00    -0.095 S 
BRANCH  25  26
ATOM     26  C   UNL     1       0.999 -12.662  -5.403  0.00  0.00    +0.171 C 
BRANCH  26  27
ATOM     27  C   UNL     1       0.376 -13.497  -6.492  0.00  0.00    +0.221 C 
ATOM     28  O   UNL     1      -0.304 -12.969  -7.346  0.00  0.00    -0.275 OA
ATOM     29  N   UNL     1       0.576 -14.829  -6.517  0.00  0.00    -0.329 N 
ATOM     30  H   UNL     1       1.120 -15.251  -5.834  0.00  0.00    +0.145 HD
ATOM     31  H   UNL     1       0.175 -15.367  -7.218  0.00  0.00    +0.145 HD
ENDBRANCH  26  27
ENDBRANCH  25  26
ENDBRANCH   5  25
TORSDOF 11
