REMARK  Name = ZINC13112598
REMARK  8 active torsions:
REMARK  status: ('A' for Active; 'I' for Inactive)
REMARK    1  A    between atoms: C_1  and  C_2
REMARK    2  A    between atoms: C_6  and  C_30
REMARK    3  A    between atoms: C_7  and  N_8
REMARK    4  A    between atoms: C_9  and  S_13
REMARK    5  A    between atoms: S_13  and  C_14
REMARK    6  A    between atoms: C_14  and  C_15
REMARK    7  A    between atoms: N_17  and  C_18
REMARK    8  A    between atoms: C_19  and  C_27
REMARK                            x       y       z     vdW  Elec       q    Type
REMARK                         _______ _______ _______ _____ _____    ______ ____
ROOT
ATOM      1  C   UNL     1      -6.839   3.140   0.622  0.00  0.00    +0.228 C 
ATOM      2  O   UNL     1      -6.426   4.260   0.410  0.00  0.00    -0.275 OA
ATOM      3  N   UNL     1      -8.161   2.928   0.780  0.00  0.00    -0.279 N 
ATOM      4  H   UNL     1      -8.491   2.032   0.950  0.00  0.00    +0.155 HD
ENDROOT
BRANCH   3   5
ATOM      5  C   UNL     1      -9.048   3.990   0.700  0.00  0.00    +0.084 A 
ATOM      6  C   UNL     1     -10.429   3.971   0.828  0.00  0.00    +0.068 A 
ATOM      7  C   UNL     1     -11.133   5.237   0.704  0.00  0.00    -0.023 A 
ATOM      8  C   UNL     1     -10.348   6.310   0.464  0.00  0.00    -0.004 A 
ATOM      9  S   UNL     1      -8.701   5.663   0.408  0.00  0.00    -0.077 S 
ATOM     10  C   UNL     1     -10.790   7.729   0.284  0.00  0.00    +0.043 C 
ATOM     11  C   UNL     1     -12.306   7.737   0.042  0.00  0.00    +0.005 C 
ATOM     12  C   UNL     1     -12.979   6.850   1.093  0.00  0.00    +0.005 C 
ATOM     13  C   UNL     1     -12.645   5.381   0.825  0.00  0.00    +0.037 C 
BRANCH   6  14
ATOM     14  C   UNL     1     -11.152   2.721   1.083  0.00  0.00    +0.244 C 
ATOM     15  O   UNL     1     -11.359   2.360   2.227  0.00  0.00    -0.270 OA
ATOM     16  N   UNL     1     -11.588   1.972   0.051  0.00  0.00    -0.325 N 
ATOM     17  H   UNL     1     -11.424   2.260  -0.861  0.00  0.00    +0.145 HD
ATOM     18  H   UNL     1     -12.066   1.146   0.219  0.00  0.00    +0.145 HD
ENDBRANCH   6  14
ENDBRANCH   3   5
BRANCH   1  19
ATOM     19  C   UNL     1      -5.875   1.985   0.709  0.00  0.00    +0.173 C 
BRANCH  19  20
ATOM     20  S   UNL     1      -4.187   2.588   0.457  0.00  0.00    -0.075 S 
BRANCH  20  22
ATOM     21  N   UNL     1      -1.947   0.915   0.503  0.00  0.00    -0.187 N 
ATOM     22  C   UNL     1      -3.296   1.075   0.606  0.00  0.00    +0.214 A 
ATOM     23  N   UNL     1      -3.807  -0.115   0.835  0.00  0.00    -0.101 NA
ATOM     24  N   UNL     1      -2.879  -1.001   0.891  0.00  0.00    -0.022 NA
ATOM     25  N   UNL     1      -1.725  -0.459   0.701  0.00  0.00    -0.038 NA
BRANCH  21  32
ATOM     26  C   UNL     1      -0.275   0.637  -1.784  0.00  0.00    +0.046 C 
ATOM     27  C   UNL     1      -0.151   1.810  -0.845  0.00  0.00    -0.025 A 
ATOM     28  C   UNL     1       0.790   2.792  -1.086  0.00  0.00    +0.005 A 
ATOM     29  C   UNL     1       0.904   3.868  -0.226  0.00  0.00    +0.001 A 
ATOM     30  C   UNL     1       0.077   3.965   0.878  0.00  0.00    +0.005 A 
ATOM     31  C   UNL     1      -0.866   2.987   1.124  0.00  0.00    -0.025 A 
ATOM     32  C   UNL     1      -0.987   1.907   0.259  0.00  0.00    +0.076 A 
ATOM     33  C   UNL     1      -1.768   3.094   2.326  0.00  0.00    +0.046 C 
ENDBRANCH  21  32
ENDBRANCH  20  22
ENDBRANCH  19  20
ENDBRANCH   1  19
TORSDOF 6
