REMARK  Name = ZINC41385609
REMARK  9 active torsions:
REMARK  status: ('A' for Active; 'I' for Inactive)
REMARK    1  A    between atoms: C_1  and  C_2
REMARK    2  A    between atoms: C_4  and  C_8
REMARK    3  A    between atoms: N_5  and  C_7
REMARK    4  A    between atoms: C_11  and  S_13
REMARK    5  A    between atoms: S_13  and  C_14
REMARK    6  A    between atoms: C_14  and  C_15
REMARK    7  A    between atoms: C_19  and  C_21
REMARK    8  A    between atoms: C_21  and  C_22
REMARK    9  A    between atoms: C_21  and  C_23
REMARK                            x       y       z     vdW  Elec       q    Type
REMARK                         _______ _______ _______ _____ _____    ______ ____
ROOT
ATOM      1  S   UNL     1       0.060  -5.238  -4.951  0.00  0.00    -0.059 S 
ENDROOT
BRANCH   1   5
ATOM      2  C   UNL     1       0.041  -3.317  -1.579  0.00  0.00    +0.267 A 
ATOM      3  N   UNL     1       0.054  -4.567  -1.178  0.00  0.00    -0.105 NA
ATOM      4  N   UNL     1       0.062  -5.345  -2.203  0.00  0.00    -0.101 NA
ATOM      5  C   UNL     1       0.054  -4.623  -3.300  0.00  0.00    +0.278 A 
ATOM      6  O   UNL     1       0.035  -3.328  -2.932  0.00  0.00    -0.410 OA
BRANCH   2  10
ATOM      7  C   UNL     1      -0.018   1.503   0.010  0.00  0.00    +0.067 C 
ATOM      8  C   UNL     1       0.002  -0.004   0.002  0.00  0.00    +0.061 A 
ATOM      9  C   UNL     1       0.008  -0.810  -1.135  0.00  0.00    +0.057 A 
ATOM     10  C   UNL     1       0.029  -2.125  -0.717  0.00  0.00    +0.125 A 
ATOM     11  N   UNL     1       0.035  -2.110   0.649  0.00  0.00    -0.262 N 
ATOM     12  N   UNL     1       0.023  -0.772   1.062  0.00  0.00    -0.176 NA
ATOM     13  C   UNL     1       0.055  -3.284   1.524  0.00  0.00    +0.173 C 
ENDBRANCH   2  10
ENDBRANCH   1   5
BRANCH   1  14
ATOM     14  C   UNL     1       0.078  -7.040  -4.749  0.00  0.00    +0.134 C 
BRANCH  14  15
ATOM     15  C   UNL     1       0.084  -7.698  -6.105  0.00  0.00    +0.059 A 
ATOM     16  C   UNL     1       1.229  -8.258  -6.586  0.00  0.00    +0.094 A 
ATOM     17  C   UNL     1       1.200  -8.866  -7.858  0.00  0.00    +0.252 A 
ATOM     18  N   UNL     1       0.039  -8.867  -8.547  0.00  0.00    -0.311 N 
ATOM     19  C   UNL     1      -1.059  -8.295  -8.015  0.00  0.00    +0.113 A 
ATOM     20  N   UNL     1      -1.033  -7.737  -6.834  0.00  0.00    -0.238 NA
ATOM     21  O   UNL     1       2.203  -9.379  -8.326  0.00  0.00    -0.268 OA
ATOM     22  H   UNL     1      -0.005  -9.279  -9.424  0.00  0.00    +0.170 HD
BRANCH  19  23
ATOM     23  C   UNL     1      -2.347  -8.305  -8.797  0.00  0.00    +0.049 C 
ATOM     24  C   UNL     1      -3.530  -8.199  -7.833  0.00  0.00    +0.015 C 
ATOM     25  C   UNL     1      -2.367  -7.117  -9.762  0.00  0.00    +0.015 C 
ENDBRANCH  19  23
ENDBRANCH  14  15
ENDBRANCH   1  14
TORSDOF 5
