REMARK  Name = ZINC10150906
REMARK  11 active torsions:
REMARK  status: ('A' for Active; 'I' for Inactive)
REMARK    1  A    between atoms: C_1  and  C_2
REMARK    2  A    between atoms: C_5  and  O_9
REMARK    3  A    between atoms: C_7  and  C_8
REMARK    4  A    between atoms: O_9  and  C_10
REMARK    5  A    between atoms: C_10  and  C_12
REMARK    6  A    between atoms: C_10  and  C_13
REMARK    7  A    between atoms: N_15  and  N_16
REMARK    8  A    between atoms: C_17  and  C_18
REMARK    9  A    between atoms: C_19  and  C_26
REMARK   10  A    between atoms: C_21  and  C_25
REMARK   11  A    between atoms: C_23  and  C_24
REMARK                            x       y       z     vdW  Elec       q    Type
REMARK                         _______ _______ _______ _____ _____    ______ ____
ROOT
ATOM      1  C   UNL     1      -2.090   1.432  -0.227  0.00  0.00    +0.273 C 
ATOM      2  O   UNL     1      -2.870   2.253  -0.662  0.00  0.00    -0.270 OA
ATOM      3  N   UNL     1      -2.530   0.208   0.129  0.00  0.00    -0.204 N 
ATOM      4  H   UNL     1      -1.907  -0.449   0.476  0.00  0.00    +0.177 HD
ENDROOT
BRANCH   1   5
ATOM      5  C   UNL     1      -0.631   1.779  -0.084  0.00  0.00    +0.257 C 
ATOM      6  C   UNL     1       0.196   0.906  -1.031  0.00  0.00    +0.062 C 
BRANCH   5   7
ATOM      7  O   UNL     1      -0.435   3.156  -0.412  0.00  0.00    -0.480 OA
BRANCH   7  12
ATOM      8  C   UNL     1       4.081   5.693   1.800  0.00  0.00    +0.044 C 
ATOM      9  C   UNL     1       2.873   5.014   1.208  0.00  0.00    -0.047 A 
ATOM     10  C   UNL     1       1.961   5.747   0.471  0.00  0.00    +0.007 A 
ATOM     11  C   UNL     1       0.853   5.128  -0.073  0.00  0.00    +0.046 A 
ATOM     12  C   UNL     1       0.655   3.768   0.121  0.00  0.00    +0.122 A 
ATOM     13  C   UNL     1       1.568   3.036   0.866  0.00  0.00    +0.049 A 
ATOM     14  C   UNL     1       2.678   3.660   1.403  0.00  0.00    -0.044 A 
ATOM     15  C   UNL     1       3.673   2.864   2.207  0.00  0.00    +0.044 C 
ENDBRANCH   7  12
ENDBRANCH   5   7
ENDBRANCH   1   5
BRANCH   3  16
ATOM     16  N   UNL     1      -3.887  -0.115  -0.004  0.00  0.00    -0.188 NA
ATOM     17  C   UNL     1      -4.310  -1.293   0.338  0.00  0.00    +0.138 C 
BRANCH  17  18
ATOM     18  C   UNL     1      -5.738  -1.633   0.198  0.00  0.00    +0.000 A 
ATOM     19  C   UNL     1      -6.658  -0.653  -0.182  0.00  0.00    -0.041 A 
ATOM     20  C   UNL     1      -7.992  -0.980  -0.316  0.00  0.00    +0.007 A 
ATOM     21  C   UNL     1      -8.420  -2.271  -0.064  0.00  0.00    -0.050 A 
ATOM     22  C   UNL     1      -7.515  -3.245   0.319  0.00  0.00    +0.007 A 
ATOM     23  C   UNL     1      -6.178  -2.934   0.452  0.00  0.00    -0.041 A 
ATOM     24  C   UNL     1      -5.193  -3.996   0.869  0.00  0.00    +0.044 C 
ATOM     25  C   UNL     1      -9.880  -2.618  -0.206  0.00  0.00    +0.044 C 
ATOM     26  C   UNL     1      -6.195   0.755  -0.452  0.00  0.00    +0.044 C 
ENDBRANCH  17  18
ENDBRANCH   3  16
TORSDOF 5
