REMARK  Name = ZINC36889757
REMARK  1 active torsions:
REMARK  status: ('A' for Active; 'I' for Inactive)
REMARK    1  A    between atoms: C_3  and  N_8
REMARK                            x       y       z     vdW  Elec       q    Type
REMARK                         _______ _______ _______ _____ _____    ______ ____
ROOT
ATOM      1  N   UNL     1       3.585   2.126  -0.021  0.00  0.00    -0.281 N 
ATOM      2  C   UNL     1       4.522   2.151  -1.044  0.00  0.00    +0.075 A 
ATOM      3  C   UNL     1       4.601   1.546  -2.289  0.00  0.00    +0.030 A 
ATOM      4  C   UNL     1       5.695   1.778  -3.097  0.00  0.00    +0.022 A 
ATOM      5  C   UNL     1       6.719   2.613  -2.672  0.00  0.00    +0.043 A 
ATOM      6  C   UNL     1       6.656   3.222  -1.437  0.00  0.00    +0.050 A 
ATOM      7  C   UNL     1       5.554   2.998  -0.608  0.00  0.00    +0.093 A 
ATOM      8  N   UNL     1       5.213   3.442   0.630  0.00  0.00    -0.214 NA
ATOM      9  C   UNL     1       4.055   2.936   0.976  0.00  0.00    +0.199 A 
ATOM     10  N   UNL     1       3.407   3.182   2.169  0.00  0.00    -0.329 N 
ATOM     11 CL   UNL     1       8.088   2.891  -3.702  0.00  0.00    -0.083 Cl
ATOM     12  H   UNL     1       2.551   2.765   2.350  0.00  0.00    +0.145 HD
ATOM     13  H   UNL     1       3.809   3.771   2.826  0.00  0.00    +0.145 HD
ENDROOT
BRANCH   1  16
ATOM     14  C   UNL     1      -0.017   1.378   0.010  0.00  0.00    +0.003 A 
ATOM     15  C   UNL     1       1.169   2.087   0.002  0.00  0.00    +0.026 A 
ATOM     16  C   UNL     1       2.381   1.410  -0.013  0.00  0.00    +0.051 A 
ATOM     17  C   UNL     1       2.398   0.021  -0.021  0.00  0.00    +0.041 A 
ATOM     18  C   UNL     1       1.208  -0.682  -0.013  0.00  0.00    +0.020 A 
ATOM     19  C   UNL     1       0.002  -0.004   0.002  0.00  0.00    +0.015 A 
ATOM     20 BR   UNL     1       1.229  -2.573  -0.024  0.00  0.00    -0.050 Br
ENDBRANCH   1  16
TORSDOF 1
