REMARK  Name = ZINC58096017
REMARK  8 active torsions:
REMARK  status: ('A' for Active; 'I' for Inactive)
REMARK    1  A    between atoms: C_1  and  C_2
REMARK    2  A    between atoms: C_4  and  C_14
REMARK    3  A    between atoms: C_11  and  C_12
REMARK    4  A    between atoms: C_11  and  C_13
REMARK    5  A    between atoms: C_14  and  C_16
REMARK    6  A    between atoms: C_14  and  N_24
REMARK    7  A    between atoms: C_21  and  O_22
REMARK    8  A    between atoms: O_22  and  C_23
REMARK                            x       y       z     vdW  Elec       q    Type
REMARK                         _______ _______ _______ _____ _____    ______ ____
ROOT
ATOM      1  C   UNL     1      -0.018   1.503   0.010  0.00  0.00    +0.045 C 
ATOM      2  C   UNL     1       0.002  -0.004   0.002  0.00  0.00    -0.029 A 
ATOM      3  C   UNL     1       0.006  -0.686  -1.198  0.00  0.00    +0.007 A 
ATOM      4  C   UNL     1       0.024  -2.068  -1.216  0.00  0.00    -0.057 A 
ATOM      5  C   UNL     1       0.039  -2.773  -0.024  0.00  0.00    +0.008 A 
ATOM      6  C   UNL     1       0.036  -2.095   1.174  0.00  0.00    -0.011 A 
ATOM      7  C   UNL     1       0.023  -0.706   1.206  0.00  0.00    +0.041 A 
ATOM      8  N   UNL     1       0.029  -0.253   2.525  0.00  0.00    -0.284 N 
ATOM      9  C   UNL     1       0.052  -1.264   3.410  0.00  0.00    +0.227 C 
ATOM     10  O   UNL     1       0.062  -1.164   4.619  0.00  0.00    -0.275 OA
ATOM     11  C   UNL     1       0.049  -2.553   2.614  0.00  0.00    +0.068 C 
ATOM     12  C   UNL     1       1.318  -3.353   2.911  0.00  0.00    +0.025 C 
ATOM     13  C   UNL     1      -1.197  -3.386   2.923  0.00  0.00    +0.025 C 
ATOM     14  H   UNL     1       0.019   0.684   2.776  0.00  0.00    +0.155 HD
ENDROOT
BRANCH   4  15
ATOM     15  C   UNL     1       0.027  -2.807  -2.530  0.00  0.00    -0.010 C 
BRANCH  15  16
ATOM     16  C   UNL     1      -1.375  -2.856  -3.081  0.00  0.00    -0.016 A 
ATOM     17  C   UNL     1      -1.759  -1.974  -4.072  0.00  0.00    +0.006 A 
ATOM     18  C   UNL     1      -3.045  -2.019  -4.578  0.00  0.00    +0.000 A 
ATOM     19  C   UNL     1      -3.950  -2.946  -4.094  0.00  0.00    +0.004 A 
ATOM     20  C   UNL     1      -3.570  -3.830  -3.103  0.00  0.00    +0.046 A 
ATOM     21  C   UNL     1      -2.278  -3.791  -2.597  0.00  0.00    +0.122 A 
BRANCH  21  22
ATOM     22  O   UNL     1      -1.901  -4.664  -1.626  0.00  0.00    -0.495 OA
ATOM     23  C   UNL     1      -2.883  -5.599  -1.177  0.00  0.00    +0.277 C 
ENDBRANCH  21  22
ENDBRANCH  15  16
BRANCH  15  24
ATOM     24  N   UNL     1       0.903  -2.110  -3.481  0.00  0.00    +0.385 N 
ATOM     25  H   UNL     1       0.564  -1.170  -3.624  0.00  0.00    -0.089 HD
ATOM     26  H   UNL     1       1.841  -2.077  -3.112  0.00  0.00    -0.089 HD
ATOM     27  H   UNL     1       0.905  -2.604  -4.360  0.00  0.00    -0.089 HD
ENDBRANCH  15  24
ENDBRANCH   4  15
TORSDOF 4
