REMARK  Name = ZINC09134048
REMARK  9 active torsions:
REMARK  status: ('A' for Active; 'I' for Inactive)
REMARK    1  A    between atoms: C_1  and  C_2
REMARK    2  A    between atoms: C_2  and  C_4
REMARK    3  A    between atoms: C_2  and  N_10
REMARK    4  A    between atoms: N_6  and  C_7
REMARK    5  A    between atoms: C_7  and  C_8
REMARK    6  A    between atoms: C_7  and  C_9
REMARK    7  A    between atoms: C_11  and  C_13
REMARK    8  A    between atoms: N_16  and  S_19
REMARK    9  A    between atoms: S_19  and  C_22
REMARK                            x       y       z     vdW  Elec       q    Type
REMARK                         _______ _______ _______ _____ _____    ______ ____
ROOT
ATOM      1  C   UNL     1      -3.465  -1.164  -1.134  0.00  0.00    +0.077 C 
ATOM      2  C   UNL     1      -3.485  -2.570  -0.530  0.00  0.00    +0.030 C 
ATOM      3  C   UNL     1      -4.928  -3.083  -0.489  0.00  0.00    +0.110 C 
ATOM      4  N   UNL     1      -5.498  -2.999  -1.840  0.00  0.00    -0.176 NA
ATOM      5  C   UNL     1      -5.449  -1.713  -2.549  0.00  0.00    +0.110 C 
ATOM      6  C   UNL     1      -4.000  -1.215  -2.567  0.00  0.00    +0.030 C 
ENDROOT
BRANCH   1   8
ATOM      7  N   UNL     1      -1.372  -0.511   0.012  0.00  0.00    -0.304 N 
ATOM      8  C   UNL     1      -2.051  -0.643  -1.145  0.00  0.00    +0.217 C 
ATOM      9  O   UNL     1      -1.524  -0.341  -2.194  0.00  0.00    -0.275 OA
ATOM     10  H   UNL     1      -1.794  -0.752   0.852  0.00  0.00    +0.149 HD
BRANCH   7  12
ATOM     11  C   UNL     1      -0.019   1.526   0.010  0.00  0.00    +0.038 C 
ATOM     12  C   UNL     1       0.002  -0.004   0.002  0.00  0.00    +0.156 C 
BRANCH  12  13
ATOM     13  C   UNL     1       0.731  -0.503   1.223  0.00  0.00    +0.233 C 
ATOM     14  O   UNL     1       0.159  -1.213   2.023  0.00  0.00    -0.274 OA
ATOM     15  N   UNL     1       2.019  -0.161   1.426  0.00  0.00    -0.311 N 
ATOM     16  H   UNL     1       2.476   0.406   0.786  0.00  0.00    +0.149 HD
BRANCH  15  17
ATOM     17  C   UNL     1       2.727  -0.647   2.613  0.00  0.00    +0.067 C 
ATOM     18  C   UNL     1       3.294  -2.040   2.334  0.00  0.00    +0.027 C 
ATOM     19  C   UNL     1       3.872   0.311   2.951  0.00  0.00    +0.027 C 
ENDBRANCH  15  17
ENDBRANCH  12  13
ENDBRANCH   7  12
ENDBRANCH   1   8
BRANCH   4  20
ATOM     20  S   UNL     1      -6.183  -4.328  -2.551  0.00  0.00    +0.063 S 
ATOM     21  O   UNL     1      -6.120  -4.116  -3.955  0.00  0.00    -0.153 OA
ATOM     22  O   UNL     1      -5.606  -5.466  -1.926  0.00  0.00    -0.153 OA
BRANCH  20  23
ATOM     23  C   UNL     1      -7.891  -4.328  -2.119  0.00  0.00    +0.133 A 
ATOM     24  C   UNL     1      -8.832  -4.174  -3.080  0.00  0.00    +0.031 A 
ATOM     25  C   UNL     1     -10.193  -4.170  -2.774  0.00  0.00    +0.004 A 
ATOM     26  C   UNL     1     -10.633  -4.319  -1.503  0.00  0.00    +0.031 A 
ATOM     27  C   UNL     1      -9.702  -4.486  -0.441  0.00  0.00    +0.102 A 
ATOM     28  C   UNL     1      -8.280  -4.496  -0.762  0.00  0.00    +0.126 A 
ATOM     29  N   UNL     1      -7.502  -4.664   0.309  0.00  0.00    -0.189 NA
ATOM     30  S   UNL     1      -8.507  -4.797   1.558  0.00  0.00    +0.117 S 
ATOM     31  N   UNL     1      -9.948  -4.645   0.860  0.00  0.00    -0.191 NA
ENDBRANCH  20  23
ENDBRANCH   4  20
TORSDOF 6
