REMARK  Name = ZINC05704386
REMARK  6 active torsions:
REMARK  status: ('A' for Active; 'I' for Inactive)
REMARK    1  A    between atoms: C_1  and  O_2
REMARK    2  A    between atoms: O_2  and  C_3
REMARK    3  A    between atoms: C_8  and  C_9
REMARK    4  A    between atoms: C_12  and  O_26
REMARK    5  A    between atoms: N_14  and  C_21
REMARK    6  A    between atoms: C_17  and  O_20
REMARK                            x       y       z     vdW  Elec       q    Type
REMARK                         _______ _______ _______ _____ _____    ______ ____
ROOT
ATOM      1  C   UNL     1       0.051  -2.828  -0.033  0.00  0.00    +0.119 C 
ATOM      2  C   UNL     1       1.036  -2.949   1.090  0.00  0.00    +0.076 A 
ATOM      3  C   UNL     1       2.038  -1.984   1.326  0.00  0.00    +0.238 A 
ATOM      4  N   UNL     1       2.737  -2.349   2.366  0.00  0.00    -0.131 NA
ATOM      5  N   UNL     1       2.224  -3.554   2.845  0.00  0.00    -0.240 N 
ATOM      6  C   UNL     1       1.168  -3.926   2.039  0.00  0.00    +0.163 A 
ATOM      7  N   UNL     1       0.490  -5.066   2.254  0.00  0.00    -0.197 NA
ATOM      8  C   UNL     1      -0.473  -5.665   1.724  0.00  0.00    +0.199 C 
ATOM      9  C   UNL     1      -1.329  -5.264   0.587  0.00  0.00    +0.165 C 
ATOM     10  S   UNL     1      -0.420  -4.421  -0.716  0.00  0.00    -0.138 S 
ENDROOT
BRANCH   1  16
ATOM     11  C   UNL     1       0.606  -0.607  -1.056  0.00  0.00    +0.125 A 
ATOM     12  C   UNL     1       1.173   0.161  -2.063  0.00  0.00    +0.046 A 
ATOM     13  C   UNL     1       1.786  -0.455  -3.136  0.00  0.00    +0.004 A 
ATOM     14  C   UNL     1       1.836  -1.835  -3.208  0.00  0.00    +0.001 A 
ATOM     15  C   UNL     1       1.271  -2.602  -2.207  0.00  0.00    +0.008 A 
ATOM     16  C   UNL     1       0.661  -1.991  -1.128  0.00  0.00    +0.012 A 
BRANCH  11  18
ATOM     17  C   UNL     1      -0.017   1.425   0.010  0.00  0.00    +0.277 C 
ATOM     18  O   UNL     1       0.002  -0.004   0.002  0.00  0.00    -0.495 OA
ENDBRANCH  11  18
ENDBRANCH   1  16
BRANCH   5  19
ATOM     19  C   UNL     1       2.723  -4.298   4.004  0.00  0.00    +0.110 C 
ATOM     20  C   UNL     1       2.686  -3.405   5.262  0.00  0.00    +0.027 C 
ATOM     21  C   UNL     1       3.962  -3.800   6.046  0.00  0.00    +0.002 C 
ATOM     22  C   UNL     1       5.001  -4.021   4.919  0.00  0.00    +0.002 C 
ATOM     23  C   UNL     1       4.195  -4.690   3.787  0.00  0.00    +0.027 C 
ENDBRANCH   5  19
BRANCH   8  24
ATOM     24  O   UNL     1      -0.775  -6.859   2.273  0.00  0.00    -0.495 OA
ATOM     25  H   UNL     1      -0.206  -7.106   3.014  0.00  0.00    +0.293 HD
ENDBRANCH   8  24
BRANCH   3  26
ATOM     26  O   UNL     1       2.241  -0.858   0.591  0.00  0.00    -0.491 OA
ATOM     27  H   UNL     1       1.748  -0.088   0.905  0.00  0.00    +0.294 HD
ENDBRANCH   3  26
TORSDOF 5
