REMARK  Name = ZINC12705166
REMARK  8 active torsions:
REMARK  status: ('A' for Active; 'I' for Inactive)
REMARK    1  A    between atoms: C_4  and  C_7
REMARK    2  A    between atoms: C_7  and  O_8
REMARK    3  A    between atoms: O_8  and  C_9
REMARK    4  A    between atoms: C_12  and  C_15
REMARK    5  A    between atoms: C_15  and  N_60
REMARK    6  A    between atoms: C_18  and  N_62
REMARK    7  A    between atoms: C_20  and  O_23
REMARK    8  A    between atoms: C_26  and  O_29
REMARK                            x       y       z     vdW  Elec       q    Type
REMARK                         _______ _______ _______ _____ _____    ______ ____
ROOT
ATOM      1  C   UNL     1      -1.667   5.600   3.922  0.00  0.00    -0.080 C 
ATOM      2  C   UNL     1      -1.137   5.079   2.584  0.00  0.00    -0.031 C 
ATOM      3  C   UNL     1      -1.329   3.562   2.521  0.00  0.00    -0.043 C 
ATOM      4  C   UNL     1      -0.606   2.914   3.705  0.00  0.00    +0.085 C 
ATOM      5  C   UNL     1      -1.151   3.497   5.011  0.00  0.00    -0.048 C 
ATOM      6  N   UNL     1      -0.914   4.957   5.020  0.00  0.00    +0.384 N 
ATOM      7  H   UNL     1       0.089   5.132   4.883  0.00  0.00    -0.081 HD
ENDROOT
BRANCH   3  13
ATOM      8  C   UNL     1      -1.621   3.410   0.123  0.00  0.00    -0.076 C 
ATOM      9  C   UNL     1      -1.088   2.739  -1.146  0.00  0.00    +0.013 C 
ATOM     10  C   UNL     1       0.352   3.196  -1.393  0.00  0.00    +0.111 C 
ATOM     11  C   UNL     1       1.206   2.850  -0.170  0.00  0.00    +0.013 C 
ATOM     12  C   UNL     1       0.607   3.518   1.069  0.00  0.00    -0.076 C 
ATOM     13  N   UNL     1      -0.770   3.018   1.266  0.00  0.00    +0.383 N 
ATOM     14  H   UNL     1      -0.747   1.993   1.328  0.00  0.00    -0.081 HD
BRANCH  10  15
ATOM     15  O   UNL     1       0.873   2.530  -2.545  0.00  0.00    -0.392 OA
ATOM     16  H   UNL     1       1.784   2.772  -2.761  0.00  0.00    +0.210 HD
ENDBRANCH  10  15
ENDBRANCH   3  13
BRANCH   4  17
ATOM     17  O   UNL     1      -0.827   1.502   3.684  0.00  0.00    -0.395 OA
ATOM     18  H   UNL     1      -0.397   1.026   4.407  0.00  0.00    +0.210 HD
ENDBRANCH   4  17
BRANCH   6  19
ATOM     19  C   UNL     1      -1.328   5.527   6.318  0.00  0.00    -0.043 C 
BRANCH  19  23
ATOM     20  C   UNL     1      -1.351   9.790   6.031  0.00  0.00    +0.121 A 
ATOM     21  C   UNL     1      -2.502   9.069   5.748  0.00  0.00    +0.046 A 
ATOM     22  C   UNL     1      -2.491   7.691   5.841  0.00  0.00    +0.005 A 
ATOM     23  C   UNL     1      -1.336   7.030   6.217  0.00  0.00    -0.064 A 
ATOM     24  C   UNL     1      -0.190   7.748   6.505  0.00  0.00    +0.005 A 
ATOM     25  C   UNL     1      -0.193   9.126   6.408  0.00  0.00    +0.046 A 
BRANCH  20  26
ATOM     26  O   UNL     1      -1.359  11.146   5.939  0.00  0.00    -0.487 OA
BRANCH  26  27
ATOM     27  C   UNL     1      -0.138  11.824   6.246  0.00  0.00    +0.264 C 
BRANCH  27  31
ATOM     28  C   UNL     1      -0.699  16.036   5.806  0.00  0.00    +0.000 A 
ATOM     29  C   UNL     1      -0.938  15.430   7.025  0.00  0.00    +0.000 A 
ATOM     30  C   UNL     1      -0.757  14.067   7.167  0.00  0.00    +0.007 A 
ATOM     31  C   UNL     1      -0.336  13.310   6.090  0.00  0.00    -0.010 A 
ATOM     32  C   UNL     1      -0.091  13.916   4.873  0.00  0.00    +0.007 A 
ATOM     33  C   UNL     1      -0.277  15.278   4.729  0.00  0.00    +0.000 A 
ENDBRANCH  27  31
ENDBRANCH  26  27
ENDBRANCH  20  26
ENDBRANCH  19  23
ENDBRANCH   6  19
TORSDOF 8
