REMARK  Name = ZINC66803405
REMARK  4 active torsions:
REMARK  status: ('A' for Active; 'I' for Inactive)
REMARK    1  A    between atoms: C_1  and  C_2
REMARK    2  A    between atoms: C_8  and  C_12
REMARK    3  A    between atoms: N_14  and  C_15
REMARK    4  A    between atoms: C_18  and  C_21
REMARK                            x       y       z     vdW  Elec       q    Type
REMARK                         _______ _______ _______ _____ _____    ______ ____
ROOT
ATOM      1  C   UNL     1       4.611  -2.984   2.644  0.00  0.00    +0.033 A 
ATOM      2  C   UNL     1       3.797  -3.840   3.378  0.00  0.00    +0.024 A 
ATOM      3  C   UNL     1       4.361  -4.798   4.192  0.00  0.00    +0.013 A 
ATOM      4  C   UNL     1       5.749  -4.909   4.279  0.00  0.00    +0.019 A 
ATOM      5  C   UNL     1       6.563  -4.049   3.541  0.00  0.00    +0.013 A 
ATOM      6  C   UNL     1       5.994  -3.096   2.724  0.00  0.00    +0.024 A 
ENDROOT
BRANCH   4   7
ATOM      7  C   UNL     1       6.357  -5.937   5.152  0.00  0.00    +0.164 A 
ATOM      8  N   UNL     1       7.602  -5.965   5.584  0.00  0.00    -0.129 NA
ATOM      9  N   UNL     1       7.783  -7.005   6.324  0.00  0.00    -0.134 NA
ATOM     10  C   UNL     1       6.681  -7.687   6.406  0.00  0.00    +0.134 A 
ATOM     11  N   UNL     1       5.738  -7.032   5.670  0.00  0.00    -0.311 N 
ATOM     12  C   UNL     1       4.353  -7.471   5.503  0.00  0.00    +0.125 C 
ATOM     13  C   UNL     1       4.253  -8.945   5.913  0.00  0.00    +0.022 C 
ATOM     14  C   UNL     1       4.899  -9.142   7.288  0.00  0.00    +0.009 C 
ATOM     15  C   UNL     1       6.420  -8.966   7.161  0.00  0.00    +0.076 C 
ENDBRANCH   4   7
BRANCH   1  18
ATOM     16  C   UNL     1       2.897  -1.398   2.194  0.00  0.00    +0.239 C 
ATOM     17  O   UNL     1       2.326  -1.744   3.207  0.00  0.00    -0.273 OA
ATOM     18  N   UNL     1       4.036  -2.013   1.819  0.00  0.00    -0.284 N 
ATOM     19  H   UNL     1       4.457  -1.781   0.976  0.00  0.00    +0.155 HD
BRANCH  16  27
ATOM     20  C   UNL     1       0.483   2.268   0.687  0.00  0.00    +0.044 C 
ATOM     21  C   UNL     1       0.163   0.807   1.011  0.00  0.00    +0.082 C 
ATOM     22  C   UNL     1      -1.235   0.622   1.624  0.00  0.00    +0.046 C 
ATOM     23  C   UNL     1      -0.906   0.686   3.135  0.00  0.00    +0.099 C 
ATOM     24  C   UNL     1       0.532   0.232   3.222  0.00  0.00    +0.217 C 
ATOM     25  O   UNL     1       1.099  -0.067   4.251  0.00  0.00    -0.276 OA
ATOM     26  N   UNL     1       1.101   0.205   1.990  0.00  0.00    -0.275 N 
ATOM     27  C   UNL     1       2.333  -0.279   1.356  0.00  0.00    +0.173 C 
ATOM     28  C   UNL     1       2.134  -0.800  -0.083  0.00  0.00    +0.103 C 
ATOM     29  S   UNL     1       0.390  -0.316  -0.426  0.00  0.00    -0.133 S 
ENDBRANCH  16  27
ENDBRANCH   1  18
TORSDOF 3
