REMARK  Name = ZINC39664732
REMARK  9 active torsions:
REMARK  status: ('A' for Active; 'I' for Inactive)
REMARK    1  A    between atoms: C_1  and  C_2
REMARK    2  A    between atoms: C_6  and  C_9
REMARK    3  A    between atoms: C_13  and  C_22
REMARK    4  A    between atoms: N_24  and  C_25
REMARK    5  A    between atoms: C_25  and  C_27
REMARK    6  A    between atoms: C_25  and  C_31
REMARK    7  A    between atoms: C_27  and  N_28
REMARK    8  A    between atoms: N_28  and  C_29
REMARK    9  A    between atoms: N_28  and  C_30
REMARK                            x       y       z     vdW  Elec       q    Type
REMARK                         _______ _______ _______ _____ _____    ______ ____
ROOT
ATOM      1  C   UNL     1      -0.389  -2.902   3.491  0.00  0.00    +0.251 C 
ATOM      2  O   UNL     1       0.665  -3.198   4.018  0.00  0.00    -0.270 OA
ATOM      3  N   UNL     1      -1.543  -3.422   3.953  0.00  0.00    -0.296 N 
ATOM      4  C   UNL     1      -2.914  -3.188   3.442  0.00  0.00    +0.121 C 
ATOM      5  C   UNL     1      -3.604  -4.568   3.528  0.00  0.00    +0.100 C 
ATOM      6  C   UNL     1      -2.823  -5.330   4.611  0.00  0.00    -0.004 C 
ATOM      7  C   UNL     1      -1.728  -4.363   5.083  0.00  0.00    +0.115 C 
ATOM      8  C   UNL     1      -2.190  -6.586   4.020  0.00  0.00    -0.010 C 
ATOM      9  C   UNL     1      -1.466  -7.357   5.127  0.00  0.00    -0.082 C 
ATOM     10  N   UNL     1      -2.423  -7.716   6.181  0.00  0.00    +0.379 N 
ATOM     11  C   UNL     1      -2.958  -6.501   6.808  0.00  0.00    -0.082 C 
ATOM     12  C   UNL     1      -3.744  -5.694   5.771  0.00  0.00    -0.010 C 
ATOM     13  H   UNL     1      -3.181  -8.247   5.779  0.00  0.00    -0.086 HD
ATOM     14  H   UNL     1      -1.957  -8.276   6.880  0.00  0.00    -0.086 HD
ENDROOT
BRANCH   1  20
ATOM     15  C   UNL     1      -0.682   1.751   1.702  0.00  0.00    +0.047 C 
ATOM     16  C   UNL     1      -0.546   0.267   1.476  0.00  0.00    -0.014 A 
ATOM     17  C   UNL     1      -0.437  -0.228   0.190  0.00  0.00    +0.007 A 
ATOM     18  C   UNL     1      -0.312  -1.588  -0.028  0.00  0.00    +0.021 A 
ATOM     19  C   UNL     1      -0.296  -2.464   1.040  0.00  0.00    +0.056 A 
ATOM     20  C   UNL     1      -0.405  -1.973   2.344  0.00  0.00    +0.091 A 
ATOM     21  C   UNL     1      -0.526  -0.595   2.557  0.00  0.00    +0.140 A 
ATOM     22  F   UNL     1      -0.627  -0.110   3.813  0.00  0.00    -0.204 F 
ATOM     23 CL   UNL     1      -0.140  -4.170   0.763  0.00  0.00    -0.083 Cl
ENDBRANCH   1  20
BRANCH   5  24
ATOM     24  C   UNL     1      -3.510  -5.285   2.206  0.00  0.00    +0.219 C 
ATOM     25  O   UNL     1      -2.610  -5.023   1.437  0.00  0.00    -0.275 OA
ATOM     26  N   UNL     1      -4.426  -6.218   1.879  0.00  0.00    -0.310 N 
ATOM     27  H   UNL     1      -5.169  -6.398   2.475  0.00  0.00    +0.149 HD
BRANCH  26  28
ATOM     28  C   UNL     1      -4.299  -6.960   0.622  0.00  0.00    +0.087 C 
BRANCH  28  29
ATOM     29  C   UNL     1      -5.671  -7.296   0.096  0.00  0.00    -0.029 A 
ATOM     30  C   UNL     1      -6.670  -7.686   0.969  0.00  0.00    +0.005 A 
ATOM     31  C   UNL     1      -7.928  -7.993   0.486  0.00  0.00    +0.000 A 
ATOM     32  C   UNL     1      -8.188  -7.911  -0.869  0.00  0.00    +0.000 A 
ATOM     33  C   UNL     1      -7.189  -7.520  -1.742  0.00  0.00    +0.000 A 
ATOM     34  C   UNL     1      -5.932  -7.208  -1.259  0.00  0.00    +0.005 A 
ENDBRANCH  28  29
BRANCH  28  35
ATOM     35  C   UNL     1      -3.518  -8.252   0.869  0.00  0.00    -0.052 C 
BRANCH  35  36
ATOM     36  N   UNL     1      -2.137  -7.924   1.248  0.00  0.00    +0.377 N 
ATOM     37  C   UNL     1      -1.436  -9.150   1.653  0.00  0.00    -0.097 C 
ATOM     38  C   UNL     1      -1.445  -7.320   0.102  0.00  0.00    -0.097 C 
ATOM     39  H   UNL     1      -2.145  -7.272   2.018  0.00  0.00    -0.083 HD
ENDBRANCH  35  36
ENDBRANCH  28  35
ENDBRANCH  26  28
ENDBRANCH   5  24
TORSDOF 6
