REMARK  Name = ZINC13364751
REMARK  7 active torsions:
REMARK  status: ('A' for Active; 'I' for Inactive)
REMARK    1  A    between atoms: C_1  and  C_2
REMARK    2  A    between atoms: C_2  and  O_3
REMARK    3  A    between atoms: O_3  and  C_4
REMARK    4  A    between atoms: C_4  and  C_6
REMARK    5  A    between atoms: N_9  and  S_12
REMARK    6  A    between atoms: S_12  and  C_15
REMARK    7  A    between atoms: C_24  and  C_25
REMARK                            x       y       z     vdW  Elec       q    Type
REMARK                         _______ _______ _______ _____ _____    ______ ____
ROOT
ATOM      1  S   UNL     1      -5.710  -5.015   2.186  0.00  0.00    +0.061 S 
ATOM      2  O   UNL     1      -5.021  -6.257   2.130  0.00  0.00    -0.153 OA
ATOM      3  O   UNL     1      -5.861  -4.281   3.393  0.00  0.00    -0.153 OA
ENDROOT
BRANCH   1   4
ATOM      4  C   UNL     1      -7.335  -5.312   1.571  0.00  0.00    +0.110 A 
ATOM      5  C   UNL     1      -7.675  -6.565   1.198  0.00  0.00    +0.054 A 
ATOM      6  C   UNL     1      -9.018  -6.826   0.686  0.00  0.00    +0.058 A 
ATOM      7  N   UNL     1      -9.652  -7.886   0.253  0.00  0.00    -0.267 N 
ATOM      8  C   UNL     1     -10.927  -7.513  -0.106  0.00  0.00    +0.308 C 
ATOM      9  O   UNL     1     -11.774  -8.261  -0.547  0.00  0.00    -0.252 OA
ATOM     10  N   UNL     1     -11.097  -6.167   0.112  0.00  0.00    -0.268 N 
ATOM     11  C   UNL     1      -9.980  -5.681   0.593  0.00  0.00    +0.056 A 
ATOM     12  C   UNL     1      -9.530  -4.357   1.018  0.00  0.00    +0.030 A 
ATOM     13  C   UNL     1      -8.272  -4.199   1.486  0.00  0.00    -0.022 A 
ATOM     14  C   UNL     1      -7.823  -2.830   1.926  0.00  0.00    +0.046 C 
ATOM     15  H   UNL     1      -9.286  -8.782   0.194  0.00  0.00    +0.156 HD
ATOM     16  H   UNL     1     -11.907  -5.662  -0.060  0.00  0.00    +0.156 HD
ENDBRANCH   1   4
BRANCH   1  20
ATOM     17  C   UNL     1      -2.881  -2.427   0.017  0.00  0.00    +0.100 C 
ATOM     18  C   UNL     1      -3.623  -1.970   1.275  0.00  0.00    +0.032 C 
ATOM     19  C   UNL     1      -5.041  -2.549   1.265  0.00  0.00    +0.110 C 
ATOM     20  N   UNL     1      -4.956  -4.007   1.110  0.00  0.00    -0.177 NA
ATOM     21  C   UNL     1      -4.189  -4.554  -0.017  0.00  0.00    +0.110 C 
ATOM     22  C   UNL     1      -2.780  -3.954   0.007  0.00  0.00    +0.032 C 
BRANCH  17  23
ATOM     23  C   UNL     1      -1.496  -1.832   0.006  0.00  0.00    +0.310 C 
ATOM     24  O   UNL     1      -0.528  -2.555  -0.007  0.00  0.00    -0.251 OA
BRANCH  23  25
ATOM     25  O   UNL     1      -1.339  -0.499   0.012  0.00  0.00    -0.465 OA
BRANCH  25  27
ATOM     26  C   UNL     1      -0.019   1.526   0.010  0.00  0.00    +0.048 C 
ATOM     27  C   UNL     1       0.002  -0.004   0.002  0.00  0.00    +0.229 C 
ENDBRANCH  25  27
ENDBRANCH  23  25
ENDBRANCH  17  23
ENDBRANCH   1  20
TORSDOF 5
