REMARK  Name = ZINC16827086
REMARK  13 active torsions:
REMARK  status: ('A' for Active; 'I' for Inactive)
REMARK    1  A    between atoms: C_1  and  C_2
REMARK    2  A    between atoms: C_5  and  N_9
REMARK    3  A    between atoms: C_6  and  C_8
REMARK    4  A    between atoms: C_10  and  C_12
REMARK    5  A    between atoms: C_12  and  C_14
REMARK    6  A    between atoms: C_12  and  O_15
REMARK    7  A    between atoms: O_15  and  C_16
REMARK    8  A    between atoms: C_16  and  C_18
REMARK    9  A    between atoms: C_21  and  O_36
REMARK   10  A    between atoms: N_24  and  S_25
REMARK   11  A    between atoms: S_25  and  C_28
REMARK   12  A    between atoms: C_31  and  C_35
REMARK   13  A    between atoms: C_32  and  C_34
REMARK                            x       y       z     vdW  Elec       q    Type
REMARK                         _______ _______ _______ _____ _____    ______ ____
ROOT
ATOM      1  C   UNL     1      -2.929   7.784  -1.335  0.00  0.00    +0.191 C 
ATOM      2  C   UNL     1      -3.748   6.770  -2.160  0.00  0.00    +0.064 C 
ATOM      3  C   UNL     1      -4.564   7.679  -3.117  0.00  0.00    +0.132 C 
ATOM      4  C   UNL     1      -3.553   8.818  -3.400  0.00  0.00    +0.141 C 
ATOM      5  N   UNL     1      -2.848   9.023  -2.121  0.00  0.00    -0.160 NA
ENDROOT
BRANCH   5   6
ATOM      6  S   UNL     1      -2.092  10.419  -1.649  0.00  0.00    +0.062 S 
ATOM      7  O   UNL     1      -2.699  11.477  -2.378  0.00  0.00    -0.153 OA
ATOM      8  O   UNL     1      -2.051  10.398  -0.229  0.00  0.00    -0.153 OA
BRANCH   6   9
ATOM      9  C   UNL     1      -0.422  10.319  -2.203  0.00  0.00    +0.106 A 
ATOM     10  C   UNL     1      -0.079  10.799  -3.453  0.00  0.00    +0.029 A 
ATOM     11  C   UNL     1       1.231  10.721  -3.887  0.00  0.00    +0.005 A 
ATOM     12  C   UNL     1       2.198  10.164  -3.071  0.00  0.00    -0.047 A 
ATOM     13  C   UNL     1       1.855   9.684  -1.821  0.00  0.00    -0.046 A 
ATOM     14  C   UNL     1       0.545   9.767  -1.385  0.00  0.00    +0.032 A 
ATOM     15  C   UNL     1       2.908   9.076  -0.931  0.00  0.00    +0.044 C 
ATOM     16  C   UNL     1       3.626  10.079  -3.544  0.00  0.00    +0.044 C 
ENDBRANCH   6   9
ENDBRANCH   5   6
BRANCH   1  17
ATOM     17  C   UNL     1      -1.544   7.244  -1.087  0.00  0.00    +0.327 C 
ATOM     18  O   UNL     1      -0.581   7.829  -1.520  0.00  0.00    -0.249 OA
BRANCH  17  19
ATOM     19  O   UNL     1      -1.381   6.112  -0.384  0.00  0.00    -0.451 OA
BRANCH  19  20
ATOM     20  C   UNL     1      -0.019   5.650  -0.184  0.00  0.00    +0.259 C 
ATOM     21  C   UNL     1       0.541   6.256   1.104  0.00  0.00    +0.062 C 
BRANCH  20  23
ATOM     22  N   UNL     1       1.162   3.485   0.009  0.00  0.00    -0.282 N 
ATOM     23  C   UNL     1      -0.009   4.146  -0.078  0.00  0.00    +0.258 C 
ATOM     24  O   UNL     1      -1.055   3.532  -0.072  0.00  0.00    -0.271 OA
ATOM     25  H   UNL     1       1.993   3.979   0.085  0.00  0.00    +0.155 HD
BRANCH  22  30
ATOM     26  C   UNL     1       1.230  -2.187  -0.067  0.00  0.00    +0.044 C 
ATOM     27  C   UNL     1       1.212  -0.680  -0.046  0.00  0.00    -0.050 A 
ATOM     28  C   UNL     1       0.160   0.005  -0.627  0.00  0.00    +0.005 A 
ATOM     29  C   UNL     1       0.141   1.386  -0.611  0.00  0.00    +0.024 A 
ATOM     30  C   UNL     1       1.178   2.086  -0.009  0.00  0.00    +0.036 A 
ATOM     31  C   UNL     1       2.232   1.395   0.574  0.00  0.00    -0.029 A 
ATOM     32  C   UNL     1       2.246   0.014   0.553  0.00  0.00    +0.008 A 
ATOM     33  C   UNL     1       3.360   2.151   1.227  0.00  0.00    +0.045 C 
ENDBRANCH  22  30
ENDBRANCH  20  23
ENDBRANCH  19  20
ENDBRANCH  17  19
ENDBRANCH   1  17
BRANCH   3  34
ATOM     34  O   UNL     1      -5.736   8.181  -2.472  0.00  0.00    -0.390 OA
ATOM     35  H   UNL     1      -6.226   8.830  -2.996  0.00  0.00    +0.210 HD
ENDBRANCH   3  34
TORSDOF 8
