REMARK  Name = ZINC55503115
REMARK  4 active torsions:
REMARK  status: ('A' for Active; 'I' for Inactive)
REMARK    1  A    between atoms: C_1  and  C_2
REMARK    2  A    between atoms: C_8  and  C_19
REMARK    3  A    between atoms: C_12  and  C_13
REMARK    4  A    between atoms: C_19  and  C_20
REMARK                            x       y       z     vdW  Elec       q    Type
REMARK                         _______ _______ _______ _____ _____    ______ ____
ROOT
ATOM      1  C   UNL     1      -0.339   1.478   0.049  0.00  0.00    +0.046 C 
ATOM      2  C   UNL     1      -0.136  -0.015   0.019  0.00  0.00    -0.021 A 
ATOM      3  C   UNL     1      -0.211  -0.710  -1.198  0.00  0.00    +0.075 A 
ATOM      4  C   UNL     1      -0.468  -0.198  -2.515  0.00  0.00    +0.260 A 
ATOM      5  O   UNL     1      -0.658   0.993  -2.689  0.00  0.00    -0.267 OA
ATOM      6  N   UNL     1      -0.496  -1.053  -3.553  0.00  0.00    -0.310 N 
ATOM      7  H   UNL     1      -0.669  -0.712  -4.444  0.00  0.00    +0.170 HD
ATOM      8  C   UNL     1      -0.286  -2.383  -3.380  0.00  0.00    +0.118 A 
ATOM      9  N   UNL     1      -0.050  -2.882  -2.196  0.00  0.00    -0.226 NA
ATOM     10  C   UNL     1      -0.007  -2.102  -1.121  0.00  0.00    +0.116 A 
ATOM     11  S   UNL     1       0.276  -2.377   0.610  0.00  0.00    -0.068 S 
ATOM     12  C   UNL     1       0.125  -0.689   1.168  0.00  0.00    +0.025 A 
ENDROOT
BRANCH  12  13
ATOM     13  C   UNL     1       0.252  -0.157   2.541  0.00  0.00    -0.011 A 
ATOM     14  C   UNL     1      -0.411  -0.782   3.599  0.00  0.00    +0.009 A 
ATOM     15  C   UNL     1      -0.289  -0.280   4.878  0.00  0.00    +0.001 A 
ATOM     16  C   UNL     1       0.488   0.840   5.114  0.00  0.00    +0.000 A 
ATOM     17  C   UNL     1       1.148   1.464   4.070  0.00  0.00    +0.001 A 
ATOM     18  C   UNL     1       1.040   0.969   2.787  0.00  0.00    +0.009 A 
ENDBRANCH  12  13
BRANCH   8  19
ATOM     19  C   UNL     1      -0.328  -3.301  -4.575  0.00  0.00    +0.150 C 
BRANCH  19  20
ATOM     20  C   UNL     1      -0.068  -4.717  -4.130  0.00  0.00    +0.141 A 
ATOM     21  N   UNL     1       1.098  -5.301  -4.041  0.00  0.00    -0.134 NA
ATOM     22  N   UNL     1       0.948  -6.508  -3.620  0.00  0.00    -0.134 NA
ATOM     23  C   UNL     1      -0.317  -6.745  -3.418  0.00  0.00    +0.133 A 
ATOM     24  N   UNL     1      -0.996  -5.620  -3.742  0.00  0.00    -0.314 N 
ATOM     25  C   UNL     1      -2.446  -5.433  -3.695  0.00  0.00    +0.125 C 
ATOM     26  C   UNL     1      -3.042  -6.349  -2.622  0.00  0.00    +0.022 C 
ATOM     27  C   UNL     1      -3.390  -7.704  -3.236  0.00  0.00    +0.002 C 
ATOM     28  C   UNL     1      -2.136  -8.382  -3.780  0.00  0.00    +0.008 C 
ATOM     29  C   UNL     1      -0.935  -8.021  -2.909  0.00  0.00    +0.076 C 
ENDBRANCH  19  20
ENDBRANCH   8  19
TORSDOF 3
