REMARK  Name = ZINC02404579
REMARK  9 active torsions:
REMARK  status: ('A' for Active; 'I' for Inactive)
REMARK    1  A    between atoms: C_1  and  C_2
REMARK    2  A    between atoms: C_2  and  O_3
REMARK    3  A    between atoms: O_3  and  C_4
REMARK    4  A    between atoms: C_4  and  C_6
REMARK    5  A    between atoms: C_7  and  N_33
REMARK    6  A    between atoms: C_11  and  C_32
REMARK    7  A    between atoms: C_26  and  C_30
REMARK    8  A    between atoms: C_26  and  C_31
REMARK    9  A    between atoms: C_28  and  C_29
REMARK                            x       y       z     vdW  Elec       q    Type
REMARK                         _______ _______ _______ _____ _____    ______ ____
ROOT
ATOM      1  C   UNL     1       1.482  -2.555  -2.309  0.00  0.00    +0.117 C 
ATOM      2  C   UNL     1       1.574  -3.903  -2.453  0.00  0.00    +0.196 C 
ATOM      3  O   UNL     1       2.188  -4.463  -3.509  0.00  0.00    -0.441 OA
ATOM      4  C   UNL     1       2.403  -3.742  -4.627  0.00  0.00    +0.145 A 
ATOM      5  C   UNL     1       2.682  -4.390  -5.852  0.00  0.00    +0.088 A 
ATOM      6  C   UNL     1       2.895  -3.655  -6.959  0.00  0.00    +0.110 A 
ATOM      7  O   UNL     1       2.851  -2.318  -6.940  0.00  0.00    -0.427 OA
ATOM      8  C   UNL     1       2.590  -1.663  -5.799  0.00  0.00    +0.345 A 
ATOM      9  O   UNL     1       2.554  -0.443  -5.799  0.00  0.00    -0.245 OA
ATOM     10  C   UNL     1       2.359  -2.363  -4.609  0.00  0.00    +0.103 A 
ATOM     11  C   UNL     1       2.062  -1.626  -3.337  0.00  0.00    +0.145 C 
ATOM     12  C   UNL     1       3.286  -0.946  -2.815  0.00  0.00    -0.001 A 
ATOM     13  C   UNL     1       4.525  -1.373  -2.386  0.00  0.00    +0.007 A 
ATOM     14  C   UNL     1       5.426  -0.399  -1.956  0.00  0.00    +0.001 A 
ATOM     15  C   UNL     1       5.120   0.952  -1.949  0.00  0.00    +0.010 A 
ATOM     16  C   UNL     1       3.878   1.390  -2.379  0.00  0.00    -0.001 A 
ATOM     17  C   UNL     1       2.973   0.403  -2.812  0.00  0.00    +0.049 A 
ATOM     18  N   UNL     1       1.690   0.659  -3.276  0.00  0.00    -0.260 N 
ATOM     19  C   UNL     1       1.083  -0.495  -3.612  0.00  0.00    +0.241 C 
ATOM     20  O   UNL     1      -0.040  -0.611  -4.054  0.00  0.00    -0.274 OA
ATOM     21  C   UNL     1       1.163   2.028  -3.351  0.00  0.00    +0.055 C 
ATOM     22  C   UNL     1       2.171   3.032  -2.878  0.00  0.00    +0.002 C 
ATOM     23  C   UNL     1       3.391   2.775  -2.437  0.00  0.00    -0.043 C 
ATOM     24  C   UNL     1       4.284   3.905  -1.994  0.00  0.00    +0.044 C 
ATOM     25  C   UNL     1      -0.091   2.129  -2.481  0.00  0.00    +0.036 C 
ATOM     26  C   UNL     1       0.790   2.340  -4.802  0.00  0.00    +0.036 C 
ATOM     27  C   UNL     1       3.191  -4.359  -8.258  0.00  0.00    +0.086 C 
ENDROOT
BRANCH   2  28
ATOM     28  N   UNL     1       1.026  -4.713  -1.495  0.00  0.00    -0.329 N 
ATOM     29  H   UNL     1       0.515  -4.326  -0.767  0.00  0.00    +0.145 HD
ATOM     30  H   UNL     1       1.149  -5.674  -1.544  0.00  0.00    +0.145 HD
ENDBRANCH   2  28
BRANCH   1  31
ATOM     31  C   UNL     1       0.830  -2.023  -1.187  0.00  0.00    +0.342 C 
ATOM     32  O   UNL     1       1.481  -1.600  -0.248  0.00  0.00    -0.245 OA
BRANCH  31  33
ATOM     33  O   UNL     1      -0.519  -1.979  -1.147  0.00  0.00    -0.462 OA
BRANCH  33  35
ATOM     34  C   UNL     1      -2.635  -1.472  -0.095  0.00  0.00    +0.048 C 
ATOM     35  C   UNL     1      -1.115  -1.321  -0.027  0.00  0.00    +0.229 C 
ENDBRANCH  33  35
ENDBRANCH  31  33
ENDBRANCH   1  31
TORSDOF 4
