REMARK  Name = ZINC43218911
REMARK  10 active torsions:
REMARK  status: ('A' for Active; 'I' for Inactive)
REMARK    1  A    between atoms: C_1  and  C_2
REMARK    2  A    between atoms: C_2  and  C_3
REMARK    3  A    between atoms: C_2  and  C_4
REMARK    4  A    between atoms: C_2  and  N_5
REMARK    5  A    between atoms: C_10  and  C_27
REMARK    6  A    between atoms: C_13  and  C_18
REMARK    7  A    between atoms: C_13  and  C_24
REMARK    8  A    between atoms: C_31  and  O_34
REMARK    9  A    between atoms: C_32  and  O_33
REMARK   10  A    between atoms: O_34  and  C_35
REMARK                            x       y       z     vdW  Elec       q    Type
REMARK                         _______ _______ _______ _____ _____    ______ ____
ROOT
ATOM      1  N   UNL     1       1.046  -0.340  -1.054  0.00  0.00    -0.236 N 
ATOM      2  C   UNL     1       0.322  -1.123  -1.918  0.00  0.00    +0.225 C 
ATOM      3  O   UNL     1      -0.873  -1.324  -1.911  0.00  0.00    -0.275 OA
ATOM      4  C   UNL     1       1.298  -1.654  -2.838  0.00  0.00    +0.077 C 
ATOM      5  C   UNL     1       1.388  -2.244  -4.185  0.00  0.00    -0.023 C 
ATOM      6  N   UNL     1       2.873  -2.269  -4.419  0.00  0.00    +0.398 N 
ATOM      7  C   UNL     1       3.492  -1.237  -3.535  0.00  0.00    +0.074 C 
ATOM      8  C   UNL     1       2.307  -0.444  -2.963  0.00  0.00    +0.090 C 
ATOM      9  C   UNL     1       2.312  -0.090  -1.502  0.00  0.00    +0.226 C 
ATOM     10  O   UNL     1       3.248   0.329  -0.855  0.00  0.00    -0.275 OA
ATOM     11  H   UNL     1       3.239  -3.180  -4.189  0.00  0.00    -0.083 HD
ATOM     12  H   UNL     1       3.070  -2.054  -5.385  0.00  0.00    -0.083 HD
ENDROOT
BRANCH   7  13
ATOM     13  C   UNL     1       4.287  -1.898  -2.439  0.00  0.00    -0.047 A 
ATOM     14  C   UNL     1       5.286  -1.197  -1.790  0.00  0.00    +0.003 A 
ATOM     15  C   UNL     1       6.016  -1.803  -0.784  0.00  0.00    +0.000 A 
ATOM     16  C   UNL     1       5.745  -3.111  -0.427  0.00  0.00    +0.000 A 
ATOM     17  C   UNL     1       4.745  -3.812  -1.075  0.00  0.00    +0.000 A 
ATOM     18  C   UNL     1       4.013  -3.204  -2.078  0.00  0.00    +0.003 A 
ENDBRANCH   7  13
BRANCH   5  19
ATOM     19  C   UNL     1       0.816  -3.638  -4.202  0.00  0.00    -0.015 A 
ATOM     20  C   UNL     1       0.589  -4.306  -3.012  0.00  0.00    +0.006 A 
ATOM     21  C   UNL     1       0.065  -5.585  -3.024  0.00  0.00    +0.004 A 
ATOM     22  C   UNL     1      -0.234  -6.202  -4.225  0.00  0.00    +0.049 A 
ATOM     23  C   UNL     1      -0.010  -5.538  -5.419  0.00  0.00    +0.161 A 
ATOM     24  C   UNL     1       0.512  -4.248  -5.408  0.00  0.00    +0.160 A 
BRANCH  24  25
ATOM     25  O   UNL     1       0.730  -3.590  -6.578  0.00  0.00    -0.503 OA
ATOM     26  H   UNL     1       1.609  -3.734  -6.953  0.00  0.00    +0.292 HD
ENDBRANCH  24  25
BRANCH  23  27
ATOM     27  O   UNL     1      -0.304  -6.144  -6.601  0.00  0.00    -0.491 OA
ATOM     28  C   UNL     1      -0.842  -7.466  -6.537  0.00  0.00    +0.277 C 
ENDBRANCH  23  27
ENDBRANCH   5  19
BRANCH   1  30
ATOM     29  C   UNL     1       0.549   1.707   0.189  0.00  0.00    +0.031 C 
ATOM     30  C   UNL     1       0.515   0.177   0.210  0.00  0.00    +0.036 C 
ATOM     31  C   UNL     1       1.370  -0.336   1.370  0.00  0.00    +0.031 C 
ATOM     32  C   UNL     1      -0.928  -0.298   0.390  0.00  0.00    +0.031 C 
ENDBRANCH   1  30
BRANCH   7  33
ATOM     33  C   UNL     1       4.376  -0.321  -4.342  0.00  0.00    +0.350 C 
ATOM     34  O   UNL     1       4.516  -0.507  -5.539  0.00  0.00    -0.248 OA
ATOM     35  O   UNL     1       4.951   0.607  -3.798  0.00  0.00    -0.248 OA
ENDBRANCH   7  33
TORSDOF 6
