REMARK  Name = ZINC34915622
REMARK  8 active torsions:
REMARK  status: ('A' for Active; 'I' for Inactive)
REMARK    1  A    between atoms: C_1  and  C_2
REMARK    2  A    between atoms: N_4  and  C_5
REMARK    3  A    between atoms: C_8  and  N_11
REMARK    4  A    between atoms: C_12  and  C_23
REMARK    5  A    between atoms: C_15  and  C_16
REMARK    6  A    between atoms: C_23  and  C_24
REMARK    7  A    between atoms: C_24  and  C_25
REMARK    8  A    between atoms: C_28  and  C_30
REMARK                            x       y       z     vdW  Elec       q    Type
REMARK                         _______ _______ _______ _____ _____    ______ ____
ROOT
ATOM      1  N   UNL     1      -0.307  -6.237  -1.057  0.00  0.00    -0.313 N 
ATOM      2  C   UNL     1       0.719  -7.095  -1.332  0.00  0.00    +0.025 A 
ATOM      3  C   UNL     1       0.305  -8.354  -1.071  0.00  0.00    +0.024 A 
ATOM      4  C   UNL     1      -1.022  -8.283  -0.618  0.00  0.00    +0.028 A 
ATOM      5  C   UNL     1      -1.380  -6.969  -0.611  0.00  0.00    +0.054 A 
ENDROOT
BRANCH   5   6
ATOM      6  C   UNL     1      -2.692  -6.426  -0.199  0.00  0.00    -0.001 A 
ATOM      7  C   UNL     1      -3.534  -7.177   0.624  0.00  0.00    +0.013 A 
ATOM      8  C   UNL     1      -4.757  -6.665   1.005  0.00  0.00    +0.039 A 
ATOM      9  C   UNL     1      -5.151  -5.409   0.573  0.00  0.00    +0.123 A 
ATOM     10  C   UNL     1      -4.320  -4.660  -0.244  0.00  0.00    +0.039 A 
ATOM     11  C   UNL     1      -3.092  -5.159  -0.626  0.00  0.00    +0.013 A 
ATOM     12  F   UNL     1      -6.351  -4.914   0.948  0.00  0.00    -0.205 F 
ENDBRANCH   5   6
BRANCH   1  16
ATOM     13  C   UNL     1      -0.193  -2.089  -1.482  0.00  0.00    +0.034 A 
ATOM     14  C   UNL     1      -0.257  -2.656  -0.216  0.00  0.00    +0.025 A 
ATOM     15  C   UNL     1      -0.295  -4.029  -0.075  0.00  0.00    +0.028 A 
ATOM     16  C   UNL     1      -0.269  -4.843  -1.200  0.00  0.00    +0.047 A 
ATOM     17  C   UNL     1      -0.205  -4.276  -2.466  0.00  0.00    +0.028 A 
ATOM     18  C   UNL     1      -0.172  -2.904  -2.607  0.00  0.00    +0.025 A 
BRANCH  13  22
ATOM     19  C   UNL     1      -0.827   1.395  -2.760  0.00  0.00    +0.109 C 
ATOM     20  C   UNL     1      -0.780  -0.108  -2.663  0.00  0.00    +0.214 C 
ATOM     21  O   UNL     1      -1.305  -0.788  -3.520  0.00  0.00    -0.276 OA
ATOM     22  N   UNL     1      -0.154  -0.697  -1.625  0.00  0.00    -0.286 N 
ATOM     23  H   UNL     1       0.324  -0.156  -0.977  0.00  0.00    +0.155 HD
ENDBRANCH  13  22
ENDBRANCH   1  16
BRANCH   2  24
ATOM     24  C   UNL     1       2.082  -6.704  -1.842  0.00  0.00    +0.063 C 
BRANCH  24  25
ATOM     25  C   UNL     1       2.108  -6.819  -3.367  0.00  0.00    +0.102 C 
BRANCH  25  26
ATOM     26  C   UNL     1       3.472  -6.427  -3.877  0.00  0.00    +0.220 C 
ATOM     27  O   UNL     1       4.336  -6.089  -3.097  0.00  0.00    -0.275 OA
ATOM     28  N   UNL     1       3.729  -6.452  -5.199  0.00  0.00    -0.256 N 
ATOM     29  C   UNL     1       4.949  -6.102  -5.655  0.00  0.00    +0.220 C 
ATOM     30  O   UNL     1       5.813  -5.764  -4.875  0.00  0.00    -0.275 OA
ATOM     31  H   UNL     1       3.038  -6.723  -5.823  0.00  0.00    +0.157 HD
BRANCH  29  32
ATOM     32  C   UNL     1       5.237  -6.130  -7.134  0.00  0.00    +0.058 C 
ATOM     33  C   UNL     1       4.285  -5.175  -7.859  0.00  0.00    +0.009 C 
ATOM     34  C   UNL     1       4.637  -5.152  -9.349  0.00  0.00    -0.018 C 
ATOM     35  C   UNL     1       6.104  -4.746  -9.514  0.00  0.00    -0.083 C 
ATOM     36  N   UNL     1       6.964  -5.713  -8.821  0.00  0.00    +0.380 N 
ATOM     37  C   UNL     1       6.681  -5.689  -7.381  0.00  0.00    -0.070 C 
ATOM     38  H   UNL     1       6.787  -6.638  -9.182  0.00  0.00    -0.086 HD
ATOM     39  H   UNL     1       7.931  -5.473  -8.977  0.00  0.00    -0.086 HD
ENDBRANCH  29  32
ENDBRANCH  25  26
ENDBRANCH  24  25
ENDBRANCH   2  24
TORSDOF 7
