REMARK  Name = ZINC32705919
REMARK  5 active torsions:
REMARK  status: ('A' for Active; 'I' for Inactive)
REMARK    1  A    between atoms: C_1  and  N_2
REMARK    2  A    between atoms: C_4  and  N_21
REMARK    3  A    between atoms: C_5  and  C_7
REMARK    4  A    between atoms: N_9  and  N_10
REMARK    5  A    between atoms: C_11  and  C_12
REMARK                            x       y       z     vdW  Elec       q    Type
REMARK                         _______ _______ _______ _____ _____    ______ ____
ROOT
ATOM      1  C   UNL     1       2.259   3.709   0.682  0.00  0.00    +0.286 C 
ATOM      2  O   UNL     1       3.305   3.088   0.689  0.00  0.00    -0.267 OA
ATOM      3  N   UNL     1       1.093   3.061   0.488  0.00  0.00    -0.202 N 
ATOM      4  H   UNL     1       0.147   3.623   0.482  0.00  0.00    +0.178 HD
ENDROOT
BRANCH   1   9
ATOM      5  C   UNL     1       0.678   8.329   1.185  0.00  0.00    +0.172 C 
ATOM      6  N   UNL     1       1.584   7.180   1.106  0.00  0.00    -0.272 N 
ATOM      7  C   UNL     1       2.926   7.245   1.235  0.00  0.00    +0.141 A 
ATOM      8  C   UNL     1       3.404   5.985   1.103  0.00  0.00    +0.176 A 
ATOM      9  C   UNL     1       2.266   5.171   0.887  0.00  0.00    +0.179 A 
ATOM     10  N   UNL     1       1.216   5.967   0.899  0.00  0.00    -0.164 NA
BRANCH   8  11
ATOM     11  N   UNL     1       4.817   5.551   1.169  0.00  0.00    +0.060 N 
ATOM     12  O   UNL     1       5.697   6.370   1.362  0.00  0.00    -0.126 OA
ATOM     13  O   UNL     1       5.100   4.374   1.030  0.00  0.00    -0.126 OA
ENDBRANCH   8  11
ENDBRANCH   1   9
BRANCH   3  14
ATOM     14  N   UNL     1       1.086   1.674   0.293  0.00  0.00    -0.187 NA
ATOM     15  C   UNL     1      -0.019   1.068  -0.018  0.00  0.00    +0.138 C 
BRANCH  15  16
ATOM     16  C   UNL     1      -1.139   1.829  -0.600  0.00  0.00    -0.003 A 
ATOM     17  C   UNL     1      -2.429   1.292  -0.597  0.00  0.00    +0.028 A 
ATOM     18  C   UNL     1      -3.474   2.010  -1.139  0.00  0.00    +0.066 A 
ATOM     19  C   UNL     1      -3.245   3.261  -1.696  0.00  0.00    +0.207 A 
ATOM     20  C   UNL     1      -1.963   3.797  -1.707  0.00  0.00    +0.066 A 
ATOM     21  C   UNL     1      -0.913   3.088  -1.163  0.00  0.00    +0.028 A 
ATOM     22 BR   UNL     1      -1.658   5.501  -2.469  0.00  0.00    -0.046 Br
ATOM     23  O   UNL     1      -4.277   3.963  -2.234  0.00  0.00    -0.286 OA
ATOM     24 BR   UNL     1      -5.221   1.286  -1.128  0.00  0.00    -0.046 Br
ENDBRANCH  15  16
ENDBRANCH   3  14
TORSDOF 4
