REMARK  Name = ZINC46643879
REMARK  10 active torsions:
REMARK  status: ('A' for Active; 'I' for Inactive)
REMARK    1  A    between atoms: C_1  and  C_2
REMARK    2  A    between atoms: C_2  and  C_3
REMARK    3  A    between atoms: C_2  and  C_4
REMARK    4  A    between atoms: C_2  and  C_5
REMARK    5  A    between atoms: N_13  and  C_17
REMARK    6  A    between atoms: C_17  and  C_18
REMARK    7  A    between atoms: N_20  and  C_21
REMARK    8  A    between atoms: C_21  and  C_22
REMARK    9  A    between atoms: C_22  and  N_23
REMARK   10  A    between atoms: C_27  and  C_30
REMARK                            x       y       z     vdW  Elec       q    Type
REMARK                         _______ _______ _______ _____ _____    ______ ____
ROOT
ATOM      1  C   UNL     1       5.718  -3.932  -1.222  0.00  0.00    +0.213 C 
ENDROOT
BRANCH   1  10
ATOM      2  C   UNL     1       0.718  -0.497  -1.257  0.00  0.00    -0.005 C 
ATOM      3  C   UNL     1       0.738  -2.027  -1.265  0.00  0.00    +0.006 C 
ATOM      4  C   UNL     1       1.444  -2.520  -2.531  0.00  0.00    +0.035 C 
ATOM      5  C   UNL     1       2.868  -1.976  -2.567  0.00  0.00    +0.113 C 
ATOM      6  C   UNL     1       2.865  -0.452  -2.534  0.00  0.00    +0.035 C 
ATOM      7  C   UNL     1       2.154   0.032  -1.268  0.00  0.00    +0.006 C 
ATOM      8  C   UNL     1       3.673  -2.528  -1.413  0.00  0.00    +0.247 C 
ATOM      9  O   UNL     1       3.458  -2.379  -0.230  0.00  0.00    -0.273 OA
ATOM     10  N   UNL     1       4.683  -3.223  -1.978  0.00  0.00    -0.215 N 
ATOM     11  C   UNL     1       4.622  -3.182  -3.315  0.00  0.00    +0.310 C 
ATOM     12  O   UNL     1       5.422  -3.733  -4.045  0.00  0.00    -0.252 OA
ATOM     13  N   UNL     1       3.574  -2.462  -3.760  0.00  0.00    -0.285 N 
ATOM     14  H   UNL     1       3.333  -2.298  -4.685  0.00  0.00    +0.151 HD
BRANCH   2  16
ATOM     15  C   UNL     1      -0.019   1.526   0.010  0.00  0.00    +0.011 C 
ATOM     16  C   UNL     1       0.002  -0.004   0.002  0.00  0.00    -0.035 C 
ATOM     17  C   UNL     1       0.742  -0.511   1.242  0.00  0.00    +0.011 C 
ATOM     18  C   UNL     1      -1.433  -0.534   0.013  0.00  0.00    +0.011 C 
ENDBRANCH   2  16
ENDBRANCH   1  10
BRANCH   1  19
ATOM     19  C   UNL     1       5.269  -5.347  -0.961  0.00  0.00    +0.231 C 
ATOM     20  O   UNL     1       4.190  -5.725  -1.367  0.00  0.00    -0.274 OA
ATOM     21  N   UNL     1       6.065  -6.192  -0.277  0.00  0.00    -0.313 N 
ATOM     22  H   UNL     1       6.928  -5.889   0.047  0.00  0.00    +0.149 HD
BRANCH  21  23
ATOM     23  C   UNL     1       5.628  -7.567  -0.023  0.00  0.00    +0.123 C 
BRANCH  23  24
ATOM     24  C   UNL     1       6.710  -8.308   0.766  0.00  0.00    +0.121 C 
BRANCH  24  25
ATOM     25  N   UNL     1       6.272  -9.683   1.020  0.00  0.00    -0.328 N 
ATOM     26  C   UNL     1       7.094 -10.554   1.725  0.00  0.00    +0.119 A 
ATOM     27  C   UNL     1       8.328 -10.112   2.192  0.00  0.00    +0.044 A 
ATOM     28  C   UNL     1       9.136 -10.990   2.893  0.00  0.00    +0.017 A 
ATOM     29  C   UNL     1       8.681 -12.285   3.103  0.00  0.00    +0.073 A 
ATOM     30  C   UNL     1       7.446 -12.656   2.612  0.00  0.00    +0.125 A 
ATOM     31  N   UNL     1       6.694 -11.796   1.951  0.00  0.00    -0.240 NA
ATOM     32  H   UNL     1       5.410  -9.985   0.696  0.00  0.00    +0.148 HD
BRANCH  29  33
ATOM     33  C   UNL     1       9.527 -13.275   3.861  0.00  0.00    +0.419 C 
ATOM     34  F   UNL     1       9.225 -13.200   5.225  0.00  0.00    -0.166 F 
ATOM     35  F   UNL     1       9.262 -14.568   3.395  0.00  0.00    -0.166 F 
ATOM     36  F   UNL     1      10.880 -12.978   3.666  0.00  0.00    -0.166 F 
ENDBRANCH  29  33
ENDBRANCH  24  25
ENDBRANCH  23  24
ENDBRANCH  21  23
ENDBRANCH   1  19
TORSDOF 7
