REMARK  Name = ZINC15267585
REMARK  15 active torsions:
REMARK  status: ('A' for Active; 'I' for Inactive)
REMARK    1  A    between atoms: C_1  and  C_2
REMARK    2  A    between atoms: C_2  and  C_3
REMARK    3  A    between atoms: C_2  and  C_4
REMARK    4  A    between atoms: C_2  and  O_40
REMARK    5  A    between atoms: C_4  and  C_5
REMARK    6  A    between atoms: C_5  and  C_6
REMARK    7  A    between atoms: C_6  and  C_7
REMARK    8  A    between atoms: C_7  and  C_8
REMARK    9  A    between atoms: C_7  and  C_12
REMARK   10  A    between atoms: C_7  and  O_39
REMARK   11  A    between atoms: C_8  and  C_9
REMARK   12  A    between atoms: C_12  and  O_14
REMARK   13  A    between atoms: O_14  and  C_15
REMARK   14  A    between atoms: C_33  and  O_34
REMARK   15  A    between atoms: O_34  and  C_35
REMARK                            x       y       z     vdW  Elec       q    Type
REMARK                         _______ _______ _______ _____ _____    ______ ____
ROOT
ATOM      1  C   UNL     1      -0.282   2.767   3.921  0.00  0.00    +0.250 C 
ATOM      2  C   UNL     1       0.299   1.700   2.961  0.00  0.00    +0.092 C 
ATOM      3  C   UNL     1       0.062   0.327   3.435  0.00  0.00    -0.031 A 
ATOM      4  C   UNL     1       1.086  -0.165   4.273  0.00  0.00    +0.054 A 
ATOM      5  C   UNL     1       0.882  -1.338   4.967  0.00  0.00    +0.167 A 
ATOM      6  C   UNL     1      -0.327  -2.041   4.840  0.00  0.00    +0.167 A 
ATOM      7  C   UNL     1      -1.301  -1.593   3.972  0.00  0.00    +0.053 A 
ATOM      8  C   UNL     1      -1.069  -0.416   3.240  0.00  0.00    -0.039 A 
ATOM      9  C   UNL     1      -2.143  -0.092   2.252  0.00  0.00    +0.051 C 
ATOM     10  C   UNL     1      -1.636   0.508   0.982  0.00  0.00    +0.090 C 
ATOM     11  N   UNL     1      -1.338   1.920   1.026  0.00  0.00    -0.292 NA
ATOM     12  C   UNL     1      -0.047   2.252   1.625  0.00  0.00    +0.054 C 
ATOM     13  C   UNL     1       0.979   1.904   0.523  0.00  0.00    +0.028 C 
ATOM     14  C   UNL     1       0.248   2.385  -0.756  0.00  0.00    +0.017 C 
ATOM     15  C   UNL     1      -1.244   2.431  -0.373  0.00  0.00    +0.085 C 
ATOM     16  C   UNL     1      -0.014   3.767   1.832  0.00  0.00    +0.041 C 
ATOM     17  C   UNL     1      -0.143   4.047   3.114  0.00  0.00    +0.136 C 
ATOM     18  O   UNL     1      -0.294  -3.118   5.656  0.00  0.00    -0.453 OA
ATOM     19  C   UNL     1       0.795  -2.878   6.571  0.00  0.00    +0.466 C 
ATOM     20  O   UNL     1       1.675  -1.996   5.844  0.00  0.00    -0.453 OA
ENDROOT
BRANCH  17  21
ATOM     21  O   UNL     1      -0.152   5.298   3.637  0.00  0.00    -0.496 OA
ATOM     22  C   UNL     1      -0.009   6.386   2.721  0.00  0.00    +0.276 C 
ENDBRANCH  17  21
BRANCH   1  23
ATOM     23  O   UNL     1      -1.676   2.491   4.215  0.00  0.00    -0.451 OA
BRANCH  23  24
ATOM     24  C   UNL     1      -2.135   2.881   5.415  0.00  0.00    +0.340 C 
ATOM     25  O   UNL     1      -1.395   3.434   6.194  0.00  0.00    -0.248 OA
BRANCH  24  26
ATOM     26  C   UNL     1      -3.572   2.628   5.792  0.00  0.00    +0.172 C 
BRANCH  26  27
ATOM     27  O   UNL     1      -4.001   1.387   5.228  0.00  0.00    -0.377 OA
ATOM     28  H   UNL     1      -3.982   1.242   4.138  0.00  0.00    +0.211 HD
ENDBRANCH  26  27
BRANCH  26  29
ATOM     29  C   UNL     1      -3.697   2.567   7.315  0.00  0.00    +0.047 C 
BRANCH  29  30
ATOM     30  C   UNL     1      -5.152   2.287   7.696  0.00  0.00    +0.006 C 
BRANCH  30  31
ATOM     31  C   UNL     1      -5.255   2.095   9.211  0.00  0.00    +0.034 C 
BRANCH  31  33
ATOM     32  C   UNL     1      -7.187   0.545   8.883  0.00  0.00    +0.041 C 
ATOM     33  C   UNL     1      -6.710   1.815   9.592  0.00  0.00    +0.061 C 
ATOM     34  C   UNL     1      -6.812   1.623  11.106  0.00  0.00    +0.041 C 
BRANCH  33  35
ATOM     35  O   UNL     1      -7.527   2.918   9.195  0.00  0.00    -0.389 OA
ATOM     36  H   UNL     1      -7.334   3.921   9.604  0.00  0.00    +0.210 HD
ENDBRANCH  33  35
ENDBRANCH  31  33
ENDBRANCH  30  31
ENDBRANCH  29  30
ENDBRANCH  26  29
BRANCH  26  37
ATOM     37  C   UNL     1      -4.447   3.762   5.253  0.00  0.00    +0.171 C 
BRANCH  37  38
ATOM     38  C   UNL     1      -4.398   3.762   3.747  0.00  0.00    +0.359 C 
ATOM     39  O   UNL     1      -3.835   2.868   3.160  0.00  0.00    -0.246 OA
ATOM     40  O   UNL     1      -4.980   4.755   3.056  0.00  0.00    -0.246 OA
ENDBRANCH  37  38
ENDBRANCH  26  37
ENDBRANCH  24  26
ENDBRANCH  23  24
ENDBRANCH   1  23
TORSDOF 12
