REMARK  Name = ZINC62322137
REMARK  5 active torsions:
REMARK  status: ('A' for Active; 'I' for Inactive)
REMARK    1  A    between atoms: C_1  and  C_2
REMARK    2  A    between atoms: C_2  and  C_3
REMARK    3  A    between atoms: C_3  and  C_4
REMARK    4  A    between atoms: C_4  and  N_5
REMARK    5  A    between atoms: C_14  and  C_17
REMARK                            x       y       z     vdW  Elec       q    Type
REMARK                         _______ _______ _______ _____ _____    ______ ____
ROOT
ATOM      1  N   UNL     1      -2.787  -2.571   0.015  0.00  0.00    -0.308 N 
ATOM      2  C   UNL     1      -3.398  -2.801   1.190  0.00  0.00    +0.252 A 
ATOM      3  O   UNL     1      -2.795  -2.582   2.225  0.00  0.00    -0.268 OA
ATOM      4  C   UNL     1      -4.720  -3.289   1.255  0.00  0.00    +0.071 A 
ATOM      5  C   UNL     1      -5.412  -3.540   0.115  0.00  0.00    +0.017 A 
ATOM      6  C   UNL     1      -4.754  -3.292  -1.169  0.00  0.00    +0.018 A 
ATOM      7  C   UNL     1      -3.433  -2.799  -1.178  0.00  0.00    +0.055 A 
ATOM      8  C   UNL     1      -2.796  -2.552  -2.391  0.00  0.00    +0.047 A 
ATOM      9  C   UNL     1      -3.445  -2.781  -3.570  0.00  0.00    +0.058 A 
ATOM     10  C   UNL     1      -4.763  -3.267  -3.579  0.00  0.00    +0.100 A 
ATOM     11  C   UNL     1      -5.417  -3.533  -2.375  0.00  0.00    +0.066 A 
ATOM     12 CL   UNL     1      -7.045  -4.135  -2.376  0.00  0.00    -0.082 Cl
ATOM     13 CL   UNL     1      -2.635  -2.468  -5.073  0.00  0.00    -0.083 Cl
ENDROOT
BRANCH  10  14
ATOM     14  C   UNL     1      -5.450  -3.507  -4.858  0.00  0.00    +0.389 C 
ATOM     15  O   UNL     1      -4.873  -3.284  -5.913  0.00  0.00    -0.240 OA
ATOM     16  O   UNL     1      -6.598  -3.930  -4.866  0.00  0.00    -0.240 OA
ENDBRANCH  10  14
BRANCH   1  17
ATOM     17  C   UNL     1      -1.413  -2.063   0.004  0.00  0.00    +0.125 C 
BRANCH  17  18
ATOM     18  C   UNL     1      -1.433  -0.534   0.013  0.00  0.00    +0.021 C 
BRANCH  18  20
ATOM     19  C   UNL     1      -0.019   1.526   0.010  0.00  0.00    +0.004 C 
ATOM     20  C   UNL     1       0.002  -0.004   0.002  0.00  0.00    -0.002 C 
ENDBRANCH  18  20
ENDBRANCH  17  18
ENDBRANCH   1  17
TORSDOF 4
