REMARK  Name = ZINC09810167
REMARK  8 active torsions:
REMARK  status: ('A' for Active; 'I' for Inactive)
REMARK    1  A    between atoms: C_1  and  C_2
REMARK    2  A    between atoms: C_2  and  C_27
REMARK    3  A    between atoms: N_5  and  N_9
REMARK    4  A    between atoms: C_10  and  C_12
REMARK    5  A    between atoms: C_12  and  S_13
REMARK    6  A    between atoms: S_13  and  C_14
REMARK    7  A    between atoms: C_17  and  C_20
REMARK    8  A    between atoms: N_18  and  C_19
REMARK                            x       y       z     vdW  Elec       q    Type
REMARK                         _______ _______ _______ _____ _____    ______ ____
ROOT
ATOM      1  N   UNL     1       0.787   3.613   0.289  0.00  0.00    -0.223 N 
ATOM      2  C   UNL     1       1.449   4.088   1.363  0.00  0.00    +0.240 C 
ATOM      3  O   UNL     1       1.507   3.429   2.380  0.00  0.00    -0.273 OA
ATOM      4  H   UNL     1       0.735   4.211  -0.633  0.00  0.00    +0.174 HD
ENDROOT
BRANCH   1   9
ATOM      5  C   UNL     1      -2.018   0.240   1.798  0.00  0.00    +0.047 C 
ATOM      6  C   UNL     1      -1.370   0.674   0.482  0.00  0.00    +0.137 C 
ATOM      7  C   UNL     1      -1.163   2.175   0.458  0.00  0.00    +0.267 C 
ATOM      8  O   UNL     1      -2.017   3.033   0.521  0.00  0.00    -0.271 OA
ATOM      9  N   UNL     1       0.167   2.358   0.347  0.00  0.00    -0.137 N 
ATOM     10  C   UNL     1       0.823   1.193   0.297  0.00  0.00    +0.327 C 
ATOM     11  O   UNL     1       2.031   1.101   0.198  0.00  0.00    -0.251 OA
ATOM     12  N   UNL     1      -0.004   0.134   0.371  0.00  0.00    -0.280 N 
ATOM     13  H   UNL     1       0.159  -0.954   0.362  0.00  0.00    +0.152 HD
BRANCH   6  14
ATOM     14  C   UNL     1      -2.210   0.236  -0.690  0.00  0.00    -0.015 A 
ATOM     15  C   UNL     1      -3.161   1.090  -1.217  0.00  0.00    +0.006 A 
ATOM     16  C   UNL     1      -3.928   0.691  -2.295  0.00  0.00    +0.000 A 
ATOM     17  C   UNL     1      -3.751  -0.567  -2.840  0.00  0.00    +0.000 A 
ATOM     18  C   UNL     1      -2.805  -1.424  -2.310  0.00  0.00    +0.000 A 
ATOM     19  C   UNL     1      -2.034  -1.022  -1.235  0.00  0.00    +0.006 A 
ENDBRANCH   6  14
ENDBRANCH   1   9
BRANCH   2  20
ATOM     20  C   UNL     1       2.116   5.438   1.301  0.00  0.00    +0.174 C 
BRANCH  20  21
ATOM     21  S   UNL     1       2.913   5.790   2.887  0.00  0.00    -0.077 S 
BRANCH  21  22
ATOM     22  C   UNL     1       3.592   7.379   2.542  0.00  0.00    +0.192 A 
ATOM     23  N   UNL     1       3.496   8.039   1.409  0.00  0.00    -0.122 NA
ATOM     24  N   UNL     1       4.103   9.168   1.503  0.00  0.00    -0.128 NA
ATOM     25  C   UNL     1       4.633   9.294   2.697  0.00  0.00    +0.166 A 
ATOM     26  N   UNL     1       4.322   8.152   3.400  0.00  0.00    -0.305 N 
ATOM     27  C   UNL     1       4.696   7.833   4.780  0.00  0.00    +0.153 C 
BRANCH  25  28
ATOM     28  C   UNL     1       5.416  10.445   3.194  0.00  0.00    +0.038 A 
ATOM     29  C   UNL     1       6.624  10.236   3.861  0.00  0.00    +0.013 A 
ATOM     30  C   UNL     1       7.350  11.314   4.322  0.00  0.00    +0.001 A 
ATOM     31  C   UNL     1       6.884  12.602   4.123  0.00  0.00    +0.001 A 
ATOM     32  C   UNL     1       5.688  12.818   3.464  0.00  0.00    +0.021 A 
ATOM     33  C   UNL     1       4.953  11.747   2.993  0.00  0.00    +0.052 A 
ATOM     34 CL   UNL     1       3.456  12.020   2.158  0.00  0.00    -0.083 Cl
ENDBRANCH  25  28
ENDBRANCH  21  22
ENDBRANCH  20  21
ENDBRANCH   2  20
TORSDOF 6
