REMARK  Name = ZINC06283597
REMARK  5 active torsions:
REMARK  status: ('A' for Active; 'I' for Inactive)
REMARK    1  A    between atoms: C_8  and  C_10
REMARK    2  A    between atoms: C_13  and  N_17
REMARK    3  A    between atoms: C_15  and  O_16
REMARK    4  A    between atoms: C_18  and  C_20
REMARK    5  A    between atoms: C_20  and  C_21
REMARK                            x       y       z     vdW  Elec       q    Type
REMARK                         _______ _______ _______ _____ _____    ______ ____
ROOT
ATOM      1  C   UNL     1       3.629  -3.355  -0.035  0.00  0.00    +0.078 A 
ATOM      2  C   UNL     1       2.968  -4.574   0.138  0.00  0.00    +0.018 A 
ATOM      3  C   UNL     1       3.681  -5.751   0.118  0.00  0.00    +0.024 A 
ATOM      4  C   UNL     1       5.059  -5.733  -0.075  0.00  0.00    +0.037 A 
ATOM      5  C   UNL     1       5.724  -4.526  -0.248  0.00  0.00    +0.069 A 
ATOM      6  C   UNL     1       5.016  -3.337  -0.235  0.00  0.00    +0.131 A 
ENDROOT
BRANCH   1  14
ATOM      7  C   UNL     1      -0.022   1.365   0.158  0.00  0.00    +0.002 A 
ATOM      8  C   UNL     1       1.147   2.080  -0.059  0.00  0.00    +0.004 A 
ATOM      9  C   UNL     1       2.354   1.424  -0.185  0.00  0.00    +0.048 A 
ATOM     10  C   UNL     1       2.403   0.042  -0.096  0.00  0.00    +0.156 A 
ATOM     11  C   UNL     1       1.222  -0.685   0.123  0.00  0.00    +0.110 A 
ATOM     12  C   UNL     1       0.007  -0.008   0.249  0.00  0.00    +0.031 A 
ATOM     13  N   UNL     1       1.573  -1.997   0.164  0.00  0.00    -0.209 NA
ATOM     14  C   UNL     1       2.868  -2.091  -0.015  0.00  0.00    +0.232 A 
ATOM     15  O   UNL     1       3.402  -0.866  -0.176  0.00  0.00    -0.435 OA
ENDBRANCH   1  14
BRANCH   4  16
ATOM     16  N   UNL     1       5.776  -6.931  -0.094  0.00  0.00    -0.285 N 
ATOM     17  C   UNL     1       5.208  -8.047  -0.592  0.00  0.00    +0.222 C 
ATOM     18  O   UNL     1       4.114  -7.992  -1.111  0.00  0.00    -0.275 OA
ATOM     19  H   UNL     1       6.681  -6.960   0.252  0.00  0.00    +0.155 HD
BRANCH  17  20
ATOM     20  C   UNL     1       5.934  -9.365  -0.505  0.00  0.00    +0.138 C 
BRANCH  20  21
ATOM     21  C   UNL     1       5.091 -10.446  -1.130  0.00  0.00    -0.001 A 
ATOM     22  C   UNL     1       5.069 -10.875  -2.416  0.00  0.00    +0.011 A 
ATOM     23  C   UNL     1       4.203 -11.893  -2.768  0.00  0.00    +0.008 A 
ATOM     24  C   UNL     1       3.402 -12.433  -1.817  0.00  0.00    +0.045 A 
ATOM     25  S   UNL     1       3.867 -11.499  -0.368  0.00  0.00    -0.101 S 
ENDBRANCH  20  21
ENDBRANCH  17  20
ENDBRANCH   4  16
BRANCH   6  26
ATOM     26  O   UNL     1       5.664  -2.157  -0.410  0.00  0.00    -0.506 OA
ATOM     27  H   UNL     1       5.976  -1.754   0.412  0.00  0.00    +0.292 HD
ENDBRANCH   6  26
TORSDOF 5
