REMARK  Name = ZINC03492749
REMARK  8 active torsions:
REMARK  status: ('A' for Active; 'I' for Inactive)
REMARK    1  A    between atoms: C_1  and  C_2
REMARK    2  A    between atoms: C_2  and  C_3
REMARK    3  A    between atoms: C_3  and  C_4
REMARK    4  A    between atoms: C_4  and  N_5
REMARK    5  A    between atoms: C_15  and  S_16
REMARK    6  A    between atoms: S_16  and  C_17
REMARK    7  A    between atoms: C_17  and  C_18
REMARK    8  A    between atoms: N_23  and  C_24
REMARK                            x       y       z     vdW  Elec       q    Type
REMARK                         _______ _______ _______ _____ _____    ______ ____
ROOT
ATOM      1  C   UNL     1       4.832  -4.006   0.226  0.00  0.00    +0.231 C 
ATOM      2  O   UNL     1       3.790  -4.627   0.235  0.00  0.00    -0.274 OA
ATOM      3  N   UNL     1       4.814  -2.662   0.133  0.00  0.00    -0.239 N 
ATOM      4  C   UNL     1       3.639  -2.008   0.049  0.00  0.00    +0.310 C 
ATOM      5  O   UNL     1       2.595  -2.630   0.058  0.00  0.00    -0.252 OA
ATOM      6  N   UNL     1       3.622  -0.663  -0.045  0.00  0.00    -0.269 N 
ATOM      7  H   UNL     1       5.647  -2.166   0.125  0.00  0.00    +0.159 HD
ATOM      8  H   UNL     1       4.454  -0.172  -0.130  0.00  0.00    +0.156 HD
ENDROOT
BRANCH   6   9
ATOM      9  C   UNL     1       2.401   0.025  -0.019  0.00  0.00    +0.038 A 
ATOM     10  C   UNL     1       1.346  -0.460   0.741  0.00  0.00    +0.027 A 
ATOM     11  C   UNL     1       0.142   0.218   0.766  0.00  0.00    +0.051 A 
ATOM     12  C   UNL     1      -0.016   1.384   0.032  0.00  0.00    +0.162 A 
ATOM     13  C   UNL     1       1.040   1.873  -0.728  0.00  0.00    +0.164 A 
ATOM     14  C   UNL     1       2.247   1.192  -0.754  0.00  0.00    +0.072 A 
ATOM     15  O   UNL     1       0.906   3.021  -1.448  0.00  0.00    -0.485 OA
ATOM     16  C   UNL     1      -0.429   3.474  -1.696  0.00  0.00    +0.270 C 
ATOM     17  C   UNL     1      -1.215   3.396  -0.380  0.00  0.00    +0.270 C 
ATOM     18  O   UNL     1      -1.212   2.034   0.062  0.00  0.00    -0.485 OA
ENDBRANCH   6   9
BRANCH   1  19
ATOM     19  C   UNL     1       6.146  -4.738   0.320  0.00  0.00    +0.173 C 
BRANCH  19  20
ATOM     20  S   UNL     1       5.838  -6.518   0.433  0.00  0.00    -0.078 S 
BRANCH  20  31
ATOM     21  N   UNL     1       7.701  -8.456   0.628  0.00  0.00    -0.287 N 
ATOM     22  C   UNL     1       8.957  -8.954   0.703  0.00  0.00    +0.262 A 
ATOM     23  O   UNL     1       9.158 -10.152   0.793  0.00  0.00    -0.267 OA
ATOM     24  C   UNL     1      10.070  -7.995   0.672  0.00  0.00    +0.065 A 
ATOM     25  C   UNL     1      11.400  -8.408   0.744  0.00  0.00    +0.015 A 
ATOM     26  C   UNL     1      12.398  -7.473   0.710  0.00  0.00    +0.001 A 
ATOM     27  C   UNL     1      12.100  -6.120   0.606  0.00  0.00    +0.002 A 
ATOM     28  C   UNL     1      10.806  -5.689   0.535  0.00  0.00    +0.028 A 
ATOM     29  C   UNL     1       9.763  -6.620   0.567  0.00  0.00    +0.079 A 
ATOM     30  N   UNL     1       8.472  -6.238   0.494  0.00  0.00    -0.223 NA
ATOM     31  C   UNL     1       7.495  -7.110   0.528  0.00  0.00    +0.173 A 
BRANCH  21  32
ATOM     32  C   UNL     1       6.555  -9.367   0.654  0.00  0.00    +0.127 C 
BRANCH  32  33
ATOM     33  C   UNL     1       6.202  -9.784  -0.775  0.00  0.00    +0.021 C 
BRANCH  33  35
ATOM     34  C   UNL     1       4.651 -11.153  -2.176  0.00  0.00    +0.004 C 
ATOM     35  C   UNL     1       5.004 -10.736  -0.747  0.00  0.00    -0.002 C 
ENDBRANCH  33  35
ENDBRANCH  32  33
ENDBRANCH  21  32
ENDBRANCH  20  31
ENDBRANCH  19  20
ENDBRANCH   1  19
TORSDOF 7
