REMARK  Name = ZINC39769461
REMARK  12 active torsions:
REMARK  status: ('A' for Active; 'I' for Inactive)
REMARK    1  A    between atoms: C_1  and  C_2
REMARK    2  A    between atoms: C_2  and  N_3
REMARK    3  A    between atoms: C_4  and  N_25
REMARK    4  A    between atoms: C_5  and  C_13
REMARK    5  A    between atoms: C_6  and  C_12
REMARK    6  A    between atoms: C_7  and  C_10
REMARK    7  A    between atoms: N_17  and  C_21
REMARK    8  A    between atoms: C_21  and  C_22
REMARK    9  A    between atoms: C_29  and  C_32
REMARK   10  A    between atoms: C_32  and  O_34
REMARK   11  A    between atoms: O_34  and  C_35
REMARK   12  A    between atoms: C_35  and  C_36
REMARK                            x       y       z     vdW  Elec       q    Type
REMARK                         _______ _______ _______ _____ _____    ______ ____
ROOT
ATOM      1  N   UNL     1       1.236  -0.531  -1.312  0.00  0.00    -0.295 N 
ATOM      2  C   UNL     1       0.371  -0.706  -2.344  0.00  0.00    +0.112 A 
ATOM      3  C   UNL     1       0.740  -1.470  -3.463  0.00  0.00    +0.019 A 
ATOM      4  C   UNL     1       2.017  -2.056  -3.509  0.00  0.00    -0.017 A 
ATOM      5  C   UNL     1       2.885  -1.861  -2.438  0.00  0.00    +0.120 A 
ATOM      6  C   UNL     1       2.465  -1.076  -1.334  0.00  0.00    +0.270 A 
ATOM      7  O   UNL     1       3.223  -0.898  -0.397  0.00  0.00    -0.266 OA
ATOM      8  C   UNL     1       2.438  -2.881  -4.697  0.00  0.00    +0.046 C 
ENDROOT
BRANCH   3   9
ATOM      9  C   UNL     1      -0.198  -1.656  -4.572  0.00  0.00    +0.032 C 
ATOM     10  C   UNL     1       0.080  -1.124  -5.793  0.00  0.00    +0.077 C 
ATOM     11  C   UNL     1       1.155  -0.273  -6.191  0.00  0.00    +0.259 C 
ATOM     12  O   UNL     1       2.000   0.086  -5.390  0.00  0.00    -0.269 OA
ATOM     13  N   UNL     1       1.206   0.114  -7.454  0.00  0.00    -0.244 N 
ATOM     14  C   UNL     1       0.268  -0.284  -8.342  0.00  0.00    +0.121 C 
ATOM     15  S   UNL     1       0.140   0.092 -10.007  0.00  0.00    -0.027 S 
ATOM     16  S   UNL     1      -0.799  -1.308  -7.339  0.00  0.00    -0.061 S 
BRANCH  13  17
ATOM     17  C   UNL     1       2.295   0.988  -7.897  0.00  0.00    +0.240 C 
BRANCH  17  18
ATOM     18  C   UNL     1       3.454   0.148  -8.367  0.00  0.00    +0.373 C 
ATOM     19  O   UNL     1       3.378  -1.069  -8.334  0.00  0.00    -0.245 OA
ATOM     20  O   UNL     1       4.468   0.684  -8.779  0.00  0.00    -0.245 OA
ENDBRANCH  17  18
ENDBRANCH  13  17
ENDBRANCH   3   9
BRANCH   2  21
ATOM     21  N   UNL     1      -0.867  -0.135  -2.293  0.00  0.00    -0.315 N 
ATOM     22  C   UNL     1      -1.977  -0.814  -1.611  0.00  0.00    +0.106 C 
ATOM     23  C   UNL     1      -3.160  -0.921  -2.579  0.00  0.00    +0.020 C 
ATOM     24  C   UNL     1      -3.506   0.472  -3.111  0.00  0.00    +0.018 C 
ATOM     25  C   UNL     1      -2.308   1.042  -3.873  0.00  0.00    +0.115 C 
ATOM     26  C   UNL     1      -1.114   1.173  -2.914  0.00  0.00    +0.121 C 
BRANCH  25  27
ATOM     27  C   UNL     1      -2.661   2.399  -4.424  0.00  0.00    +0.312 C 
ATOM     28  O   UNL     1      -2.024   3.370  -4.092  0.00  0.00    -0.250 OA
BRANCH  27  29
ATOM     29  O   UNL     1      -3.683   2.528  -5.284  0.00  0.00    -0.465 OA
BRANCH  29  30
ATOM     30  C   UNL     1      -3.962   3.844  -5.767  0.00  0.00    +0.229 C 
ATOM     31  C   UNL     1      -5.151   3.793  -6.729  0.00  0.00    +0.048 C 
ENDBRANCH  29  30
ENDBRANCH  27  29
ENDBRANCH  25  27
ENDBRANCH   2  21
BRANCH   1  33
ATOM     32  C   UNL     1       1.308   1.711  -0.338  0.00  0.00    +0.027 C 
ATOM     33  C   UNL     1       0.825   0.271  -0.157  0.00  0.00    +0.123 C 
ENDBRANCH   1  33
BRANCH   5  34
ATOM     34  C   UNL     1       4.193  -2.444  -2.454  0.00  0.00    +0.105 C 
ATOM     35  N   UNL     1       5.230  -2.907  -2.467  0.00  0.00    -0.191 NA
ENDBRANCH   5  34
TORSDOF 9
