REMARK  Name = ZINC65694805
REMARK  5 active torsions:
REMARK  status: ('A' for Active; 'I' for Inactive)
REMARK    1  A    between atoms: C_1  and  C_2
REMARK    2  A    between atoms: C_9  and  C_13
REMARK    3  A    between atoms: C_13  and  N_14
REMARK    4  A    between atoms: C_17  and  C_21
REMARK    5  A    between atoms: C_17  and  C_22
REMARK                            x       y       z     vdW  Elec       q    Type
REMARK                         _______ _______ _______ _____ _____    ______ ____
ROOT
ATOM      1  N   UNL     1       1.290   0.858   4.919  0.00  0.00    -0.218 N 
ATOM      2  C   UNL     1       2.421   0.396   5.487  0.00  0.00    +0.251 C 
ATOM      3  O   UNL     1       2.596  -0.693   5.990  0.00  0.00    -0.272 OA
ATOM      4  C   UNL     1       3.430   1.520   5.365  0.00  0.00    +0.138 C 
ATOM      5  N   UNL     1       2.679   2.585   4.678  0.00  0.00    -0.281 N 
ATOM      6  C   UNL     1       1.443   2.103   4.455  0.00  0.00    +0.310 C 
ATOM      7  O   UNL     1       0.563   2.730   3.898  0.00  0.00    -0.252 OA
ATOM      8  C   UNL     1       4.629   1.079   4.524  0.00  0.00    +0.047 C 
ATOM      9  H   UNL     1       3.012   3.462   4.431  0.00  0.00    +0.152 HD
ENDROOT
BRANCH   4  10
ATOM     10  C   UNL     1       3.877   1.982   6.728  0.00  0.00    +0.020 A 
ATOM     11  C   UNL     1       3.666   3.291   7.119  0.00  0.00    +0.009 A 
ATOM     12  C   UNL     1       4.076   3.714   8.369  0.00  0.00    +0.001 A 
ATOM     13  C   UNL     1       4.699   2.829   9.230  0.00  0.00    +0.003 A 
ATOM     14  C   UNL     1       4.911   1.520   8.841  0.00  0.00    +0.039 A 
ATOM     15  C   UNL     1       4.495   1.093   7.591  0.00  0.00    +0.129 A 
ATOM     16  F   UNL     1       4.698  -0.187   7.212  0.00  0.00    -0.205 F 
ENDBRANCH   4  10
BRANCH   1  17
ATOM     17  C   UNL     1       0.047   0.089   4.816  0.00  0.00    +0.173 C 
BRANCH  17  26
ATOM     18  C   UNL     1      -0.018   1.503   0.010  0.00  0.00    +0.047 C 
ATOM     19  C   UNL     1       0.002  -0.004   0.002  0.00  0.00    -0.008 A 
ATOM     20  C   UNL     1       0.006  -0.685  -1.179  0.00  0.00    +0.008 A 
ATOM     21  C   UNL     1       0.025  -2.086  -1.169  0.00  0.00    +0.019 A 
ATOM     22  C   UNL     1       0.039  -2.757   0.005  0.00  0.00    +0.096 A 
ATOM     23  N   UNL     1       0.035  -2.087   1.190  0.00  0.00    -0.268 N 
ATOM     24  C   UNL     1       0.023  -0.720   1.213  0.00  0.00    +0.143 A 
ATOM     25  N   UNL     1       0.025  -0.056   2.368  0.00  0.00    -0.232 NA
ATOM     26  C   UNL     1       0.045  -0.693   3.528  0.00  0.00    +0.067 A 
ATOM     27  C   UNL     1       0.064  -2.074   3.559  0.00  0.00    +0.095 A 
ATOM     28  C   UNL     1       0.050  -2.779   2.349  0.00  0.00    +0.259 A 
ATOM     29  O   UNL     1       0.066  -3.999   2.343  0.00  0.00    -0.267 OA
ENDBRANCH  17  26
ENDBRANCH   1  17
TORSDOF 3
