REMARK  Name = ZINC66106437
REMARK  3 active torsions:
REMARK  status: ('A' for Active; 'I' for Inactive)
REMARK    1  A    between atoms: C_3  and  N_8
REMARK    2  A    between atoms: C_12  and  C_15
REMARK    3  A    between atoms: C_17  and  C_20
REMARK                            x       y       z     vdW  Elec       q    Type
REMARK                         _______ _______ _______ _____ _____    ______ ____
ROOT
ATOM      1  N   UNL     1       3.563   2.105  -0.021  0.00  0.00    -0.225 NA
ATOM      2  C   UNL     1       4.510   1.807   0.840  0.00  0.00    +0.174 C 
ATOM      3  N   UNL     1       4.417   0.727   1.708  0.00  0.00    -0.215 N 
ATOM      4  N   UNL     1       4.943   0.832   2.993  0.00  0.00    -0.181 NA
ATOM      5  C   UNL     1       5.654   1.769   3.482  0.00  0.00    +0.111 C 
ATOM      6  C   UNL     1       6.079   3.030   2.781  0.00  0.00    +0.138 C 
ATOM      7  S   UNL     1       6.010   2.749   0.977  0.00  0.00    -0.083 S 
ATOM      8  H   UNL     1       3.987  -0.094   1.422  0.00  0.00    +0.176 HD
ENDROOT
BRANCH   1  11
ATOM      9  C   UNL     1       0.695   0.145  -1.151  0.00  0.00    +0.003 A 
ATOM     10  C   UNL     1       1.888   0.838  -1.176  0.00  0.00    +0.028 A 
ATOM     11  C   UNL     1       2.380   1.417  -0.004  0.00  0.00    +0.068 A 
ATOM     12  C   UNL     1       1.660   1.290   1.186  0.00  0.00    +0.043 A 
ATOM     13  C   UNL     1       0.468   0.594   1.196  0.00  0.00    +0.020 A 
ATOM     14  C   UNL     1      -0.013   0.023   0.030  0.00  0.00    +0.015 A 
ATOM     15 BR   UNL     1      -0.509   0.420   2.806  0.00  0.00    -0.050 Br
ENDBRANCH   1  11
BRANCH   5  16
ATOM     16  C   UNL     1       6.103   1.602   4.869  0.00  0.00    +0.152 A 
ATOM     17  C   UNL     1       5.831   0.536   5.669  0.00  0.00    +0.064 A 
ATOM     18  C   UNL     1       6.459   0.796   6.917  0.00  0.00    +0.075 A 
ATOM     19  C   UNL     1       7.076   2.009   6.798  0.00  0.00    +0.208 A 
ATOM     20  O   UNL     1       6.859   2.477   5.563  0.00  0.00    -0.461 OA
BRANCH  18  21
ATOM     21  C   UNL     1       6.447  -0.073   8.108  0.00  0.00    +0.245 C 
ATOM     22  O   UNL     1       5.854  -1.135   8.080  0.00  0.00    -0.270 OA
ATOM     23  N   UNL     1       7.092   0.309   9.228  0.00  0.00    -0.325 N 
ATOM     24  H   UNL     1       7.564   1.156   9.250  0.00  0.00    +0.145 HD
ATOM     25  H   UNL     1       7.084  -0.263  10.011  0.00  0.00    +0.145 HD
ENDBRANCH  18  21
ENDBRANCH   5  16
TORSDOF 3
