REMARK  Name = ZINC09159558
REMARK  6 active torsions:
REMARK  status: ('A' for Active; 'I' for Inactive)
REMARK    1  A    between atoms: C_6  and  C_7
REMARK    2  A    between atoms: C_7  and  C_8
REMARK    3  A    between atoms: C_14  and  C_15
REMARK    4  A    between atoms: C_18  and  O_21
REMARK    5  A    between atoms: O_21  and  C_22
REMARK    6  A    between atoms: C_22  and  C_23
REMARK                            x       y       z     vdW  Elec       q    Type
REMARK                         _______ _______ _______ _____ _____    ______ ____
ROOT
ATOM      1  C   UNL     1      -2.339  -0.978  -1.408  0.00  0.00    +0.104 C 
ATOM      2  N   UNL     1      -1.690  -0.512  -2.437  0.00  0.00    -0.169 NA
ATOM      3  N   UNL     1      -1.982  -0.933  -3.717  0.00  0.00    -0.152 N 
ATOM      4  C   UNL     1      -1.285  -0.561  -4.887  0.00  0.00    +0.152 C 
ATOM      5  N   UNL     1      -0.054  -0.125  -4.880  0.00  0.00    -0.283 NA
ATOM      6  C   UNL     1      -2.092  -0.716  -6.130  0.00  0.00    +0.081 C 
ATOM      7  C   UNL     1      -1.940   0.131  -7.204  0.00  0.00    +0.024 C 
ATOM      8  C   UNL     1      -3.069  -1.834  -6.148  0.00  0.00    +0.273 C 
ATOM      9  O   UNL     1      -3.435  -2.331  -7.201  0.00  0.00    -0.268 OA
ATOM     10  N   UNL     1      -3.540  -2.283  -4.968  0.00  0.00    -0.152 NA
ATOM     11  C   UNL     1      -3.032  -1.816  -3.856  0.00  0.00    +0.181 C 
ATOM     12  S   UNL     1      -3.489  -2.116  -2.169  0.00  0.00    -0.038 S 
ATOM     13  H   UNL     1       0.427  -0.043  -4.042  0.00  0.00    +0.188 HD
ENDROOT
BRANCH   7  14
ATOM     14  C   UNL     1      -2.877   0.065  -8.328  0.00  0.00    -0.024 A 
ATOM     15  C   UNL     1      -4.236  -0.193  -8.097  0.00  0.00    +0.011 A 
ATOM     16  C   UNL     1      -5.105  -0.253  -9.149  0.00  0.00    +0.046 A 
ATOM     17  C   UNL     1      -4.644  -0.060 -10.448  0.00  0.00    +0.121 A 
ATOM     18  C   UNL     1      -3.298   0.197 -10.683  0.00  0.00    +0.046 A 
ATOM     19  C   UNL     1      -2.420   0.265  -9.639  0.00  0.00    +0.011 A 
BRANCH  17  20
ATOM     20  O   UNL     1      -5.513  -0.121 -11.489  0.00  0.00    -0.481 OA
BRANCH  20  21
ATOM     21  C   UNL     1      -4.974   0.087 -12.796  0.00  0.00    +0.353 C 
BRANCH  21  22
ATOM     22  C   UNL     1      -6.078  -0.018 -13.816  0.00  0.00    +0.393 C 
ATOM     23  O   UNL     1      -7.220  -0.249 -13.458  0.00  0.00    -0.243 OA
ATOM     24  O   UNL     1      -5.829   0.129 -15.001  0.00  0.00    -0.243 OA
ENDBRANCH  21  22
ENDBRANCH  20  21
ENDBRANCH  17  20
ENDBRANCH   7  14
BRANCH   1  25
ATOM     25  C   UNL     1      -2.161  -0.648   0.051  0.00  0.00    +0.099 C 
BRANCH  25  31
ATOM     26  C   UNL     1      -1.363   1.721   0.173  0.00  0.00    +0.005 A 
ATOM     27  C   UNL     1      -0.356   2.657   0.315  0.00  0.00    +0.020 A 
ATOM     28  C   UNL     1       0.953   2.244   0.487  0.00  0.00    +0.041 A 
ATOM     29  C   UNL     1       1.254   0.894   0.518  0.00  0.00    +0.020 A 
ATOM     30  C   UNL     1       0.246  -0.041   0.377  0.00  0.00    +0.005 A 
ATOM     31  C   UNL     1      -1.062   0.372   0.205  0.00  0.00    -0.041 A 
ATOM     32 CL   UNL     1       2.219   3.419   0.664  0.00  0.00    -0.084 Cl
ENDBRANCH  25  31
ENDBRANCH   1  25
TORSDOF 6
