REMARK  Name = ZINC13207351
REMARK  4 active torsions:
REMARK  status: ('A' for Active; 'I' for Inactive)
REMARK    1  A    between atoms: C_1  and  N_2
REMARK    2  A    between atoms: N_2  and  C_3
REMARK    3  A    between atoms: C_3  and  C_4
REMARK    4  A    between atoms: C_24  and  N_29
REMARK                            x       y       z     vdW  Elec       q    Type
REMARK                         _______ _______ _______ _____ _____    ______ ____
ROOT
ATOM      1  C   UNL     1      -2.502   5.941  -1.763  0.00  0.00    +0.131 C 
ATOM      2  N   UNL     1      -2.927   4.616  -1.306  0.00  0.00    -0.313 N 
ATOM      3  C   UNL     1      -3.644   3.784  -2.158  0.00  0.00    +0.141 A 
ATOM      4  C   UNL     1      -4.139   2.559  -1.683  0.00  0.00    +0.156 A 
ATOM      5  N   UNL     1      -4.819   1.760  -2.473  0.00  0.00    -0.231 NA
ATOM      6  C   UNL     1      -5.042   2.115  -3.743  0.00  0.00    +0.185 A 
ATOM      7  C   UNL     1      -4.543   3.349  -4.222  0.00  0.00    +0.149 A 
ATOM      8  N   UNL     1      -3.859   4.152  -3.408  0.00  0.00    -0.224 NA
ATOM      9  C   UNL     1      -4.796   3.696  -5.575  0.00  0.00    +0.149 A 
ATOM     10  N   UNL     1      -5.487   2.850  -6.323  0.00  0.00    -0.198 NA
ATOM     11  C   UNL     1      -5.937   1.699  -5.831  0.00  0.00    +0.216 A 
ATOM     12  N   UNL     1      -5.730   1.328  -4.582  0.00  0.00    -0.193 NA
ATOM     13  N   UNL     1      -6.653   0.858  -6.662  0.00  0.00    -0.327 N 
ATOM     14  H   UNL     1      -6.991   0.014  -6.324  0.00  0.00    +0.145 HD
ATOM     15  H   UNL     1      -6.817   1.111  -7.584  0.00  0.00    +0.145 HD
ENDROOT
BRANCH   9  16
ATOM     16  N   UNL     1      -4.334   4.886  -6.097  0.00  0.00    -0.341 N 
ATOM     17  H   UNL     1      -4.514   5.112  -7.023  0.00  0.00    +0.144 HD
ATOM     18  H   UNL     1      -3.829   5.497  -5.538  0.00  0.00    +0.144 HD
ENDBRANCH   9  16
BRANCH   2  19
ATOM     19  C   UNL     1      -2.597   4.167   0.049  0.00  0.00    +0.142 C 
BRANCH  19  20
ATOM     20  C   UNL     1      -1.267   3.458   0.033  0.00  0.00    -0.022 A 
ATOM     21  C   UNL     1      -1.239   2.110   0.019  0.00  0.00    +0.014 A 
ATOM     22  C   UNL     1      -0.017   1.398   0.010  0.00  0.00    -0.017 A 
ATOM     23  C   UNL     1       0.002  -0.004   0.002  0.00  0.00    +0.008 A 
ATOM     24  C   UNL     1       1.195  -0.665  -0.013  0.00  0.00    +0.001 A 
ATOM     25  C   UNL     1       2.398   0.032  -0.021  0.00  0.00    +0.001 A 
ATOM     26  C   UNL     1       2.413   1.398  -0.014  0.00  0.00    +0.009 A 
ATOM     27  C   UNL     1       1.208   2.103   0.002  0.00  0.00    -0.010 A 
ATOM     28  C   UNL     1       1.177   3.568   0.010  0.00  0.00    -0.010 A 
ATOM     29  C   UNL     1      -0.076   4.221   0.026  0.00  0.00    -0.013 A 
ATOM     30  C   UNL     1      -0.117   5.622   0.035  0.00  0.00    +0.009 A 
ATOM     31  C   UNL     1       1.048   6.333   0.027  0.00  0.00    +0.001 A 
ATOM     32  C   UNL     1       2.279   5.687   0.012  0.00  0.00    +0.001 A 
ATOM     33  C   UNL     1       2.351   4.323   0.004  0.00  0.00    +0.009 A 
ENDBRANCH  19  20
ENDBRANCH   2  19
TORSDOF 3
