REMARK  Name = ZINC33733081
REMARK  12 active torsions:
REMARK  status: ('A' for Active; 'I' for Inactive)
REMARK    1  A    between atoms: C_1  and  O_2
REMARK    2  A    between atoms: O_2  and  C_3
REMARK    3  A    between atoms: C_5  and  C_13
REMARK    4  A    between atoms: C_7  and  O_11
REMARK    5  A    between atoms: C_8  and  O_9
REMARK    6  A    between atoms: O_9  and  C_10
REMARK    7  A    between atoms: O_11  and  C_12
REMARK    8  A    between atoms: C_21  and  O_35
REMARK    9  A    between atoms: N_24  and  C_25
REMARK   10  A    between atoms: C_25  and  C_26
REMARK   11  A    between atoms: N_28  and  C_29
REMARK   12  A    between atoms: C_29  and  C_30
REMARK                            x       y       z     vdW  Elec       q    Type
REMARK                         _______ _______ _______ _____ _____    ______ ____
ROOT
ATOM      1  C   UNL     1      -0.249   0.820   2.403  0.00  0.00    -0.031 C 
ATOM      2  C   UNL     1      -1.068   1.107   3.663  0.00  0.00    +0.011 C 
ATOM      3  C   UNL     1      -0.561   0.248   4.822  0.00  0.00    +0.005 C 
ATOM      4  C   UNL     1      -1.397   0.542   6.071  0.00  0.00    +0.000 C 
ATOM      5  C   UNL     1      -1.274   2.023   6.435  0.00  0.00    +0.003 C 
ATOM      6  C   UNL     1      -1.770   2.883   5.269  0.00  0.00    +0.035 C 
ATOM      7  C   UNL     1      -0.925   2.587   4.029  0.00  0.00    +0.066 C 
ATOM      8  C   UNL     1      -1.405   3.441   2.854  0.00  0.00    +0.016 C 
ATOM      9  C   UNL     1      -0.583   3.089   1.611  0.00  0.00    -0.075 C 
ATOM     10  N   UNL     1      -0.738   1.662   1.303  0.00  0.00    +0.390 N 
ATOM     11  H   UNL     1      -1.813   1.464   1.184  0.00  0.00    -0.080 HD
ENDROOT
BRANCH   1  14
ATOM     12  C   UNL     1       3.212   0.748   3.920  0.00  0.00    +0.165 A 
ATOM     13  C   UNL     1       1.877   0.466   3.675  0.00  0.00    +0.051 A 
ATOM     14  C   UNL     1       1.203   1.129   2.666  0.00  0.00    -0.053 A 
ATOM     15  C   UNL     1       1.858   2.070   1.894  0.00  0.00    +0.051 A 
ATOM     16  C   UNL     1       3.192   2.361   2.136  0.00  0.00    +0.165 A 
ATOM     17  C   UNL     1       3.873   1.697   3.150  0.00  0.00    +0.204 A 
BRANCH  12  19
ATOM     18  C   UNL     1       3.132  -0.869   5.663  0.00  0.00    +0.277 C 
ATOM     19  O   UNL     1       3.874   0.095   4.912  0.00  0.00    -0.491 OA
ENDBRANCH  12  19
BRANCH  17  20
ATOM     20  O   UNL     1       5.184   1.976   3.388  0.00  0.00    -0.488 OA
ATOM     21  C   UNL     1       6.151   1.202   2.676  0.00  0.00    +0.277 C 
ENDBRANCH  17  20
BRANCH  16  22
ATOM     22  O   UNL     1       3.834   3.291   1.380  0.00  0.00    -0.491 OA
ATOM     23  C   UNL     1       3.072   3.933   0.356  0.00  0.00    +0.277 C 
ENDBRANCH  16  22
ENDBRANCH   1  14
BRANCH   7  24
ATOM     24  O   UNL     1       0.446   2.880   4.306  0.00  0.00    -0.388 OA
ATOM     25  H   UNL     1       0.744   3.900   4.589  0.00  0.00    +0.210 HD
ENDBRANCH   7  24
BRANCH  10  26
ATOM     26  C   UNL     1      -0.069   1.321   0.041  0.00  0.00    +0.019 C 
BRANCH  26  27
ATOM     27  C   UNL     1      -0.850   1.895  -1.113  0.00  0.00    +0.197 C 
ATOM     28  O   UNL     1      -1.864   2.526  -0.905  0.00  0.00    -0.278 OA
ATOM     29  N   UNL     1      -0.421   1.706  -2.377  0.00  0.00    -0.310 N 
ATOM     30  H   UNL     1       0.499   1.133  -2.566  0.00  0.00    +0.149 HD
BRANCH  29  31
ATOM     31  C   UNL     1      -1.180   2.264  -3.499  0.00  0.00    +0.178 C 
BRANCH  31  32
ATOM     32  C   UNL     1      -0.493   1.914  -4.794  0.00  0.00    +0.122 A 
ATOM     33  C   UNL     1      -0.720   0.812  -5.531  0.00  0.00    +0.046 A 
ATOM     34  C   UNL     1       0.135   0.887  -6.654  0.00  0.00    +0.041 A 
ATOM     35  C   UNL     1       0.833   2.031  -6.536  0.00  0.00    +0.195 A 
ATOM     36  O   UNL     1       0.444   2.651  -5.410  0.00  0.00    -0.466 OA
ENDBRANCH  31  32
ENDBRANCH  29  31
ENDBRANCH  26  27
ENDBRANCH  10  26
TORSDOF 9
