REMARK  Name = ZINC60742945
REMARK  6 active torsions:
REMARK  status: ('A' for Active; 'I' for Inactive)
REMARK    1  A    between atoms: C_1  and  C_2
REMARK    2  A    between atoms: C_14  and  C_16
REMARK    3  A    between atoms: C_16  and  C_17
REMARK    4  A    between atoms: C_17  and  C_18
REMARK    5  A    between atoms: N_20  and  C_21
REMARK    6  A    between atoms: C_24  and  O_27
REMARK                            x       y       z     vdW  Elec       q    Type
REMARK                         _______ _______ _______ _____ _____    ______ ____
ROOT
ATOM      1  C   UNL     1      -0.019   1.526   0.010  0.00  0.00    +0.008 C 
ATOM      2  C   UNL     1       0.002  -0.004   0.002  0.00  0.00    -0.009 C 
ATOM      3  C   UNL     1       0.736  -0.501  -1.247  0.00  0.00    +0.008 C 
ATOM      4  C   UNL     1       0.548  -2.011  -1.393  0.00  0.00    +0.037 C 
ATOM      5  C   UNL     1       0.950  -2.688  -0.085  0.00  0.00    -0.023 A 
ATOM      6  C   UNL     1       1.022  -1.976   1.064  0.00  0.00    -0.004 A 
ATOM      7  S   UNL     1       1.517  -3.146   2.304  0.00  0.00    -0.073 S 
ATOM      8  C   UNL     1       1.626  -4.581   1.284  0.00  0.00    +0.116 A 
ATOM      9  C   UNL     1       1.271  -4.101   0.003  0.00  0.00    +0.075 A 
ATOM     10  C   UNL     1       1.266  -5.054  -1.071  0.00  0.00    +0.260 A 
ATOM     11  O   UNL     1       0.975  -4.742  -2.213  0.00  0.00    -0.267 OA
ATOM     12  N   UNL     1       1.605  -6.321  -0.734  0.00  0.00    -0.310 N 
ATOM     13  H   UNL     1       1.615  -6.997  -1.430  0.00  0.00    +0.170 HD
ATOM     14  C   UNL     1       1.933  -6.688   0.528  0.00  0.00    +0.111 A 
ATOM     15  N   UNL     1       1.949  -5.845   1.538  0.00  0.00    -0.227 NA
ATOM     16  C   UNL     1       0.744  -0.516   1.245  0.00  0.00    +0.046 C 
ENDROOT
BRANCH  14  17
ATOM     17  C   UNL     1       2.294  -8.127   0.787  0.00  0.00    +0.083 C 
BRANCH  17  18
ATOM     18  C   UNL     1       2.625  -8.311   2.269  0.00  0.00    +0.103 C 
BRANCH  18  19
ATOM     19  C   UNL     1       2.987  -9.751   2.529  0.00  0.00    +0.214 C 
ATOM     20  O   UNL     1       2.980 -10.552   1.617  0.00  0.00    -0.276 OA
ATOM     21  N   UNL     1       3.317 -10.149   3.773  0.00  0.00    -0.312 N 
ATOM     22  H   UNL     1       3.323  -9.509   4.502  0.00  0.00    +0.149 HD
BRANCH  21  23
ATOM     23  C   UNL     1       3.669 -11.549   4.025  0.00  0.00    +0.073 C 
ATOM     24  C   UNL     1       2.394 -12.361   4.262  0.00  0.00    +0.025 C 
ATOM     25  C   UNL     1       2.761 -13.822   4.525  0.00  0.00    +0.033 C 
ATOM     26  C   UNL     1       3.657 -13.908   5.762  0.00  0.00    +0.115 C 
ATOM     27  C   UNL     1       4.933 -13.097   5.525  0.00  0.00    +0.033 C 
ATOM     28  C   UNL     1       4.566 -11.635   5.262  0.00  0.00    +0.025 C 
BRANCH  26  29
ATOM     29  O   UNL     1       4.000 -15.274   6.008  0.00  0.00    -0.392 OA
ATOM     30  H   UNL     1       4.569 -15.404   6.779  0.00  0.00    +0.210 HD
ENDBRANCH  26  29
ENDBRANCH  21  23
ENDBRANCH  18  19
ENDBRANCH  17  18
ENDBRANCH  14  17
TORSDOF 5
