REMARK  Name = ZINC57089052
REMARK  3 active torsions:
REMARK  status: ('A' for Active; 'I' for Inactive)
REMARK    1  A    between atoms: C_7  and  C_9
REMARK    2  A    between atoms: N_14  and  C_16
REMARK    3  A    between atoms: C_16  and  N_17
REMARK                            x       y       z     vdW  Elec       q    Type
REMARK                         _______ _______ _______ _____ _____    ______ ____
ROOT
ATOM      1  C   UNL     1       0.483  -4.368  -0.026  0.00  0.00    +0.059 C 
ATOM      2  C   UNL     1       1.256  -4.766  -1.287  0.00  0.00    +0.009 C 
ATOM      3  C   UNL     1       1.397  -6.291  -1.327  0.00  0.00    -0.018 C 
ATOM      4  C   UNL     1       0.007  -6.928  -1.273  0.00  0.00    -0.076 C 
ATOM      5  N   UNL     1      -0.670  -6.530  -0.032  0.00  0.00    +0.393 N 
ATOM      6  C   UNL     1      -0.873  -5.077  -0.019  0.00  0.00    -0.064 C 
ATOM      7  H   UNL     1      -0.103  -6.796   0.759  0.00  0.00    -0.079 HD
ENDROOT
BRANCH   1  14
ATOM      8  C   UNL     1      -0.016   1.316   0.009  0.00  0.00    +0.120 A 
ATOM      9  C   UNL     1       1.183   1.948   0.001  0.00  0.00    +0.068 A 
ATOM     10  S   UNL     1       2.296   0.552  -0.017  0.00  0.00    -0.061 S 
ATOM     11  C   UNL     1       1.137  -0.669  -0.012  0.00  0.00    +0.164 A 
ATOM     12  N   UNL     1       0.002  -0.004   0.002  0.00  0.00    -0.233 NA
ATOM     13  N   UNL     1       1.333  -2.045  -0.022  0.00  0.00    -0.265 N 
ATOM     14  C   UNL     1       0.272  -2.876  -0.016  0.00  0.00    +0.220 C 
ATOM     15  O   UNL     1      -0.854  -2.423  -0.003  0.00  0.00    -0.275 OA
ATOM     16  H   UNL     1       2.232  -2.407  -0.032  0.00  0.00    +0.157 HD
ENDBRANCH   1  14
BRANCH   5  17
ATOM     17  C   UNL     1      -1.971  -7.206   0.052  0.00  0.00    +0.072 C 
BRANCH  17  18
ATOM     18  N   UNL     1      -1.764  -8.651   0.169  0.00  0.00    -0.258 N 
ATOM     19  C   UNL     1      -1.947  -9.566  -0.805  0.00  0.00    +0.176 A 
ATOM     20  S   UNL     1      -2.365  -9.235  -2.432  0.00  0.00    -0.011 S 
ATOM     21  N   UNL     1      -1.741 -10.787  -0.273  0.00  0.00    -0.307 N 
ATOM     22  C   UNL     1      -1.300 -10.592   1.040  0.00  0.00    +0.132 A 
ATOM     23  N   UNL     1      -1.335  -9.339   1.313  0.00  0.00    -0.158 NA
ATOM     24  C   UNL     1      -0.801 -11.731   1.890  0.00  0.00    +0.076 C 
ATOM     25  C   UNL     1       0.292 -12.410   1.090  0.00  0.00    +0.008 C 
ATOM     26  C   UNL     1      -0.237 -13.619   0.273  0.00  0.00    +0.002 C 
ATOM     27  C   UNL     1      -1.708 -13.313  -0.044  0.00  0.00    +0.022 C 
ATOM     28  C   UNL     1      -1.950 -12.071  -0.821  0.00  0.00    +0.125 C 
ENDBRANCH  17  18
ENDBRANCH   5  17
TORSDOF 3
