REMARK  Name = ZINC36607984
REMARK  8 active torsions:
REMARK  status: ('A' for Active; 'I' for Inactive)
REMARK    1  A    between atoms: C_4  and  N_7
REMARK    2  A    between atoms: N_7  and  C_8
REMARK    3  A    between atoms: C_8  and  C_10
REMARK    4  A    between atoms: C_8  and  C_17
REMARK    5  A    between atoms: C_13  and  O_16
REMARK    6  A    between atoms: N_19  and  C_20
REMARK    7  A    between atoms: C_26  and  C_28
REMARK    8  A    between atoms: C_33  and  O_34
REMARK                            x       y       z     vdW  Elec       q    Type
REMARK                         _______ _______ _______ _____ _____    ______ ____
ROOT
ATOM      1  C   UNL     1       3.106  -1.458  -0.193  0.00  0.00    +0.197 C 
ENDROOT
BRANCH   1   2
ATOM      2  C   UNL     1       2.133  -1.637   0.944  0.00  0.00    -0.018 A 
ATOM      3  C   UNL     1       1.263  -0.615   1.276  0.00  0.00    +0.009 A 
ATOM      4  C   UNL     1       0.371  -0.777   2.318  0.00  0.00    +0.046 A 
ATOM      5  C   UNL     1       0.349  -1.966   3.032  0.00  0.00    +0.117 A 
ATOM      6  C   UNL     1       1.222  -2.991   2.697  0.00  0.00    +0.046 A 
ATOM      7  C   UNL     1       2.109  -2.826   1.651  0.00  0.00    +0.009 A 
BRANCH   5   8
ATOM      8  O   UNL     1      -0.528  -2.128   4.058  0.00  0.00    -0.507 OA
ATOM      9  H   UNL     1      -1.380  -2.501   3.793  0.00  0.00    +0.292 HD
ENDBRANCH   5   8
ENDBRANCH   1   2
BRANCH   1  10
ATOM     10  C   UNL     1       2.373  -0.937  -1.403  0.00  0.00    +0.239 C 
ATOM     11  O   UNL     1       2.688   0.128  -1.890  0.00  0.00    -0.273 OA
ATOM     12  N   UNL     1       1.369  -1.655  -1.943  0.00  0.00    -0.311 N 
ATOM     13  H   UNL     1       1.118  -2.507  -1.554  0.00  0.00    +0.149 HD
BRANCH  12  14
ATOM     14  C   UNL     1       0.657  -1.149  -3.119  0.00  0.00    +0.073 C 
ATOM     15  C   UNL     1      -0.457  -0.201  -2.672  0.00  0.00    +0.022 C 
ATOM     16  C   UNL     1      -1.201   0.328  -3.900  0.00  0.00    +0.002 C 
ATOM     17  C   UNL     1      -1.808  -0.845  -4.673  0.00  0.00    +0.000 C 
ATOM     18  C   UNL     1      -0.694  -1.793  -5.120  0.00  0.00    +0.002 C 
ATOM     19  C   UNL     1       0.050  -2.322  -3.892  0.00  0.00    +0.022 C 
ENDBRANCH  12  14
ENDBRANCH   1  10
BRANCH   1  20
ATOM     20  N   UNL     1       4.144  -0.502   0.199  0.00  0.00    -0.251 N 
ATOM     21  C   UNL     1       5.013  -0.036  -0.721  0.00  0.00    +0.255 C 
ATOM     22  O   UNL     1       5.962   0.639  -0.373  0.00  0.00    -0.269 OA
BRANCH  20  26
ATOM     23  C   UNL     1       4.413   0.779   4.153  0.00  0.00    +0.000 A 
ATOM     24  C   UNL     1       5.122  -0.334   3.739  0.00  0.00    +0.002 A 
ATOM     25  C   UNL     1       5.035  -0.761   2.428  0.00  0.00    +0.023 A 
ATOM     26  C   UNL     1       4.234  -0.072   1.526  0.00  0.00    +0.038 A 
ATOM     27  C   UNL     1       3.524   1.045   1.946  0.00  0.00    +0.023 A 
ATOM     28  C   UNL     1       3.615   1.467   3.258  0.00  0.00    +0.002 A 
ENDBRANCH  20  26
BRANCH  21  29
ATOM     29  C   UNL     1       4.811  -0.346  -2.149  0.00  0.00    +0.079 A 
ATOM     30  C   UNL     1       4.106  -1.491  -2.527  0.00  0.00    +0.017 A 
ATOM     31  C   UNL     1       3.921  -1.775  -3.862  0.00  0.00    +0.001 A 
ATOM     32  C   UNL     1       4.433  -0.929  -4.834  0.00  0.00    +0.004 A 
ATOM     33  C   UNL     1       5.132   0.205  -4.474  0.00  0.00    +0.046 A 
ATOM     34  C   UNL     1       5.322   0.510  -3.134  0.00  0.00    +0.129 A 
BRANCH  34  35
ATOM     35  O   UNL     1       6.004   1.628  -2.780  0.00  0.00    -0.506 OA
ATOM     36  H   UNL     1       6.956   1.494  -2.683  0.00  0.00    +0.292 HD
ENDBRANCH  34  35
ENDBRANCH  21  29
ENDBRANCH   1  20
TORSDOF 8
