REMARK  Name = ZINC05308514
REMARK  6 active torsions:
REMARK  status: ('A' for Active; 'I' for Inactive)
REMARK    1  A    between atoms: C_1  and  C_2
REMARK    2  A    between atoms: N_10  and  N_14
REMARK    3  A    between atoms: C_15  and  C_17
REMARK    4  A    between atoms: C_17  and  O_18
REMARK    5  A    between atoms: O_18  and  C_19
REMARK    6  A    between atoms: C_19  and  C_21
REMARK                            x       y       z     vdW  Elec       q    Type
REMARK                         _______ _______ _______ _____ _____    ______ ____
ROOT
ATOM      1  N   UNL     1      -1.146  -0.807   0.009  0.00  0.00    -0.221 N 
ATOM      2  C   UNL     1      -1.536  -1.435  -1.118  0.00  0.00    +0.267 C 
ATOM      3  O   UNL     1      -0.893  -1.305  -2.138  0.00  0.00    -0.271 OA
ATOM      4  H   UNL     1      -1.660  -0.911   0.825  0.00  0.00    +0.174 HD
ENDROOT
BRANCH   1  14
ATOM      5  C   UNL     1       5.008   4.205  -0.023  0.00  0.00    +0.007 C 
ATOM      6  C   UNL     1       3.533   3.799  -0.011  0.00  0.00    -0.014 C 
ATOM      7  C   UNL     1       3.220   2.976  -1.262  0.00  0.00    +0.006 C 
ATOM      8  C   UNL     1       1.741   2.581  -1.255  0.00  0.00    +0.035 C 
ATOM      9  C   UNL     1       1.435   1.768  -0.002  0.00  0.00    +0.114 C 
ATOM     10  C   UNL     1       1.765   2.567   1.254  0.00  0.00    +0.035 C 
ATOM     11  C   UNL     1       3.244   2.962   1.237  0.00  0.00    +0.006 C 
ATOM     12  C   UNL     1      -0.016   1.345   0.009  0.00  0.00    +0.263 C 
ATOM     13  O   UNL     1      -0.991   2.066   0.018  0.00  0.00    -0.271 OA
ATOM     14  N   UNL     1       0.002  -0.004   0.002  0.00  0.00    -0.137 N 
ATOM     15  C   UNL     1       1.253  -0.480  -0.013  0.00  0.00    +0.326 C 
ATOM     16  O   UNL     1       1.526  -1.665  -0.021  0.00  0.00    -0.251 OA
ATOM     17  N   UNL     1       2.176   0.501  -0.016  0.00  0.00    -0.284 N 
ATOM     18  H   UNL     1       3.140   0.392  -0.026  0.00  0.00    +0.151 HD
ENDBRANCH   1  14
BRANCH   2  19
ATOM     19  C   UNL     1      -2.771  -2.299  -1.110  0.00  0.00    +0.329 C 
BRANCH  19  20
ATOM     20  O   UNL     1      -2.978  -2.859  -2.433  0.00  0.00    -0.451 OA
BRANCH  20  21
ATOM     21  C   UNL     1      -4.049  -3.663  -2.598  0.00  0.00    +0.346 C 
ATOM     22  O   UNL     1      -4.790  -3.888  -1.660  0.00  0.00    -0.244 OA
BRANCH  21  23
ATOM     23  C   UNL     1      -4.320  -4.263  -3.905  0.00  0.00    +0.097 A 
ATOM     24  C   UNL     1      -5.349  -5.103  -4.281  0.00  0.00    +0.026 A 
ATOM     25  C   UNL     1      -5.388  -5.546  -5.603  0.00  0.00    -0.036 A 
ATOM     26  C   UNL     1      -4.395  -5.110  -6.424  0.00  0.00    -0.006 A 
ATOM     27  S   UNL     1      -3.411  -4.095  -5.430  0.00  0.00    -0.086 S 
ATOM     28  C   UNL     1      -4.540  -5.655  -7.818  0.00  0.00    +0.043 C 
ATOM     29  C   UNL     1      -5.513  -6.845  -7.673  0.00  0.00    +0.010 C 
ATOM     30  C   UNL     1      -6.317  -6.448  -6.419  0.00  0.00    +0.036 C 
ENDBRANCH  21  23
ENDBRANCH  20  21
ENDBRANCH  19  20
ENDBRANCH   2  19
TORSDOF 5
