REMARK  Name = ZINC14584502
REMARK  8 active torsions:
REMARK  status: ('A' for Active; 'I' for Inactive)
REMARK    1  A    between atoms: C_1  and  C_2
REMARK    2  A    between atoms: C_2  and  N_3
REMARK    3  A    between atoms: N_3  and  C_4
REMARK    4  A    between atoms: C_5  and  N_20
REMARK    5  A    between atoms: N_6  and  C_13
REMARK    6  A    between atoms: C_13  and  C_14
REMARK    7  A    between atoms: C_21  and  C_23
REMARK    8  A    between atoms: C_29  and  C_31
REMARK                            x       y       z     vdW  Elec       q    Type
REMARK                         _______ _______ _______ _____ _____    ______ ____
ROOT
ATOM      1  C   UNL     1      -2.342   3.276   1.205  0.00  0.00    +0.140 A 
ATOM      2  C   UNL     1      -2.544   2.736   2.458  0.00  0.00    +0.128 A 
ATOM      3  N   UNL     1      -1.516   2.061   3.073  0.00  0.00    -0.276 N 
ATOM      4  C   UNL     1      -0.326   1.928   2.459  0.00  0.00    +0.331 A 
ATOM      5  O   UNL     1       0.571   1.327   3.019  0.00  0.00    -0.246 OA
ATOM      6  N   UNL     1      -0.110   2.447   1.237  0.00  0.00    -0.273 N 
ATOM      7  H   UNL     1       0.782   2.331   0.801  0.00  0.00    +0.173 HD
ATOM      8  C   UNL     1      -1.083   3.123   0.594  0.00  0.00    +0.277 A 
ATOM      9  O   UNL     1      -0.875   3.594  -0.511  0.00  0.00    -0.266 OA
ENDROOT
BRANCH   1  10
ATOM     10  N   UNL     1      -3.377   3.974   0.548  0.00  0.00    -0.264 N 
ATOM     11  C   UNL     1      -4.372   3.293  -0.057  0.00  0.00    +0.223 C 
ATOM     12  O   UNL     1      -5.207   3.887  -0.707  0.00  0.00    -0.275 OA
BRANCH  11  13
ATOM     13  C   UNL     1      -4.447   1.794   0.075  0.00  0.00    +0.078 C 
ATOM     14  C   UNL     1      -3.777   1.141  -1.136  0.00  0.00    +0.032 C 
ATOM     15  C   UNL     1      -3.825  -0.382  -0.982  0.00  0.00    +0.108 C 
ATOM     16  N   UNL     1      -5.220  -0.793  -0.770  0.00  0.00    -0.301 N 
ATOM     17  C   UNL     1      -5.986  -0.160   0.313  0.00  0.00    +0.108 C 
ATOM     18  C   UNL     1      -5.914   1.361   0.144  0.00  0.00    +0.032 C 
ATOM     19  C   UNL     1      -5.786  -1.732  -1.554  0.00  0.00    +0.219 C 
ATOM     20  O   UNL     1      -6.938  -2.062  -1.369  0.00  0.00    -0.275 OA
BRANCH  19  21
ATOM     21  C   UNL     1      -4.987  -2.371  -2.660  0.00  0.00    +0.075 C 
ATOM     22  C   UNL     1      -5.390  -2.048  -4.100  0.00  0.00    +0.013 C 
ATOM     23  C   UNL     1      -5.687  -3.430  -3.515  0.00  0.00    +0.013 C 
ENDBRANCH  19  21
ENDBRANCH  11  13
BRANCH  10  25
ATOM     24  C   UNL     1      -2.571   5.926  -0.686  0.00  0.00    +0.025 C 
ATOM     25  C   UNL     1      -3.372   5.439   0.523  0.00  0.00    +0.110 C 
ENDBRANCH  10  25
ENDBRANCH   1  10
BRANCH   2  26
ATOM     26  N   UNL     1      -3.760   2.872   3.085  0.00  0.00    -0.343 N 
ATOM     27  H   UNL     1      -3.918   2.432   3.935  0.00  0.00    +0.144 HD
ATOM     28  H   UNL     1      -4.459   3.407   2.678  0.00  0.00    +0.144 HD
ENDBRANCH   2  26
BRANCH   3  29
ATOM     29  C   UNL     1      -1.717   1.483   4.404  0.00  0.00    +0.163 C 
BRANCH  29  30
ATOM     30  C   UNL     1      -1.344   2.498   5.454  0.00  0.00    -0.028 A 
ATOM     31  C   UNL     1      -0.048   2.553   5.933  0.00  0.00    +0.005 A 
ATOM     32  C   UNL     1       0.295   3.487   6.892  0.00  0.00    +0.000 A 
ATOM     33  C   UNL     1      -0.660   4.359   7.380  0.00  0.00    +0.000 A 
ATOM     34  C   UNL     1      -1.957   4.301   6.905  0.00  0.00    +0.000 A 
ATOM     35  C   UNL     1      -2.299   3.370   5.942  0.00  0.00    +0.005 A 
ENDBRANCH  29  30
ENDBRANCH   3  29
TORSDOF 7
