REMARK  Name = ZINC63778311
REMARK  7 active torsions:
REMARK  status: ('A' for Active; 'I' for Inactive)
REMARK    1  A    between atoms: C_1  and  C_2
REMARK    2  A    between atoms: N_4  and  C_5
REMARK    3  A    between atoms: C_5  and  C_7
REMARK    4  A    between atoms: C_5  and  C_17
REMARK    5  A    between atoms: C_7  and  C_8
REMARK    6  A    between atoms: N_19  and  C_20
REMARK    7  A    between atoms: C_24  and  C_26
REMARK                            x       y       z     vdW  Elec       q    Type
REMARK                         _______ _______ _______ _____ _____    ______ ____
ROOT
ATOM      1  C   UNL     1       1.108  -2.681   0.075  0.00  0.00    +0.238 C 
ATOM      2  O   UNL     1       1.744  -2.026   0.873  0.00  0.00    -0.273 OA
ATOM      3  N   UNL     1       1.583  -3.866  -0.355  0.00  0.00    -0.284 N 
ATOM      4  H   UNL     1       1.040  -4.425  -0.934  0.00  0.00    +0.155 HD
ENDROOT
BRANCH   3   5
ATOM      5  C   UNL     1       2.858  -4.292   0.033  0.00  0.00    +0.034 A 
ATOM      6  C   UNL     1       3.152  -5.649   0.086  0.00  0.00    +0.023 A 
ATOM      7  C   UNL     1       4.410  -6.074   0.469  0.00  0.00    +0.002 A 
ATOM      8  C   UNL     1       5.383  -5.153   0.802  0.00  0.00    +0.012 A 
ATOM      9  C   UNL     1       5.097  -3.788   0.753  0.00  0.00    +0.021 A 
ATOM     10  C   UNL     1       3.830  -3.359   0.361  0.00  0.00    +0.035 A 
BRANCH   9  11
ATOM     11  C   UNL     1       6.138  -2.799   1.109  0.00  0.00    +0.164 A 
ATOM     12  N   UNL     1       6.145  -1.520   0.797  0.00  0.00    -0.129 NA
ATOM     13  N   UNL     1       7.200  -0.961   1.278  0.00  0.00    -0.134 NA
ATOM     14  C   UNL     1       7.916  -1.841   1.920  0.00  0.00    +0.134 A 
ATOM     15  N   UNL     1       7.272  -3.035   1.830  0.00  0.00    -0.311 N 
ATOM     16  C   UNL     1       7.723  -4.312   2.383  0.00  0.00    +0.125 C 
ATOM     17  C   UNL     1       8.588  -4.053   3.620  0.00  0.00    +0.022 C 
ATOM     18  C   UNL     1      10.049  -3.892   3.202  0.00  0.00    +0.002 C 
ATOM     19  C   UNL     1      10.211  -2.698   2.267  0.00  0.00    +0.008 C 
ATOM     20  C   UNL     1       9.215  -1.604   2.647  0.00  0.00    +0.076 C 
ENDBRANCH   9  11
ENDBRANCH   3   5
BRANCH   1  21
ATOM     21  C   UNL     1      -0.214  -2.168  -0.436  0.00  0.00    +0.163 C 
BRANCH  21  25
ATOM     22  C   UNL     1      -0.286   1.273   1.238  0.00  0.00    +0.109 C 
ATOM     23  C   UNL     1      -0.207  -0.216   1.021  0.00  0.00    +0.211 C 
ATOM     24  O   UNL     1      -0.066  -0.960   1.968  0.00  0.00    -0.276 OA
ATOM     25  N   UNL     1      -0.292  -0.721  -0.226  0.00  0.00    -0.304 N 
ATOM     26  H   UNL     1      -0.404  -0.126  -0.983  0.00  0.00    +0.149 HD
ENDBRANCH  21  25
BRANCH  21  27
ATOM     27  C   UNL     1      -1.354  -2.855   0.319  0.00  0.00    +0.065 C 
BRANCH  27  28
ATOM     28  C   UNL     1      -2.674  -2.436  -0.274  0.00  0.00    -0.039 C 
ATOM     29  C   UNL     1      -3.390  -3.095  -1.214  0.00  0.00    -0.001 A 
ATOM     30  C   UNL     1      -3.161  -4.352  -1.938  0.00  0.00    +0.010 A 
ATOM     31  C   UNL     1      -4.079  -4.764  -2.841  0.00  0.00    +0.001 A 
ATOM     32  C   UNL     1      -5.239  -4.024  -3.104  0.00  0.00    +0.002 A 
ATOM     33  C   UNL     1      -5.519  -2.861  -2.479  0.00  0.00    +0.026 A 
ATOM     34  C   UNL     1      -4.624  -2.333  -1.508  0.00  0.00    +0.043 A 
ATOM     35  N   UNL     1      -4.669  -1.244  -0.779  0.00  0.00    -0.380 N 
ATOM     36  C   UNL     1      -3.471  -1.196   0.066  0.00  0.00    +0.144 C 
ATOM     37  H   UNL     1      -5.379  -0.583  -0.794  0.00  0.00    +0.160 HD
ENDBRANCH  27  28
ENDBRANCH  21  27
ENDBRANCH   1  21
TORSDOF 6
