REMARK  Name = ZINC64557709
REMARK  5 active torsions:
REMARK  status: ('A' for Active; 'I' for Inactive)
REMARK    1  A    between atoms: C_1  and  C_2
REMARK    2  A    between atoms: C_5  and  C_8
REMARK    3  A    between atoms: C_9  and  O_27
REMARK    4  A    between atoms: N_12  and  C_22
REMARK    5  A    between atoms: C_13  and  C_15
REMARK                            x       y       z     vdW  Elec       q    Type
REMARK                         _______ _______ _______ _____ _____    ______ ____
ROOT
ATOM      1  C   UNL     1       0.058  -4.245  -0.021  0.00  0.00    +0.031 C 
ATOM      2  C   UNL     1       1.051  -5.037  -0.483  0.00  0.00    +0.185 C 
ATOM      3  C   UNL     1       0.676  -6.442  -0.308  0.00  0.00    +0.285 C 
ATOM      4  O   UNL     1       1.366  -7.392  -0.628  0.00  0.00    -0.267 OA
ATOM      5  N   UNL     1      -0.540  -6.530   0.260  0.00  0.00    -0.241 N 
ATOM      6  C   UNL     1      -1.026  -5.164   0.492  0.00  0.00    +0.148 C 
ENDROOT
BRANCH   1  11
ATOM      7  C   UNL     1      -0.018   1.503   0.010  0.00  0.00    +0.044 C 
ATOM      8  C   UNL     1       0.002  -0.004   0.002  0.00  0.00    -0.050 A 
ATOM      9  C   UNL     1       0.006  -0.686  -1.202  0.00  0.00    +0.004 A 
ATOM     10  C   UNL     1       0.024  -2.064  -1.218  0.00  0.00    +0.008 A 
ATOM     11  C   UNL     1       0.039  -2.774  -0.013  0.00  0.00    -0.016 A 
ATOM     12  C   UNL     1       0.036  -2.078   1.200  0.00  0.00    +0.008 A 
ATOM     13  C   UNL     1       0.023  -0.699   1.199  0.00  0.00    +0.004 A 
ENDBRANCH   1  11
BRANCH   6  14
ATOM     14  C   UNL     1      -2.306  -4.935  -0.271  0.00  0.00    +0.013 A 
ATOM     15  C   UNL     1      -2.668  -5.797  -1.289  0.00  0.00    +0.008 A 
ATOM     16  C   UNL     1      -3.841  -5.587  -1.989  0.00  0.00    +0.001 A 
ATOM     17  C   UNL     1      -4.654  -4.514  -1.672  0.00  0.00    +0.003 A 
ATOM     18  C   UNL     1      -4.294  -3.651  -0.654  0.00  0.00    +0.039 A 
ATOM     19  C   UNL     1      -3.121  -3.864   0.051  0.00  0.00    +0.129 A 
ATOM     20  F   UNL     1      -2.771  -3.023   1.049  0.00  0.00    -0.205 F 
ENDBRANCH   6  14
BRANCH   5  21
ATOM     21  C   UNL     1      -1.251  -7.768   0.591  0.00  0.00    +0.362 C 
ATOM     22  N   UNL     1      -1.100  -8.084   2.022  0.00  0.00    -0.117 NA
ATOM     23  N   UNL     1      -0.520  -9.177   2.074  0.00  0.00    -0.024 NA
ATOM     24  N   UNL     1      -0.239  -9.678   0.805  0.00  0.00    -0.024 NA
ATOM     25  N   UNL     1      -0.633  -8.918  -0.090  0.00  0.00    -0.117 NA
ENDBRANCH   5  21
BRANCH   2  26
ATOM     26  O   UNL     1       2.216  -4.597  -1.028  0.00  0.00    -0.502 OA
ATOM     27  H   UNL     1       2.813  -5.305  -1.305  0.00  0.00    +0.292 HD
ENDBRANCH   2  26
TORSDOF 4
