REMARK  Name = ZINC64648639
REMARK  11 active torsions:
REMARK  status: ('A' for Active; 'I' for Inactive)
REMARK    1  A    between atoms: C_1  and  C_2
REMARK    2  A    between atoms: C_2  and  N_3
REMARK    3  A    between atoms: C_4  and  C_37
REMARK    4  A    between atoms: C_6  and  C_10
REMARK    5  A    between atoms: C_7  and  C_9
REMARK    6  A    between atoms: C_10  and  C_11
REMARK    7  A    between atoms: C_11  and  N_12
REMARK    8  A    between atoms: C_13  and  C_15
REMARK    9  A    between atoms: C_15  and  C_17
REMARK   10  A    between atoms: C_15  and  C_18
REMARK   11  A    between atoms: C_24  and  C_26
REMARK                            x       y       z     vdW  Elec       q    Type
REMARK                         _______ _______ _______ _____ _____    ______ ____
ROOT
ATOM      1  C   UNL     1       4.177  -8.051   5.489  0.00  0.00    +0.004 C 
ATOM      2  C   UNL     1       4.747  -9.471   5.538  0.00  0.00    +0.023 C 
ATOM      3  C   UNL     1       4.869  -9.917   6.998  0.00  0.00    +0.108 C 
ATOM      4  N   UNL     1       3.561  -9.769   7.650  0.00  0.00    -0.300 N 
ATOM      5  C   UNL     1       2.882  -8.467   7.584  0.00  0.00    +0.108 C 
ATOM      6  C   UNL     1       2.782  -8.037   6.117  0.00  0.00    +0.023 C 
ATOM      7  C   UNL     1       2.993 -10.807   8.295  0.00  0.00    +0.242 C 
ATOM      8  O   UNL     1       3.563 -11.877   8.342  0.00  0.00    -0.273 OA
ENDROOT
BRANCH   7   9
ATOM      9  C   UNL     1       1.650 -10.639   8.958  0.00  0.00    +0.190 C 
ATOM     10  C   UNL     1       1.738  -9.604  10.057  0.00  0.00    +0.016 C 
ATOM     11  C   UNL     1       1.412 -10.244  11.203  0.00  0.00    -0.002 A 
ATOM     12  C   UNL     1       1.313  -9.798  12.598  0.00  0.00    +0.029 A 
ATOM     13  C   UNL     1       0.955 -10.692  13.549  0.00  0.00    +0.042 A 
ATOM     14  C   UNL     1       0.678 -12.031  13.235  0.00  0.00    +0.022 A 
ATOM     15  C   UNL     1       0.748 -12.514  11.977  0.00  0.00    +0.027 A 
ATOM     16  C   UNL     1       1.115 -11.662  10.899  0.00  0.00    +0.043 A 
ATOM     17  N   UNL     1       1.250 -11.890   9.613  0.00  0.00    -0.370 N 
ATOM     18 CL   UNL     1       0.837 -10.168  15.200  0.00  0.00    -0.084 Cl
ATOM     19  H   UNL     1       1.109 -12.741   9.170  0.00  0.00    +0.161 HD
ENDBRANCH   7   9
BRANCH   1  20
ATOM     20  C   UNL     1       4.085  -7.589   4.033  0.00  0.00    +0.075 C 
ATOM     21  C   UNL     1       5.480  -7.603   3.405  0.00  0.00    +0.017 C 
BRANCH  20  23
ATOM     22  N   UNL     1       3.355  -5.574   2.798  0.00  0.00    -0.315 N 
ATOM     23  C   UNL     1       3.526  -6.191   3.985  0.00  0.00    +0.216 C 
ATOM     24  O   UNL     1       3.231  -5.620   5.013  0.00  0.00    -0.276 OA
ATOM     25  H   UNL     1       3.592  -6.031   1.976  0.00  0.00    +0.149 HD
BRANCH  22  26
ATOM     26  C   UNL     1       2.812  -4.214   2.751  0.00  0.00    +0.108 C 
BRANCH  26  27
ATOM     27  C   UNL     1       2.720  -3.752   1.295  0.00  0.00    +0.052 C 
BRANCH  27  30
ATOM     28  N   UNL     1       0.713  -0.491   1.192  0.00  0.00    -0.223 NA
ATOM     29  C   UNL     1       0.698  -1.966   1.251  0.00  0.00    +0.100 C 
ATOM     30  C   UNL     1       2.161  -2.354   1.247  0.00  0.00    -0.032 C 
ATOM     31  C   UNL     1       2.852  -1.233   1.193  0.00  0.00    +0.017 C 
ATOM     32  N   UNL     1       2.028  -0.125   1.160  0.00  0.00    -0.282 N 
ATOM     33  C   UNL     1       4.357  -1.168   1.171  0.00  0.00    +0.062 C 
ATOM     34  C   UNL     1       0.018  -2.444   2.535  0.00  0.00    +0.030 C 
ATOM     35  H   UNL     1       2.342   0.791   1.119  0.00  0.00    +0.166 HD
BRANCH  28  37
ATOM     36  C   UNL     1      -0.019   1.526   0.010  0.00  0.00    +0.022 C 
ATOM     37  C   UNL     1       0.002  -0.004   0.002  0.00  0.00    +0.103 C 
ENDBRANCH  28  37
ENDBRANCH  27  30
ENDBRANCH  26  27
ENDBRANCH  22  26
ENDBRANCH  20  23
ENDBRANCH   1  20
TORSDOF 7
