REMARK  Name = ZINC50604028
REMARK  5 active torsions:
REMARK  status: ('A' for Active; 'I' for Inactive)
REMARK    1  A    between atoms: C_1  and  C_2
REMARK    2  A    between atoms: N_6  and  C_8
REMARK    3  A    between atoms: C_8  and  C_9
REMARK    4  A    between atoms: C_15  and  C_17
REMARK    5  A    between atoms: C_18  and  C_19
REMARK                            x       y       z     vdW  Elec       q    Type
REMARK                         _______ _______ _______ _____ _____    ______ ____
ROOT
ATOM      1  C   UNL     1       1.315  -3.966   2.521  0.00  0.00    +0.034 A 
ATOM      2  C   UNL     1       2.327  -4.755   2.084  0.00  0.00    +0.070 A 
ATOM      3  S   UNL     1       1.648  -6.375   2.401  0.00  0.00    -0.060 S 
ATOM      4  C   UNL     1       0.172  -5.886   3.046  0.00  0.00    +0.165 A 
ATOM      5  N   UNL     1       0.247  -4.573   3.005  0.00  0.00    -0.231 NA
ATOM      6  N   UNL     1      -0.870  -6.677   3.514  0.00  0.00    -0.261 N 
ATOM      7  C   UNL     1      -0.763  -8.020   3.481  0.00  0.00    +0.243 C 
ATOM      8  O   UNL     1       0.246  -8.540   3.042  0.00  0.00    -0.270 OA
ATOM      9  H   UNL     1      -1.674  -6.262   3.864  0.00  0.00    +0.157 HD
ENDROOT
BRANCH   7  10
ATOM     10  C   UNL     1      -1.826  -8.826   3.958  0.00  0.00    +0.070 C 
ATOM     11  C   UNL     1      -1.719 -10.174   3.925  0.00  0.00    +0.033 C 
BRANCH  11  12
ATOM     12  C   UNL     1      -2.820 -11.009   4.419  0.00  0.00    +0.071 A 
ATOM     13  C   UNL     1      -2.756 -12.390   4.412  0.00  0.00    +0.074 A 
ATOM     14  S   UNL     1      -4.241 -12.822   5.068  0.00  0.00    -0.083 S 
ATOM     15  C   UNL     1      -4.882 -11.293   5.326  0.00  0.00    +0.156 A 
ATOM     16  N   UNL     1      -3.947 -10.483   4.911  0.00  0.00    -0.248 NA
ENDBRANCH  11  12
ENDBRANCH   7  10
BRANCH   1  17
ATOM     17  C   UNL     1       1.408  -2.463   2.464  0.00  0.00    -0.022 C 
BRANCH  17  23
ATOM     18  C   UNL     1      -0.019   1.526   0.010  0.00  0.00    +0.005 C 
ATOM     19  C   UNL     1       0.002  -0.004   0.002  0.00  0.00    -0.031 C 
ATOM     20  C   UNL     1       0.724  -0.499  -1.255  0.00  0.00    -0.001 C 
ATOM     21  C   UNL     1       0.808  -2.027  -1.215  0.00  0.00    -0.018 C 
ATOM     22  C   UNL     1       1.518  -2.460   0.070  0.00  0.00    -0.078 C 
ATOM     23  N   UNL     1       0.765  -1.980   1.235  0.00  0.00    +0.384 N 
ATOM     24  C   UNL     1       0.742  -0.512   1.241  0.00  0.00    -0.075 C 
ATOM     25  H   UNL     1      -0.180  -2.330   1.191  0.00  0.00    -0.081 HD
ENDBRANCH  17  23
ENDBRANCH   1  17
TORSDOF 4
