REMARK  Name = ZINC43981693
REMARK  9 active torsions:
REMARK  status: ('A' for Active; 'I' for Inactive)
REMARK    1  A    between atoms: C_1  and  C_2
REMARK    2  A    between atoms: C_2  and  C_4
REMARK    3  A    between atoms: C_2  and  C_10
REMARK    4  A    between atoms: C_4  and  C_5
REMARK    5  A    between atoms: C_5  and  C_6
REMARK    6  A    between atoms: N_8  and  N_9
REMARK    7  A    between atoms: C_16  and  C_35
REMARK    8  A    between atoms: C_27  and  C_34
REMARK    9  A    between atoms: C_30  and  O_33
REMARK                            x       y       z     vdW  Elec       q    Type
REMARK                         _______ _______ _______ _____ _____    ______ ____
ROOT
ATOM      1  C   UNL     1       0.678  -0.576   1.290  0.00  0.00    -0.002 C 
ATOM      2  C   UNL     1       0.602  -2.113   1.220  0.00  0.00    +0.004 C 
ATOM      3  C   UNL     1      -0.302  -2.564   2.390  0.00  0.00    +0.004 C 
ATOM      4  C   UNL     1      -1.151  -1.316   2.690  0.00  0.00    -0.001 C 
ATOM      5  C   UNL     1      -0.152  -0.154   2.532  0.00  0.00    -0.026 C 
ATOM      6  C   UNL     1       0.819  -0.113   3.715  0.00  0.00    +0.007 C 
ATOM      7  C   UNL     1       0.058  -0.057   5.037  0.00  0.00    +0.005 C 
ATOM      8  C   UNL     1      -0.774  -1.336   5.176  0.00  0.00    -0.001 C 
ATOM      9  C   UNL     1      -1.792  -1.363   4.055  0.00  0.00    -0.004 C 
ATOM     10  C   UNL     1      -2.648  -2.623   4.201  0.00  0.00    +0.004 C 
ATOM     11  C   UNL     1      -3.353  -2.607   5.559  0.00  0.00    +0.004 C 
ATOM     12  C   UNL     1      -2.309  -2.566   6.676  0.00  0.00    -0.002 C 
ATOM     13  C   UNL     1      -1.479  -1.334   6.535  0.00  0.00    -0.026 C 
ATOM     14  C   UNL     1      -0.433  -1.312   7.651  0.00  0.00    +0.010 C 
ATOM     15  C   UNL     1       0.458  -2.550   7.541  0.00  0.00    +0.032 C 
ATOM     16  C   UNL     1      -0.401  -3.809   7.672  0.00  0.00    +0.115 C 
ATOM     17  C   UNL     1      -1.412  -3.802   6.582  0.00  0.00    +0.035 C 
ATOM     18  C   UNL     1      -2.370  -0.095   6.645  0.00  0.00    +0.012 C 
ATOM     19  C   UNL     1      -0.861   1.185   2.320  0.00  0.00    +0.012 C 
ENDROOT
BRANCH   1  21
ATOM     20  C   UNL     1       0.989  -0.259  -1.168  0.00  0.00    +0.008 C 
ATOM     21  C   UNL     1       0.078   0.038   0.024  0.00  0.00    -0.010 C 
BRANCH  21  22
ATOM     22  C   UNL     1      -1.306  -0.565  -0.229  0.00  0.00    +0.013 C 
BRANCH  22  23
ATOM     23  C   UNL     1      -1.925   0.082  -1.470  0.00  0.00    +0.097 C 
BRANCH  23  24
ATOM     24  C   UNL     1      -3.287  -0.512  -1.719  0.00  0.00    +0.226 C 
ATOM     25  O   UNL     1      -3.720  -1.368  -0.977  0.00  0.00    -0.275 OA
ATOM     26  N   UNL     1      -4.024  -0.091  -2.766  0.00  0.00    -0.254 N 
ATOM     27  H   UNL     1      -3.677   0.593  -3.360  0.00  0.00    +0.169 HD
BRANCH  26  28
ATOM     28  N   UNL     1      -5.259  -0.630  -2.992  0.00  0.00    -0.254 NA
ATOM     29  H   UNL     1      -5.689  -0.219  -3.807  0.00  0.00    +0.140 HD
ATOM     30  H   UNL     1      -5.205  -1.633  -3.079  0.00  0.00    +0.140 HD
ENDBRANCH  26  28
ENDBRANCH  23  24
ENDBRANCH  22  23
ENDBRANCH  21  22
ENDBRANCH   1  21
BRANCH  16  31
ATOM     31  O   UNL     1      -1.060  -3.807   8.940  0.00  0.00    -0.392 OA
ATOM     32  H   UNL     1      -0.457  -3.793   9.696  0.00  0.00    +0.210 HD
ENDBRANCH  16  31
TORSDOF 6
