REMARK  Name = ZINC64076302
REMARK  11 active torsions:
REMARK  status: ('A' for Active; 'I' for Inactive)
REMARK    1  A    between atoms: C_1  and  C_2
REMARK    2  A    between atoms: C_2  and  O_3
REMARK    3  A    between atoms: O_3  and  C_4
REMARK    4  A    between atoms: C_4  and  C_6
REMARK    5  A    between atoms: C_6  and  C_8
REMARK    6  A    between atoms: C_6  and  N_18
REMARK    7  A    between atoms: C_8  and  C_9
REMARK    8  A    between atoms: C_19  and  C_21
REMARK    9  A    between atoms: C_21  and  C_23
REMARK   10  A    between atoms: C_21  and  N_30
REMARK   11  A    between atoms: C_23  and  C_24
REMARK                            x       y       z     vdW  Elec       q    Type
REMARK                         _______ _______ _______ _____ _____    ______ ____
ROOT
ATOM      1  N   UNL     1       1.497  -3.844   2.426  0.00  0.00    -0.301 N 
ATOM      2  C   UNL     1       2.438  -4.495   1.714  0.00  0.00    +0.235 C 
ATOM      3  O   UNL     1       3.300  -3.869   1.134  0.00  0.00    -0.274 OA
ATOM      4  H   UNL     1       0.807  -4.344   2.890  0.00  0.00    +0.150 HD
ENDROOT
BRANCH   1   5
ATOM      5  C   UNL     1       1.516  -2.381   2.500  0.00  0.00    +0.186 C 
BRANCH   5   6
ATOM      6  C   UNL     1       0.801  -1.808   1.304  0.00  0.00    +0.328 C 
ATOM      7  O   UNL     1       0.324  -2.546   0.475  0.00  0.00    -0.249 OA
BRANCH   6   8
ATOM      8  O   UNL     1       0.693  -0.477   1.160  0.00  0.00    -0.464 OA
BRANCH   8  10
ATOM      9  C   UNL     1      -0.019   1.526   0.010  0.00  0.00    +0.048 C 
ATOM     10  C   UNL     1       0.002  -0.004   0.002  0.00  0.00    +0.229 C 
ENDBRANCH   8  10
ENDBRANCH   6   8
ENDBRANCH   5   6
BRANCH   5  11
ATOM     11  C   UNL     1       0.814  -1.926   3.781  0.00  0.00    +0.067 C 
BRANCH  11  12
ATOM     12  C   UNL     1       1.598  -2.396   4.978  0.00  0.00    -0.039 C 
ATOM     13  C   UNL     1       2.523  -1.693   5.672  0.00  0.00    -0.001 A 
ATOM     14  C   UNL     1       3.055  -0.333   5.524  0.00  0.00    +0.010 A 
ATOM     15  C   UNL     1       3.997   0.101   6.391  0.00  0.00    +0.001 A 
ATOM     16  C   UNL     1       4.478  -0.714   7.426  0.00  0.00    +0.002 A 
ATOM     17  C   UNL     1       4.038  -1.974   7.625  0.00  0.00    +0.026 A 
ATOM     18  C   UNL     1       3.046  -2.533   6.772  0.00  0.00    +0.043 A 
ATOM     19  N   UNL     1       2.468  -3.709   6.760  0.00  0.00    -0.380 N 
ATOM     20  C   UNL     1       1.507  -3.747   5.652  0.00  0.00    +0.144 C 
ATOM     21  H   UNL     1       2.644  -4.433   7.381  0.00  0.00    +0.160 HD
ENDBRANCH  11  12
ENDBRANCH   5  11
ENDBRANCH   1   5
BRANCH   2  22
ATOM     22  C   UNL     1       2.418  -6.000   1.637  0.00  0.00    +0.175 C 
BRANCH  22  23
ATOM     23  N   UNL     1       3.742  -6.486   1.242  0.00  0.00    -0.222 N 
ATOM     24  C   UNL     1       4.360  -6.161   0.092  0.00  0.00    +0.255 C 
ATOM     25  O   UNL     1       3.915  -5.431  -0.770  0.00  0.00    -0.270 OA
ATOM     26  C   UNL     1       5.671  -6.843   0.053  0.00  0.00    +0.049 A 
ATOM     27  C   UNL     1       6.715  -6.883  -0.858  0.00  0.00    +0.014 A 
ATOM     28  C   UNL     1       7.839  -7.645  -0.582  0.00  0.00    +0.001 A 
ATOM     29  C   UNL     1       7.927  -8.364   0.596  0.00  0.00    +0.001 A 
ATOM     30  C   UNL     1       6.891  -8.333   1.517  0.00  0.00    +0.014 A 
ATOM     31  C   UNL     1       5.761  -7.576   1.254  0.00  0.00    +0.049 A 
ATOM     32  C   UNL     1       4.503  -7.311   1.984  0.00  0.00    +0.255 C 
ATOM     33  O   UNL     1       4.205  -7.764   3.071  0.00  0.00    -0.270 OA
ENDBRANCH  22  23
BRANCH  22  34
ATOM     34  C   UNL     1       1.382  -6.444   0.603  0.00  0.00    +0.067 C 
BRANCH  34  35
ATOM     35  C   UNL     1       1.274  -7.947   0.615  0.00  0.00    -0.045 A 
ATOM     36  C   UNL     1       2.087  -8.705  -0.208  0.00  0.00    +0.004 A 
ATOM     37  C   UNL     1       1.989 -10.084  -0.198  0.00  0.00    +0.000 A 
ATOM     38  C   UNL     1       1.077 -10.705   0.635  0.00  0.00    +0.000 A 
ATOM     39  C   UNL     1       0.265  -9.948   1.458  0.00  0.00    +0.000 A 
ATOM     40  C   UNL     1       0.366  -8.569   1.451  0.00  0.00    +0.004 A 
ENDBRANCH  34  35
ENDBRANCH  22  34
ENDBRANCH   2  22
TORSDOF 10
