REMARK  Name = ZINC50677389
REMARK  6 active torsions:
REMARK  status: ('A' for Active; 'I' for Inactive)
REMARK    1  A    between atoms: C_1  and  C_2
REMARK    2  A    between atoms: C_3  and  C_20
REMARK    3  A    between atoms: N_7  and  S_8
REMARK    4  A    between atoms: S_8  and  C_11
REMARK    5  A    between atoms: C_16  and  N_17
REMARK    6  A    between atoms: N_17  and  C_18
REMARK                            x       y       z     vdW  Elec       q    Type
REMARK                         _______ _______ _______ _____ _____    ______ ____
ROOT
ATOM      1  S   UNL     1       3.739  -2.321  -0.031  0.00  0.00    +0.104 S 
ATOM      2  O   UNL     1       3.925  -1.656  -1.273  0.00  0.00    -0.146 OA
ATOM      3  O   UNL     1       3.938  -1.671   1.218  0.00  0.00    -0.146 OA
ENDROOT
BRANCH   1  10
ATOM      4  C   UNL     1      -0.018   1.503   0.010  0.00  0.00    +0.064 C 
ATOM      5  C   UNL     1       0.002  -0.004   0.002  0.00  0.00    +0.025 A 
ATOM      6  C   UNL     1      -1.144  -0.684   0.004  0.00  0.00    +0.009 A 
ATOM      7  S   UNL     1      -0.577  -2.377  -0.009  0.00  0.00    -0.053 S 
ATOM      8  C   UNL     1       1.179  -2.046  -0.016  0.00  0.00    +0.192 A 
ATOM      9  N   UNL     1       1.194  -0.668  -0.013  0.00  0.00    -0.336 N 
ATOM     10  N   UNL     1       2.183  -2.888  -0.026  0.00  0.00    -0.103 NA
ATOM     11  C   UNL     1      -2.557  -0.159   0.016  0.00  0.00    +0.053 C 
ATOM     12  H   UNL     1       2.033  -0.181  -0.019  0.00  0.00    +0.168 HD
ENDBRANCH   1  10
BRANCH   1  13
ATOM     13  C   UNL     1       4.804  -3.724  -0.045  0.00  0.00    +0.153 A 
ATOM     14  C   UNL     1       5.628  -3.967  -1.129  0.00  0.00    +0.049 A 
ATOM     15  C   UNL     1       6.452  -5.085  -1.097  0.00  0.00    +0.038 A 
ATOM     16  C   UNL     1       6.425  -5.914   0.007  0.00  0.00    +0.128 A 
ATOM     17  N   UNL     1       5.628  -5.657   1.027  0.00  0.00    -0.237 NA
ATOM     18  C   UNL     1       4.833  -4.598   1.037  0.00  0.00    +0.146 A 
ATOM     19 BR   UNL     1       7.599  -5.468  -2.551  0.00  0.00    -0.049 Br
BRANCH  18  20
ATOM     20  N   UNL     1       4.014  -4.361   2.135  0.00  0.00    -0.331 N 
ATOM     21  C   UNL     1       4.038  -5.278   3.278  0.00  0.00    +0.127 C 
ATOM     22  H   UNL     1       3.427  -3.589   2.145  0.00  0.00    +0.147 HD
ENDBRANCH  18  20
ENDBRANCH   1  13
TORSDOF 3
