REMARK  Name = ZINC39636075
REMARK  7 active torsions:
REMARK  status: ('A' for Active; 'I' for Inactive)
REMARK    1  A    between atoms: C_1  and  C_2
REMARK    2  A    between atoms: C_8  and  N_10
REMARK    3  A    between atoms: C_11  and  C_13
REMARK    4  A    between atoms: C_24  and  C_26
REMARK    5  A    between atoms: C_32  and  O_34
REMARK    6  A    between atoms: O_34  and  C_35
REMARK    7  A    between atoms: C_35  and  C_36
REMARK                            x       y       z     vdW  Elec       q    Type
REMARK                         _______ _______ _______ _____ _____    ______ ____
ROOT
ATOM      1  C   UNL     1       0.033   0.579   4.842  0.00  0.00    +0.100 C 
ATOM      2  C   UNL     1      -0.380   2.060   4.681  0.00  0.00    +0.121 C 
ATOM      3  N   UNL     1      -0.172   2.654   6.023  0.00  0.00    -0.300 N 
ATOM      4  C   UNL     1       1.081   2.031   6.512  0.00  0.00    +0.115 C 
ATOM      5  C   UNL     1       0.992   0.565   6.044  0.00  0.00    -0.004 C 
ATOM      6  C   UNL     1       0.428  -0.312   7.159  0.00  0.00    -0.010 C 
ATOM      7  C   UNL     1       1.425  -0.356   8.320  0.00  0.00    -0.082 C 
ATOM      8  N   UNL     1       2.706  -0.894   7.847  0.00  0.00    +0.379 N 
ATOM      9  C   UNL     1       3.286   0.003   6.841  0.00  0.00    -0.082 C 
ATOM     10  C   UNL     1       2.368   0.063   5.617  0.00  0.00    -0.010 C 
ATOM     11  C   UNL     1      -0.947   3.557   6.655  0.00  0.00    +0.219 C 
ATOM     12  O   UNL     1      -0.640   3.951   7.760  0.00  0.00    -0.275 OA
ATOM     13  H   UNL     1       3.342  -0.980   8.626  0.00  0.00    -0.086 HD
ATOM     14  H   UNL     1       2.556  -1.804   7.438  0.00  0.00    -0.086 HD
ENDROOT
BRANCH  11  15
ATOM     15  C   UNL     1      -2.194   4.078   5.989  0.00  0.00    +0.078 C 
ATOM     16  C   UNL     1      -1.821   4.765   4.673  0.00  0.00    +0.032 C 
ATOM     17  C   UNL     1      -3.094   5.263   3.982  0.00  0.00    +0.112 C 
ATOM     18  N   UNL     1      -3.838   6.115   4.919  0.00  0.00    -0.267 N 
ATOM     19  C   UNL     1      -4.170   5.583   6.247  0.00  0.00    +0.112 C 
ATOM     20  C   UNL     1      -2.885   5.083   6.913  0.00  0.00    +0.032 C 
ATOM     21  C   UNL     1      -4.209   7.362   4.566  0.00  0.00    +0.403 C 
ATOM     22  O   UNL     1      -3.928   7.791   3.464  0.00  0.00    -0.226 OA
BRANCH  21  23
ATOM     23  O   UNL     1      -4.891   8.133   5.434  0.00  0.00    -0.445 OA
BRANCH  23  24
ATOM     24  C   UNL     1      -5.252   9.444   4.994  0.00  0.00    +0.269 C 
BRANCH  24  25
ATOM     25  C   UNL     1      -6.003  10.153   6.090  0.00  0.00    -0.010 A 
ATOM     26  C   UNL     1      -7.379  10.045   6.167  0.00  0.00    +0.007 A 
ATOM     27  C   UNL     1      -8.069  10.696   7.173  0.00  0.00    +0.000 A 
ATOM     28  C   UNL     1      -7.382  11.454   8.103  0.00  0.00    +0.000 A 
ATOM     29  C   UNL     1      -6.006  11.561   8.027  0.00  0.00    +0.000 A 
ATOM     30  C   UNL     1      -5.316  10.907   7.023  0.00  0.00    +0.007 A 
ENDBRANCH  24  25
ENDBRANCH  23  24
ENDBRANCH  21  23
ENDBRANCH  11  15
BRANCH   1  32
ATOM     31  N   UNL     1       0.674  -1.208   3.257  0.00  0.00    -0.312 N 
ATOM     32  C   UNL     1       0.738   0.093   3.602  0.00  0.00    +0.218 C 
ATOM     33  O   UNL     1       1.363   0.873   2.915  0.00  0.00    -0.275 OA
ATOM     34  H   UNL     1       0.174  -1.832   3.807  0.00  0.00    +0.149 HD
BRANCH  31  41
ATOM     35  C   UNL     1      -0.787  -2.636   1.204  0.00  0.00    +0.009 C 
ATOM     36  C   UNL     1       0.673  -2.947   1.538  0.00  0.00    +0.006 C 
ATOM     37  C   UNL     1       1.389  -3.441   0.279  0.00  0.00    +0.005 C 
ATOM     38  C   UNL     1       2.850  -3.752   0.612  0.00  0.00    +0.000 C 
ATOM     39  C   UNL     1       3.537  -2.485   1.126  0.00  0.00    +0.002 C 
ATOM     40  C   UNL     1       2.821  -1.992   2.385  0.00  0.00    +0.022 C 
ATOM     41  C   UNL     1       1.360  -1.681   2.052  0.00  0.00    +0.076 C 
ENDBRANCH  31  41
ENDBRANCH   1  32
TORSDOF 6
