REMARK  Name = ZINC62607952
REMARK  8 active torsions:
REMARK  status: ('A' for Active; 'I' for Inactive)
REMARK    1  A    between atoms: C_1  and  C_2
REMARK    2  A    between atoms: C_3  and  S_9
REMARK    3  A    between atoms: C_4  and  C_8
REMARK    4  A    between atoms: S_9  and  N_12
REMARK    5  A    between atoms: C_18  and  C_20
REMARK    6  A    between atoms: C_23  and  C_26
REMARK    7  A    between atoms: C_26  and  C_27
REMARK    8  A    between atoms: C_26  and  C_28
REMARK                            x       y       z     vdW  Elec       q    Type
REMARK                         _______ _______ _______ _____ _____    ______ ____
ROOT
ATOM      1  N   UNL     1       1.645   0.660  -3.935  0.00  0.00    -0.159 NA
ATOM      2  C   UNL     1       2.060   2.073  -3.923  0.00  0.00    +0.129 C 
ATOM      3  C   UNL     1       3.083   2.260  -2.800  0.00  0.00    +0.121 C 
ATOM      4  N   UNL     1       4.090   1.208  -2.838  0.00  0.00    -0.312 N 
ATOM      5  C   UNL     1       3.921   0.019  -3.418  0.00  0.00    +0.236 C 
ATOM      6  O   UNL     1       4.805  -0.805  -3.315  0.00  0.00    -0.274 OA
ATOM      7  C   UNL     1       2.687  -0.347  -4.188  0.00  0.00    +0.195 C 
ATOM      8  H   UNL     1       4.943   1.385  -2.411  0.00  0.00    +0.149 HD
ENDROOT
BRANCH   7   9
ATOM      9  C   UNL     1       2.198  -1.701  -3.744  0.00  0.00    -0.020 A 
ATOM     10  C   UNL     1       1.940  -1.938  -2.407  0.00  0.00    +0.006 A 
ATOM     11  C   UNL     1       1.492  -3.180  -1.999  0.00  0.00    +0.004 A 
ATOM     12  C   UNL     1       1.302  -4.186  -2.928  0.00  0.00    -0.045 A 
ATOM     13  C   UNL     1       1.560  -3.949  -4.265  0.00  0.00    +0.004 A 
ATOM     14  C   UNL     1       2.004  -2.705  -4.674  0.00  0.00    +0.006 A 
BRANCH  12  15
ATOM     15  C   UNL     1       0.815  -5.541  -2.483  0.00  0.00    +0.013 C 
ATOM     16  C   UNL     1      -0.511  -5.859  -3.177  0.00  0.00    +0.012 C 
ATOM     17  C   UNL     1       1.852  -6.603  -2.854  0.00  0.00    +0.012 C 
ENDBRANCH  12  15
ENDBRANCH   7   9
BRANCH   1  18
ATOM     18  S   UNL     1       0.070   0.222  -3.668  0.00  0.00    +0.065 S 
ATOM     19  O   UNL     1      -0.381   0.986  -2.558  0.00  0.00    -0.153 OA
ATOM     20  O   UNL     1       0.036  -1.199  -3.679  0.00  0.00    -0.153 OA
BRANCH  18  23
ATOM     21  C   UNL     1      -0.443  -1.271  -6.548  0.00  0.00    +0.067 C 
ATOM     22  C   UNL     1      -1.027   0.079  -6.220  0.00  0.00    +0.060 A 
ATOM     23  C   UNL     1      -0.864   0.759  -5.062  0.00  0.00    +0.148 A 
ATOM     24  C   UNL     1      -1.567   1.963  -5.166  0.00  0.00    +0.086 A 
ATOM     25  N   UNL     1      -2.133   2.005  -6.345  0.00  0.00    -0.177 NA
ATOM     26  N   UNL     1      -1.802   0.829  -7.031  0.00  0.00    -0.280 N 
ATOM     27  H   UNL     1      -2.083   0.595  -7.930  0.00  0.00    +0.189 HD
ATOM     28  C   UNL     1      -1.659   3.029  -4.104  0.00  0.00    +0.069 C 
ENDBRANCH  18  23
ENDBRANCH   1  18
TORSDOF 4
