REMARK  Name = ZINC13066094
REMARK  7 active torsions:
REMARK  status: ('A' for Active; 'I' for Inactive)
REMARK    1  A    between atoms: C_1  and  C_2
REMARK    2  A    between atoms: C_2  and  C_26
REMARK    3  A    between atoms: C_13  and  C_15
REMARK    4  A    between atoms: C_15  and  S_16
REMARK    5  A    between atoms: S_16  and  C_17
REMARK    6  A    between atoms: C_17  and  C_18
REMARK    7  A    between atoms: C_21  and  C_24
REMARK                            x       y       z     vdW  Elec       q    Type
REMARK                         _______ _______ _______ _____ _____    ______ ____
ROOT
ATOM      1  C   UNL     1       5.008   1.120  -0.230  0.00  0.00    +0.042 C 
ATOM      2  C   UNL     1       3.705   1.909  -0.369  0.00  0.00    +0.113 C 
ATOM      3  C   UNL     1       3.906   3.309   0.151  0.00  0.00    +0.241 C 
ATOM      4  O   UNL     1       4.996   3.833   0.058  0.00  0.00    -0.273 OA
ATOM      5  N   UNL     1       2.889   3.987   0.718  0.00  0.00    -0.282 N 
ATOM      6  C   UNL     1       1.635   3.389   0.882  0.00  0.00    +0.055 A 
ATOM      7  C   UNL     1       0.521   4.152   1.192  0.00  0.00    +0.025 A 
ATOM      8  C   UNL     1      -0.708   3.540   1.357  0.00  0.00    +0.002 A 
ATOM      9  C   UNL     1      -0.833   2.171   1.209  0.00  0.00    +0.002 A 
ATOM     10  C   UNL     1       0.275   1.401   0.904  0.00  0.00    +0.025 A 
ATOM     11  C   UNL     1       1.507   2.006   0.736  0.00  0.00    +0.059 A 
ATOM     12  N   UNL     1       2.647   1.254   0.415  0.00  0.00    -0.255 N 
ATOM     13  C   UNL     1       2.768  -0.029   0.811  0.00  0.00    +0.231 C 
ATOM     14  O   UNL     1       3.707  -0.695   0.430  0.00  0.00    -0.274 OA
ATOM     15  C   UNL     1       3.293   1.962  -1.841  0.00  0.00    +0.042 C 
ATOM     16  H   UNL     1       3.028   4.900   1.015  0.00  0.00    +0.155 HD
ENDROOT
BRANCH  13  17
ATOM     17  C   UNL     1       1.737  -0.635   1.728  0.00  0.00    +0.165 C 
BRANCH  17  18
ATOM     18  S   UNL     1       2.442  -2.089   2.553  0.00  0.00    -0.147 S 
BRANCH  18  19
ATOM     19  C   UNL     1       1.093  -2.692   3.606  0.00  0.00    +0.104 C 
BRANCH  19  20
ATOM     20  C   UNL     1       1.552  -3.915   4.357  0.00  0.00    -0.038 A 
ATOM     21  C   UNL     1       1.369  -5.171   3.807  0.00  0.00    +0.005 A 
ATOM     22  C   UNL     1       1.790  -6.295   4.488  0.00  0.00    +0.015 A 
ATOM     23  C   UNL     1       2.394  -6.162   5.740  0.00  0.00    +0.063 A 
ATOM     24  C   UNL     1       2.571  -4.892   6.292  0.00  0.00    +0.015 A 
ATOM     25  C   UNL     1       2.149  -3.777   5.598  0.00  0.00    +0.005 A 
BRANCH  23  26
ATOM     26  C   UNL     1       2.844  -7.361   6.477  0.00  0.00    +0.387 C 
ATOM     27  O   UNL     1       3.369  -7.243   7.566  0.00  0.00    -0.241 OA
ATOM     28  O   UNL     1       2.671  -8.585   5.941  0.00  0.00    -0.241 OA
ENDBRANCH  23  26
ENDBRANCH  19  20
ENDBRANCH  18  19
ENDBRANCH  17  18
ENDBRANCH  13  17
TORSDOF 5
