REMARK  Name = ZINC36159154
REMARK  14 active torsions:
REMARK  status: ('A' for Active; 'I' for Inactive)
REMARK    1  A    between atoms: C_1  and  C_2
REMARK    2  A    between atoms: C_2  and  C_3
REMARK    3  A    between atoms: C_2  and  C_4
REMARK    4  A    between atoms: C_4  and  C_5
REMARK    5  A    between atoms: C_5  and  N_6
REMARK    6  A    between atoms: N_6  and  C_7
REMARK    7  A    between atoms: N_6  and  C_22
REMARK    8  A    between atoms: C_7  and  C_8
REMARK    9  A    between atoms: C_22  and  C_23
REMARK   10  A    between atoms: C_23  and  C_25
REMARK   11  A    between atoms: C_23  and  O_34
REMARK   12  A    between atoms: C_25  and  O_26
REMARK   13  A    between atoms: O_26  and  C_27
REMARK   14  A    between atoms: C_27  and  C_28
REMARK                            x       y       z     vdW  Elec       q    Type
REMARK                         _______ _______ _______ _____ _____    ______ ____
ROOT
ATOM      1  N   UNL     1      -2.721  -2.473   0.004  0.00  0.00    +0.386 N 
ATOM      2  H   UNL     1      -2.998  -2.130   0.911  0.00  0.00    -0.081 HD
ENDROOT
BRANCH   1   3
ATOM      3  C   UNL     1      -1.372  -1.987  -0.314  0.00  0.00    -0.078 C 
BRANCH   3   4
ATOM      4  C   UNL     1      -0.898  -2.617  -1.625  0.00  0.00    -0.016 C 
BRANCH   4   6
ATOM      5  C   UNL     1       0.990  -2.744  -3.257  0.00  0.00    +0.007 C 
ATOM      6  C   UNL     1       0.458  -2.026  -2.014  0.00  0.00    -0.019 C 
ATOM      7  C   UNL     1       0.298  -0.535  -2.316  0.00  0.00    +0.007 C 
ENDBRANCH   4   6
ENDBRANCH   3   4
ENDBRANCH   1   3
BRANCH   1   8
ATOM      8  C   UNL     1      -3.667  -1.990  -1.011  0.00  0.00    -0.003 C 
BRANCH   8   9
ATOM      9  C   UNL     1      -3.780  -0.490  -0.920  0.00  0.00    +0.094 A 
ATOM     10  N   UNL     1      -4.510   0.181  -1.847  0.00  0.00    -0.312 N 
ATOM     11  H   UNL     1      -4.949  -0.315  -2.555  0.00  0.00    +0.170 HD
ATOM     12  C   UNL     1      -4.636   1.521  -1.803  0.00  0.00    +0.260 A 
ATOM     13  O   UNL     1      -5.295   2.111  -2.642  0.00  0.00    -0.267 OA
ATOM     14  C   UNL     1      -3.982   2.241  -0.750  0.00  0.00    +0.075 A 
ATOM     15  C   UNL     1      -3.982   3.691  -0.508  0.00  0.00    -0.023 A 
ATOM     16  C   UNL     1      -3.286   4.129   0.555  0.00  0.00    -0.004 A 
ATOM     17  S   UNL     1      -2.599   2.663   1.291  0.00  0.00    -0.073 S 
ATOM     18  C   UNL     1      -3.252   1.464   0.159  0.00  0.00    +0.116 A 
ATOM     19  N   UNL     1      -3.177   0.140   0.054  0.00  0.00    -0.229 NA
ATOM     20  C   UNL     1      -3.353   5.625   0.702  0.00  0.00    +0.043 C 
ATOM     21  C   UNL     1      -3.842   6.128  -0.675  0.00  0.00    +0.010 C 
ATOM     22  C   UNL     1      -4.616   4.902  -1.199  0.00  0.00    +0.037 C 
ENDBRANCH   8   9
ENDBRANCH   1   8
BRANCH   1  23
ATOM     23  C   UNL     1      -2.723  -3.942   0.014  0.00  0.00    -0.044 C 
BRANCH  23  24
ATOM     24  C   UNL     1      -1.874  -4.444   1.184  0.00  0.00    +0.124 C 
BRANCH  24  25
ATOM     25  O   UNL     1      -0.504  -4.105   0.958  0.00  0.00    -0.391 OA
ATOM     26  H   UNL     1      -0.132  -4.487   0.151  0.00  0.00    +0.210 HD
ENDBRANCH  24  25
BRANCH  24  27
ATOM     27  C   UNL     1      -2.011  -5.964   1.298  0.00  0.00    +0.189 C 
BRANCH  27  28
ATOM     28  O   UNL     1      -1.312  -6.420   2.458  0.00  0.00    -0.373 OA
BRANCH  28  29
ATOM     29  C   UNL     1      -1.378  -7.833   2.659  0.00  0.00    +0.195 C 
BRANCH  29  30
ATOM     30  C   UNL     1      -0.612  -8.200   3.904  0.00  0.00    -0.022 A 
ATOM     31  C   UNL     1       0.735  -8.501   3.823  0.00  0.00    +0.006 A 
ATOM     32  C   UNL     1       1.438  -8.838   4.965  0.00  0.00    +0.000 A 
ATOM     33  C   UNL     1       0.794  -8.872   6.188  0.00  0.00    +0.000 A 
ATOM     34  C   UNL     1      -0.553  -8.570   6.268  0.00  0.00    +0.000 A 
ATOM     35  C   UNL     1      -1.254  -8.229   5.127  0.00  0.00    +0.006 A 
ENDBRANCH  29  30
ENDBRANCH  28  29
ENDBRANCH  27  28
ENDBRANCH  24  27
ENDBRANCH  23  24
ENDBRANCH   1  23
TORSDOF 12
