REMARK  Name = ZINC32105782
REMARK  5 active torsions:
REMARK  status: ('A' for Active; 'I' for Inactive)
REMARK    1  A    between atoms: C_1  and  C_2
REMARK    2  A    between atoms: C_7  and  N_8
REMARK    3  A    between atoms: C_15  and  O_17
REMARK    4  A    between atoms: N_24  and  C_27
REMARK    5  A    between atoms: C_27  and  C_28
REMARK                            x       y       z     vdW  Elec       q    Type
REMARK                         _______ _______ _______ _____ _____    ______ ____
ROOT
ATOM      1  N   UNL     1       0.168   0.117   2.335  0.00  0.00    -0.214 N 
ATOM      2  C   UNL     1       0.377  -0.365   3.581  0.00  0.00    +0.164 A 
ATOM      3  C   UNL     1       0.367   0.724   4.447  0.00  0.00    +0.036 A 
ATOM      4  C   UNL     1       0.156   1.863   3.692  0.00  0.00    +0.142 A 
ATOM      5  N   UNL     1       0.044   1.512   2.431  0.00  0.00    -0.173 NA
ATOM      6  C   UNL     1       0.559   0.545   5.926  0.00  0.00    +0.112 C 
ATOM      7  C   UNL     1       1.409  -0.702   6.163  0.00  0.00    +0.121 C 
ATOM      8  C   UNL     1       1.007  -1.822   5.246  0.00  0.00    +0.191 C 
ATOM      9  N   UNL     1       0.553  -1.635   4.043  0.00  0.00    -0.197 NA
ATOM     10  C   UNL     1      -0.752   0.451   6.639  0.00  0.00    -0.005 A 
ATOM     11  C   UNL     1      -1.792  -0.448   6.527  0.00  0.00    +0.007 A 
ATOM     12  C   UNL     1      -2.891  -0.247   7.355  0.00  0.00    +0.002 A 
ATOM     13  C   UNL     1      -2.937   0.806   8.246  0.00  0.00    +0.022 A 
ATOM     14  C   UNL     1      -1.895   1.714   8.365  0.00  0.00    +0.063 A 
ATOM     15  C   UNL     1      -0.784   1.522   7.539  0.00  0.00    +0.059 A 
ATOM     16  N   UNL     1       0.381   2.264   7.448  0.00  0.00    -0.265 N 
ATOM     17  C   UNL     1       1.229   1.761   6.524  0.00  0.00    +0.236 C 
ATOM     18  O   UNL     1       2.320   2.202   6.231  0.00  0.00    -0.274 OA
ATOM     19 CL   UNL     1      -1.968   3.033   9.491  0.00  0.00    -0.082 Cl
ENDROOT
BRANCH   1  26
ATOM     20  C   UNL     1      -1.979   0.628   0.538  0.00  0.00    +0.046 C 
ATOM     21  C   UNL     1      -0.937  -0.423   0.255  0.00  0.00    -0.025 A 
ATOM     22  C   UNL     1      -1.004  -1.168  -0.907  0.00  0.00    +0.005 A 
ATOM     23  C   UNL     1      -0.048  -2.132  -1.167  0.00  0.00    +0.000 A 
ATOM     24  C   UNL     1       0.977  -2.355  -0.267  0.00  0.00    +0.002 A 
ATOM     25  C   UNL     1       1.050  -1.614   0.897  0.00  0.00    +0.028 A 
ATOM     26  C   UNL     1       0.094  -0.641   1.159  0.00  0.00    +0.071 A 
ENDBRANCH   1  26
BRANCH   8  27
ATOM     27  O   UNL     1       1.125  -3.088   5.695  0.00  0.00    -0.495 OA
ATOM     28  H   UNL     1       0.849  -3.759   5.056  0.00  0.00    +0.293 HD
ENDBRANCH   8  27
BRANCH  16  29
ATOM     29  C   UNL     1       0.662   3.452   8.257  0.00  0.00    +0.140 C 
BRANCH  29  30
ATOM     30  C   UNL     1       1.357   3.041   9.529  0.00  0.00    -0.015 C 
ATOM     31  C   UNL     1       2.509   3.576   9.849  0.00  0.00    +0.005 C 
ENDBRANCH  29  30
ENDBRANCH  16  29
TORSDOF 4
