REMARK  Name = ZINC37203305
REMARK  6 active torsions:
REMARK  status: ('A' for Active; 'I' for Inactive)
REMARK    1  A    between atoms: C_5  and  C_7
REMARK    2  A    between atoms: N_11  and  C_15
REMARK    3  A    between atoms: C_15  and  C_16
REMARK    4  A    between atoms: N_18  and  C_19
REMARK    5  A    between atoms: C_21  and  N_26
REMARK    6  A    between atoms: C_24  and  O_25
REMARK                            x       y       z     vdW  Elec       q    Type
REMARK                         _______ _______ _______ _____ _____    ______ ____
ROOT
ATOM      1  C   UNL     1      -3.699  -2.999   0.300  0.00  0.00    +0.211 C 
ENDROOT
BRANCH   1   6
ATOM      2  C   UNL     1       1.246  -2.704   0.043  0.00  0.00    +0.029 C 
ATOM      3  C   UNL     1       0.034  -3.302   0.154  0.00  0.00    +0.077 C 
ATOM      4  C   UNL     1      -1.316  -2.700   0.161  0.00  0.00    +0.259 C 
ATOM      5  O   UNL     1      -1.482  -1.499   0.058  0.00  0.00    -0.269 OA
ATOM      6  N   UNL     1      -2.335  -3.534   0.285  0.00  0.00    -0.246 N 
ATOM      7  C   UNL     1      -2.147  -4.864   0.399  0.00  0.00    +0.121 C 
ATOM      8  S   UNL     1      -3.327  -6.093   0.566  0.00  0.00    -0.027 S 
ATOM      9  S   UNL     1      -0.372  -5.034   0.326  0.00  0.00    -0.061 S 
BRANCH   2  14
ATOM     10  C   UNL     1       0.632   0.887   0.929  0.00  0.00    +0.001 A 
ATOM     11  C   UNL     1       1.538   1.526   0.101  0.00  0.00    +0.001 A 
ATOM     12  C   UNL     1       2.351   0.793  -0.746  0.00  0.00    +0.020 A 
ATOM     13  C   UNL     1       2.262  -0.584  -0.772  0.00  0.00    +0.048 A 
ATOM     14  C   UNL     1       1.348  -1.238   0.063  0.00  0.00    -0.005 A 
ATOM     15  C   UNL     1       0.531  -0.488   0.916  0.00  0.00    +0.009 A 
ATOM     16 CL   UNL     1       3.281  -1.502  -1.836  0.00  0.00    -0.083 Cl
ENDBRANCH   2  14
ENDBRANCH   1   6
BRANCH   1  17
ATOM     17  C   UNL     1      -4.233  -2.946  -1.109  0.00  0.00    +0.235 C 
ATOM     18  O   UNL     1      -3.542  -3.318  -2.034  0.00  0.00    -0.274 OA
ATOM     19  N   UNL     1      -5.478  -2.486  -1.341  0.00  0.00    -0.281 N 
ATOM     20  H   UNL     1      -5.999  -2.108  -0.615  0.00  0.00    +0.155 HD
BRANCH  19  21
ATOM     21  C   UNL     1      -6.021  -2.552  -2.631  0.00  0.00    +0.078 A 
ATOM     22  C   UNL     1      -5.485  -3.425  -3.567  0.00  0.00    +0.059 A 
ATOM     23  C   UNL     1      -6.022  -3.489  -4.838  0.00  0.00    +0.128 A 
ATOM     24  C   UNL     1      -7.093  -2.685  -5.182  0.00  0.00    +0.036 A 
ATOM     25  C   UNL     1      -7.632  -1.812  -4.255  0.00  0.00    +0.049 A 
ATOM     26  C   UNL     1      -7.103  -1.746  -2.976  0.00  0.00    +0.138 A 
BRANCH  23  27
ATOM     27  N   UNL     1      -5.448  -4.421  -5.836  0.00  0.00    +0.056 N 
ATOM     28  O   UNL     1      -4.512  -5.124  -5.537  0.00  0.00    -0.126 OA
ATOM     29  O   UNL     1      -5.917  -4.478  -6.949  0.00  0.00    -0.126 OA
ENDBRANCH  23  27
BRANCH  26  30
ATOM     30  O   UNL     1      -7.636  -0.893  -2.061  0.00  0.00    -0.505 OA
ATOM     31  H   UNL     1      -7.234  -0.013  -2.063  0.00  0.00    +0.292 HD
ENDBRANCH  26  30
ENDBRANCH  19  21
ENDBRANCH   1  17
TORSDOF 6
