REMARK  Name = ZINC64066814
REMARK  5 active torsions:
REMARK  status: ('A' for Active; 'I' for Inactive)
REMARK    1  A    between atoms: C_5  and  C_7
REMARK    2  A    between atoms: C_7  and  N_8
REMARK    3  A    between atoms: C_10  and  C_13
REMARK    4  A    between atoms: N_15  and  C_16
REMARK    5  A    between atoms: C_16  and  C_17
REMARK                            x       y       z     vdW  Elec       q    Type
REMARK                         _______ _______ _______ _____ _____    ______ ____
ROOT
ATOM      1  C   UNL     1       0.488  -4.604   4.277  0.00  0.00    +0.266 C 
ATOM      2  O   UNL     1      -0.520  -5.245   4.048  0.00  0.00    -0.268 OA
ATOM      3  N   UNL     1       1.084  -4.693   5.483  0.00  0.00    -0.306 N 
ATOM      4  H   UNL     1       1.888  -4.182   5.665  0.00  0.00    +0.149 HD
ENDROOT
BRANCH   1   7
ATOM      5  N   UNL     1       1.369  -2.680   1.350  0.00  0.00    -0.247 N 
ATOM      6  C   UNL     1       0.555  -3.553   1.978  0.00  0.00    +0.143 A 
ATOM      7  C   UNL     1       1.059  -3.731   3.235  0.00  0.00    +0.167 A 
ATOM      8  N   UNL     1       2.163  -2.975   3.361  0.00  0.00    -0.125 NA
ATOM      9  N   UNL     1       2.380  -2.342   2.261  0.00  0.00    -0.065 NA
BRANCH   5  10
ATOM     10  C   UNL     1       1.229  -2.186  -0.022  0.00  0.00    +0.181 C 
BRANCH  10  15
ATOM     11  C   UNL     1      -0.017   1.378   0.010  0.00  0.00    +0.000 A 
ATOM     12  C   UNL     1       1.171   2.086   0.002  0.00  0.00    +0.001 A 
ATOM     13  C   UNL     1       2.377   1.412  -0.013  0.00  0.00    +0.020 A 
ATOM     14  C   UNL     1       2.397   0.029  -0.021  0.00  0.00    +0.046 A 
ATOM     15  C   UNL     1       1.208  -0.679  -0.013  0.00  0.00    -0.008 A 
ATOM     16  C   UNL     1       0.002  -0.004   0.002  0.00  0.00    +0.007 A 
ATOM     17 CL   UNL     1       3.912  -0.818  -0.041  0.00  0.00    -0.083 Cl
ENDBRANCH  10  15
ENDBRANCH   5  10
ENDBRANCH   1   7
BRANCH   3  18
ATOM     18  C   UNL     1       0.517  -5.561   6.518  0.00  0.00    +0.151 C 
BRANCH  18  19
ATOM     19  C   UNL     1       1.378  -5.479   7.780  0.00  0.00    +0.191 C 
ATOM     20  N   UNL     1       2.761  -5.864   7.472  0.00  0.00    -0.362 N 
ATOM     21  C   UNL     1       3.520  -4.841   7.741  0.00  0.00    +0.060 A 
ATOM     22  C   UNL     1       4.970  -4.620   7.640  0.00  0.00    +0.029 A 
ATOM     23  C   UNL     1       5.487  -3.429   7.999  0.00  0.00    +0.022 A 
ATOM     24  C   UNL     1       4.692  -2.368   8.473  0.00  0.00    +0.043 A 
ATOM     25  C   UNL     1       3.352  -2.466   8.603  0.00  0.00    +0.047 A 
ATOM     26  C   UNL     1       2.679  -3.720   8.242  0.00  0.00    +0.062 A 
ATOM     27  N   UNL     1       1.430  -4.094   8.265  0.00  0.00    -0.362 N 
ATOM     28 CL   UNL     1       5.465  -0.876   8.907  0.00  0.00    -0.083 Cl
ATOM     29  H   UNL     1       3.055  -6.723   7.131  0.00  0.00    +0.162 HD
ATOM     30  H   UNL     1       0.674  -3.556   8.550  0.00  0.00    +0.162 HD
ENDBRANCH  18  19
ENDBRANCH   3  18
TORSDOF 5
