REMARK  Name = ZINC11286547
REMARK  6 active torsions:
REMARK  status: ('A' for Active; 'I' for Inactive)
REMARK    1  A    between atoms: C_1  and  C_2
REMARK    2  A    between atoms: C_2  and  C_3
REMARK    3  A    between atoms: C_3  and  C_25
REMARK    4  A    between atoms: N_6  and  C_10
REMARK    5  A    between atoms: C_10  and  C_11
REMARK    6  A    between atoms: N_13  and  C_14
REMARK                            x       y       z     vdW  Elec       q    Type
REMARK                         _______ _______ _______ _____ _____    ______ ____
ROOT
ATOM      1  C   UNL     1      -0.715   3.385   0.020  0.00  0.00    +0.138 C 
ATOM      2  C   UNL     1       0.799   3.306   0.003  0.00  0.00    +0.251 C 
ATOM      3  O   UNL     1       1.580   4.233  -0.007  0.00  0.00    -0.272 OA
ATOM      4  N   UNL     1       1.095   1.992   0.001  0.00  0.00    -0.215 N 
ATOM      5  C   UNL     1      -0.009   1.236   0.015  0.00  0.00    +0.310 C 
ATOM      6  O   UNL     1       0.003   0.021   0.016  0.00  0.00    -0.252 OA
ATOM      7  N   UNL     1      -1.135   1.973   0.021  0.00  0.00    -0.281 N 
ATOM      8  H   UNL     1      -2.046   1.639   0.027  0.00  0.00    +0.152 HD
ENDROOT
BRANCH   1   9
ATOM      9  C   UNL     1      -1.224   4.087  -1.212  0.00  0.00    -0.015 A 
ATOM     10  C   UNL     1      -1.415   5.456  -1.199  0.00  0.00    +0.006 A 
ATOM     11  C   UNL     1      -1.878   6.100  -2.331  0.00  0.00    +0.000 A 
ATOM     12  C   UNL     1      -2.158   5.374  -3.473  0.00  0.00    +0.000 A 
ATOM     13  C   UNL     1      -1.972   4.005  -3.485  0.00  0.00    +0.000 A 
ATOM     14  C   UNL     1      -1.505   3.361  -2.355  0.00  0.00    +0.006 A 
ENDBRANCH   1   9
BRANCH   1  16
ATOM     15  C   UNL     1      -0.717   3.336   2.518  0.00  0.00    +0.007 C 
ATOM     16  C   UNL     1      -1.202   4.097   1.284  0.00  0.00    +0.037 C 
ENDBRANCH   1  16
BRANCH   4  17
ATOM     17  C   UNL     1       2.459   1.455  -0.014  0.00  0.00    +0.214 C 
BRANCH  17  18
ATOM     18  C   UNL     1       2.910   1.270  -1.439  0.00  0.00    +0.235 C 
ATOM     19  O   UNL     1       2.166   1.557  -2.353  0.00  0.00    -0.274 OA
ATOM     20  N   UNL     1       4.140   0.784  -1.699  0.00  0.00    -0.283 N 
ATOM     21  H   UNL     1       4.759   0.616  -0.971  0.00  0.00    +0.155 HD
BRANCH  20  22
ATOM     22  C   UNL     1       4.526   0.523  -3.021  0.00  0.00    +0.056 A 
ATOM     23  C   UNL     1       4.073   1.336  -4.050  0.00  0.00    +0.074 A 
ATOM     24  C   UNL     1       4.455   1.078  -5.357  0.00  0.00    +0.164 A 
ATOM     25  C   UNL     1       5.293   0.005  -5.635  0.00  0.00    +0.164 A 
ATOM     26  C   UNL     1       5.744  -0.807  -4.605  0.00  0.00    +0.071 A 
ATOM     27  C   UNL     1       5.367  -0.546  -3.300  0.00  0.00    +0.066 A 
ATOM     28 CL   UNL     1       5.940  -1.560  -2.013  0.00  0.00    -0.082 Cl
ATOM     29  O   UNL     1       5.683  -0.262  -6.913  0.00  0.00    -0.485 OA
ATOM     30  C   UNL     1       4.915   0.342  -7.959  0.00  0.00    +0.270 C 
ATOM     31  C   UNL     1       4.698   1.820  -7.604  0.00  0.00    +0.270 C 
ATOM     32  O   UNL     1       3.999   1.883  -6.356  0.00  0.00    -0.485 OA
ENDBRANCH  20  22
ENDBRANCH  17  18
ENDBRANCH   4  17
TORSDOF 5
