REMARK  Name = ZINC31868517
REMARK  4 active torsions:
REMARK  status: ('A' for Active; 'I' for Inactive)
REMARK    1  A    between atoms: C_1  and  C_2
REMARK    2  A    between atoms: N_11  and  C_12
REMARK    3  A    between atoms: C_12  and  C_13
REMARK    4  A    between atoms: N_15  and  C_16
REMARK                            x       y       z     vdW  Elec       q    Type
REMARK                         _______ _______ _______ _____ _____    ______ ____
ROOT
ATOM      1  C   UNL     1      -5.103   1.358   1.069  0.00  0.00    +0.231 C 
ATOM      2  O   UNL     1      -4.707   2.056   1.979  0.00  0.00    -0.274 OA
ATOM      3  N   UNL     1      -4.279   1.049   0.049  0.00  0.00    -0.308 N 
ATOM      4  H   UNL     1      -4.638   0.417  -0.776  0.00  0.00    +0.149 HD
ENDROOT
BRANCH   3   5
ATOM      5  C   UNL     1      -2.904   1.556   0.038  0.00  0.00    +0.035 C 
ATOM      6  C   UNL     1      -2.188   1.063  -1.221  0.00  0.00    +0.029 C 
ATOM      7  C   UNL     1      -0.753   1.593  -1.232  0.00  0.00    -0.008 C 
ATOM      8  C   UNL     1      -0.013   1.086   0.008  0.00  0.00    +0.007 C 
ATOM      9  C   UNL     1      -0.729   1.579   1.267  0.00  0.00    -0.008 C 
ATOM     10  C   UNL     1      -2.164   1.050   1.278  0.00  0.00    +0.029 C 
ATOM     11  C   UNL     1      -0.750   3.109   1.275  0.00  0.00    +0.007 C 
ATOM     12  C   UNL     1      -1.490   3.616   0.036  0.00  0.00    -0.008 C 
ATOM     13  C   UNL     1      -0.773   3.123  -1.223  0.00  0.00    +0.007 C 
ATOM     14  C   UNL     1      -2.925   3.086   0.047  0.00  0.00    +0.029 C 
ENDBRANCH   3   5
BRANCH   1  15
ATOM     15  C   UNL     1      -6.517   0.837   1.080  0.00  0.00    +0.198 C 
BRANCH  15  26
ATOM     16  C   UNL     1      -9.257   3.390   6.996  0.00  0.00    +0.051 C 
ATOM     17  C   UNL     1      -9.540   2.548   5.778  0.00  0.00    -0.011 A 
ATOM     18  C   UNL     1      -8.712   2.246   4.767  0.00  0.00    +0.024 A 
ATOM     19  C   UNL     1      -9.194   1.409   3.682  0.00  0.00    +0.048 A 
ATOM     20  C   UNL     1      -8.520   0.956   2.515  0.00  0.00    +0.131 A 
ATOM     21  N   UNL     1      -9.171   0.196   1.648  0.00  0.00    -0.220 NA
ATOM     22  C   UNL     1     -10.427  -0.166   1.835  0.00  0.00    +0.224 A 
ATOM     23  N   UNL     1     -11.105   0.223   2.897  0.00  0.00    -0.228 NA
ATOM     24  C   UNL     1     -10.535   0.986   3.809  0.00  0.00    +0.113 A 
ATOM     25  S   UNL     1     -11.055   1.717   5.339  0.00  0.00    -0.074 S 
ATOM     26  N   UNL     1      -7.203   1.309   2.285  0.00  0.00    -0.320 N 
ATOM     27  H   UNL     1      -6.670   1.945   3.007  0.00  0.00    +0.148 HD
ENDBRANCH  15  26
ENDBRANCH   1  15
TORSDOF 3
