REMARK  Name = ZINC66899021
REMARK  5 active torsions:
REMARK  status: ('A' for Active; 'I' for Inactive)
REMARK    1  A    between atoms: C_8  and  C_11
REMARK    2  A    between atoms: C_11  and  N_12
REMARK    3  A    between atoms: C_13  and  C_15
REMARK    4  A    between atoms: C_15  and  N_16
REMARK    5  A    between atoms: C_20  and  C_22
REMARK                            x       y       z     vdW  Elec       q    Type
REMARK                         _______ _______ _______ _____ _____    ______ ____
ROOT
ATOM      1  N   UNL     1       8.282  -4.905   0.585  0.00  0.00    +0.390 N 
ATOM      2  C   UNL     1       7.657  -6.191   0.207  0.00  0.00    -0.077 C 
ATOM      3  C   UNL     1       8.602  -6.790  -0.864  0.00  0.00    -0.020 C 
ATOM      4  C   UNL     1       9.995  -6.370  -0.325  0.00  0.00    -0.012 C 
ATOM      5  C   UNL     1       9.725  -4.979   0.288  0.00  0.00    -0.033 C 
ATOM      6  H   UNL     1       8.147  -4.741   1.571  0.00  0.00    -0.080 HD
ENDROOT
BRANCH   5   7
ATOM      7  C   UNL     1      10.519  -4.815   1.558  0.00  0.00    -0.016 A 
ATOM      8  C   UNL     1       9.972  -5.199   2.768  0.00  0.00    +0.006 A 
ATOM      9  C   UNL     1      10.697  -5.050   3.936  0.00  0.00    +0.004 A 
ATOM     10  C   UNL     1      11.972  -4.515   3.896  0.00  0.00    +0.049 A 
ATOM     11  C   UNL     1      12.526  -4.128   2.686  0.00  0.00    +0.162 A 
ATOM     12  C   UNL     1      11.799  -4.286   1.511  0.00  0.00    +0.164 A 
ATOM     13  O   UNL     1      12.329  -3.924   0.311  0.00  0.00    -0.485 OA
ATOM     14  C   UNL     1      13.466  -3.054   0.345  0.00  0.00    +0.270 C 
ATOM     15  C   UNL     1      14.449  -3.589   1.394  0.00  0.00    +0.270 C 
ATOM     16  O   UNL     1      13.780  -3.600   2.663  0.00  0.00    -0.485 OA
ENDBRANCH   5   7
BRANCH   1  17
ATOM     17  C   UNL     1       7.674  -3.814  -0.188  0.00  0.00    +0.019 C 
BRANCH  17  19
ATOM     18  N   UNL     1       5.464  -2.717  -0.372  0.00  0.00    -0.313 N 
ATOM     19  C   UNL     1       6.228  -3.663   0.210  0.00  0.00    +0.197 C 
ATOM     20  O   UNL     1       5.751  -4.392   1.054  0.00  0.00    -0.278 OA
ATOM     21  H   UNL     1       5.846  -2.134  -1.047  0.00  0.00    +0.149 HD
BRANCH  18  22
ATOM     22  C   UNL     1       4.059  -2.570   0.014  0.00  0.00    +0.149 C 
BRANCH  22  30
ATOM     23  C   UNL     1       0.802   2.433  -0.638  0.00  0.00    +0.000 A 
ATOM     24  C   UNL     1       2.068   2.990  -0.673  0.00  0.00    +0.004 A 
ATOM     25  C   UNL     1       3.186   2.184  -0.613  0.00  0.00    +0.046 A 
ATOM     26  C   UNL     1       3.049   0.801  -0.516  0.00  0.00    +0.124 A 
ATOM     27  C   UNL     1       1.773   0.253  -0.489  0.00  0.00    -0.002 A 
ATOM     28  C   UNL     1       0.658   1.060  -0.545  0.00  0.00    +0.007 A 
ATOM     29  C   UNL     1       1.938  -1.252  -0.405  0.00  0.00    +0.085 C 
ATOM     30  C   UNL     1       3.425  -1.433  -0.791  0.00  0.00    +0.195 C 
ATOM     31  O   UNL     1       4.003  -0.167  -0.432  0.00  0.00    -0.487 OA
ENDBRANCH  22  30
ENDBRANCH  18  22
ENDBRANCH  17  19
ENDBRANCH   1  17
TORSDOF 5
