REMARK  Name = ZINC30898121
REMARK  12 active torsions:
REMARK  status: ('A' for Active; 'I' for Inactive)
REMARK    1  A    between atoms: C_1  and  C_2
REMARK    2  A    between atoms: C_2  and  C_33
REMARK    3  A    between atoms: C_4  and  N_10
REMARK    4  A    between atoms: C_6  and  C_8
REMARK    5  A    between atoms: C_6  and  C_9
REMARK    6  A    between atoms: C_11  and  C_13
REMARK    7  A    between atoms: C_13  and  C_15
REMARK    8  A    between atoms: C_13  and  N_22
REMARK    9  A    between atoms: C_15  and  C_16
REMARK   10  A    between atoms: C_23  and  O_25
REMARK   11  A    between atoms: O_25  and  C_26
REMARK   12  A    between atoms: C_26  and  C_27
REMARK                            x       y       z     vdW  Elec       q    Type
REMARK                         _______ _______ _______ _____ _____    ______ ____
ROOT
ATOM      1  C   UNL     1       2.876   4.205  -1.446  0.00  0.00    +0.166 C 
ENDROOT
BRANCH   1   3
ATOM      2  N   UNL     1       5.292   4.238  -0.917  0.00  0.00    -0.311 N 
ATOM      3  C   UNL     1       4.229   4.867  -1.457  0.00  0.00    +0.234 C 
ATOM      4  O   UNL     1       4.363   5.966  -1.952  0.00  0.00    -0.274 OA
ATOM      5  H   UNL     1       5.171   3.241  -0.468  0.00  0.00    +0.149 HD
BRANCH   2   9
ATOM      6  C   UNL     1       8.748   6.392   0.763  0.00  0.00    -0.010 C 
ATOM      7  C   UNL     1       8.841   4.962   0.218  0.00  0.00    -0.072 C 
ATOM      8  C   UNL     1       7.454   4.325   0.219  0.00  0.00    +0.009 C 
ATOM      9  C   UNL     1       6.611   4.883  -0.928  0.00  0.00    +0.070 C 
ATOM     10  C   UNL     1       7.315   4.567  -2.247  0.00  0.00    +0.009 C 
ATOM     11  C   UNL     1       8.700   5.209  -2.277  0.00  0.00    -0.072 C 
ATOM     12  N   UNL     1       9.474   4.938  -1.084  0.00  0.00    +0.386 N 
ATOM     13  C   UNL     1       8.560   6.717  -2.516  0.00  0.00    -0.010 C 
ATOM     14  C   UNL     1       9.458   4.623  -3.488  0.00  0.00    -0.010 C 
ATOM     15  C   UNL     1       9.723   4.156   1.198  0.00  0.00    -0.010 C 
ATOM     16  H   UNL     1      10.277   5.689  -1.115  0.00  0.00    -0.084 HD
ATOM     17  H   UNL     1       9.898   3.940  -1.267  0.00  0.00    -0.084 HD
ENDBRANCH   2   9
ENDBRANCH   1   3
BRANCH   1  18
ATOM     18  N   UNL     1       1.896   5.085  -2.087  0.00  0.00    -0.269 N 
ATOM     19  C   UNL     1       0.786   4.564  -2.646  0.00  0.00    +0.401 C 
ATOM     20  O   UNL     1       0.598   3.364  -2.619  0.00  0.00    -0.226 OA
ATOM     21  H   UNL     1       2.067   6.172  -2.112  0.00  0.00    +0.153 HD
BRANCH  19  22
ATOM     22  O   UNL     1      -0.114   5.373  -3.236  0.00  0.00    -0.446 OA
BRANCH  22  23
ATOM     23  C   UNL     1      -1.286   4.743  -3.817  0.00  0.00    +0.269 C 
BRANCH  23  24
ATOM     24  C   UNL     1      -2.174   5.798  -4.427  0.00  0.00    -0.010 A 
ATOM     25  C   UNL     1      -3.163   6.392  -3.666  0.00  0.00    +0.007 A 
ATOM     26  C   UNL     1      -3.974   7.363  -4.224  0.00  0.00    +0.000 A 
ATOM     27  C   UNL     1      -3.802   7.732  -5.545  0.00  0.00    +0.000 A 
ATOM     28  C   UNL     1      -2.816   7.133  -6.307  0.00  0.00    +0.000 A 
ATOM     29  C   UNL     1      -2.002   6.166  -5.748  0.00  0.00    +0.007 A 
ENDBRANCH  23  24
ENDBRANCH  22  23
ENDBRANCH  19  22
ENDBRANCH   1  18
BRANCH   1  30
ATOM     30  C   UNL     1       2.451   3.937  -0.001  0.00  0.00    +0.067 C 
BRANCH  30  31
ATOM     31  C   UNL     1       1.156   3.165   0.008  0.00  0.00    -0.045 A 
ATOM     32  C   UNL     1       1.175   1.783   0.000  0.00  0.00    +0.004 A 
ATOM     33  C   UNL     1      -0.013   1.076   0.008  0.00  0.00    +0.000 A 
ATOM     34  C   UNL     1      -1.219   1.751   0.017  0.00  0.00    +0.000 A 
ATOM     35  C   UNL     1      -1.238   3.133   0.030  0.00  0.00    +0.000 A 
ATOM     36  C   UNL     1      -0.050   3.840   0.023  0.00  0.00    +0.004 A 
ENDBRANCH  30  31
ENDBRANCH   1  30
TORSDOF 8
