REMARK  Name = ZINC12455774
REMARK  9 active torsions:
REMARK  status: ('A' for Active; 'I' for Inactive)
REMARK    1  A    between atoms: C_1  and  C_2
REMARK    2  A    between atoms: C_2  and  C_3
REMARK    3  A    between atoms: C_2  and  C_4
REMARK    4  A    between atoms: C_4  and  C_5
REMARK    5  A    between atoms: C_5  and  C_7
REMARK    6  A    between atoms: C_5  and  N_27
REMARK    7  A    between atoms: C_16  and  C_17
REMARK    8  A    between atoms: C_16  and  N_59
REMARK    9  A    between atoms: C_28  and  C_30
REMARK                            x       y       z     vdW  Elec       q    Type
REMARK                         _______ _______ _______ _____ _____    ______ ____
ROOT
ATOM      1  C   UNL     1       2.362   1.638   3.481  0.00  0.00    +0.154 A 
ATOM      2  N   UNL     1       2.817   2.828   3.189  0.00  0.00    -0.132 NA
ATOM      3  N   UNL     1       2.539   3.111   1.964  0.00  0.00    -0.134 NA
ATOM      4  C   UNL     1       1.903   2.115   1.421  0.00  0.00    +0.132 A 
ATOM      5  N   UNL     1       1.759   1.159   2.372  0.00  0.00    -0.315 N 
ATOM      6  C   UNL     1       1.073  -0.122   2.207  0.00  0.00    +0.106 C 
ATOM      7  C   UNL     1       1.149  -0.548   0.738  0.00  0.00    -0.056 C 
ATOM      8  C   UNL     1      -0.018   1.460   0.010  0.00  0.00    -0.070 C 
ATOM      9  C   UNL     1       1.417   1.996  -0.001  0.00  0.00    +0.058 C 
ATOM     10  N   UNL     1      -0.030  -0.020   0.014  0.00  0.00    +0.385 N 
ATOM     11  H   UNL     1      -0.881  -0.342   0.489  0.00  0.00    -0.081 HD
ENDROOT
BRANCH   1  12
ATOM     12  C   UNL     1       2.487   0.932   4.807  0.00  0.00    +0.141 C 
BRANCH  12  13
ATOM     13  N   UNL     1       3.855   1.077   5.310  0.00  0.00    -0.306 N 
ATOM     14  C   UNL     1       4.359   2.304   5.546  0.00  0.00    +0.210 C 
ATOM     15  O   UNL     1       3.681   3.289   5.341  0.00  0.00    -0.276 OA
ATOM     16  C   UNL     1       5.767   2.454   6.063  0.00  0.00    +0.109 C 
ATOM     17  H   UNL     1       4.398   0.290   5.473  0.00  0.00    +0.149 HD
ENDBRANCH  12  13
BRANCH  12  18
ATOM     18  C   UNL     1       1.507   1.548   5.807  0.00  0.00    +0.033 C 
BRANCH  18  20
ATOM     19  C   UNL     1       0.660   1.441   8.155  0.00  0.00    +0.007 C 
ATOM     20  C   UNL     1       1.544   0.753   7.114  0.00  0.00    -0.015 C 
ATOM     21  C   UNL     1       1.028  -0.665   6.862  0.00  0.00    +0.007 C 
ENDBRANCH  18  20
ENDBRANCH  12  18
ENDBRANCH   1  12
BRANCH  10  22
ATOM     22  C   UNL     1      -0.036  -0.523  -1.371  0.00  0.00    -0.025 C 
BRANCH  22  23
ATOM     23  C   UNL     1      -1.361  -0.179  -2.002  0.00  0.00    +0.000 A 
ATOM     24  C   UNL     1      -2.430  -0.991  -2.042  0.00  0.00    +0.029 A 
ATOM     25  C   UNL     1      -3.494  -0.264  -2.738  0.00  0.00    -0.000 A 
ATOM     26  C   UNL     1      -4.813  -0.569  -3.082  0.00  0.00    +0.010 A 
ATOM     27  C   UNL     1      -5.567   0.350  -3.755  0.00  0.00    +0.001 A 
ATOM     28  C   UNL     1      -5.034   1.584  -4.100  0.00  0.00    +0.002 A 
ATOM     29  C   UNL     1      -3.736   1.905  -3.770  0.00  0.00    +0.026 A 
ATOM     30  C   UNL     1      -2.949   0.985  -3.085  0.00  0.00    +0.047 A 
ATOM     31  N   UNL     1      -1.652   1.005  -2.623  0.00  0.00    -0.360 N 
ATOM     32  H   UNL     1      -1.036   1.747  -2.723  0.00  0.00    +0.166 HD
ENDBRANCH  22  23
ENDBRANCH  10  22
TORSDOF 6
