REMARK  Name = ZINC13518368
REMARK  3 active torsions:
REMARK  status: ('A' for Active; 'I' for Inactive)
REMARK    1  A    between atoms: C_4  and  C_7
REMARK    2  A    between atoms: N_10  and  C_12
REMARK    3  A    between atoms: C_22  and  C_24
REMARK                            x       y       z     vdW  Elec       q    Type
REMARK                         _______ _______ _______ _____ _____    ______ ____
ROOT
ATOM      1  C   UNL     1       3.786  -1.149  -0.437  0.00  0.00    +0.099 A 
ATOM      2  C   UNL     1       4.029  -2.142   0.516  0.00  0.00    +0.028 A 
ATOM      3  C   UNL     1       5.286  -2.633   0.301  0.00  0.00    +0.133 A 
ATOM      4  N   UNL     1       5.818  -1.963  -0.744  0.00  0.00    -0.217 N 
ATOM      5  N   UNL     1       4.860  -1.043  -1.198  0.00  0.00    -0.164 NA
ATOM      6  N   UNL     1       5.820  -3.660   1.081  0.00  0.00    -0.270 N 
ATOM      7  C   UNL     1       4.995  -4.305   1.933  0.00  0.00    +0.219 C 
ATOM      8  O   UNL     1       5.472  -5.065   2.748  0.00  0.00    -0.275 OA
ATOM      9  C   UNL     1       3.506  -4.110   1.903  0.00  0.00    +0.109 C 
ATOM     10  C   UNL     1       3.142  -2.648   1.624  0.00  0.00    +0.063 C 
ATOM     11  H   UNL     1       6.756  -3.903   1.012  0.00  0.00    +0.156 HD
ENDROOT
BRANCH  10  12
ATOM     12  C   UNL     1       1.698  -2.556   1.202  0.00  0.00    -0.036 A 
ATOM     13  C   UNL     1       1.296  -3.103  -0.003  0.00  0.00    +0.008 A 
ATOM     14  C   UNL     1      -0.028  -3.022  -0.395  0.00  0.00    +0.050 A 
ATOM     15  C   UNL     1      -0.954  -2.390   0.419  0.00  0.00    +0.166 A 
ATOM     16  C   UNL     1      -0.549  -1.839   1.632  0.00  0.00    +0.167 A 
ATOM     17  C   UNL     1       0.778  -1.930   2.021  0.00  0.00    +0.053 A 
ATOM     18  O   UNL     1      -1.635  -1.280   2.242  0.00  0.00    -0.453 OA
ATOM     19  C   UNL     1      -2.625  -1.136   1.207  0.00  0.00    +0.466 C 
ATOM     20  O   UNL     1      -2.294  -2.177   0.269  0.00  0.00    -0.453 OA
ENDBRANCH  10  12
BRANCH   1  24
ATOM     21  C   UNL     1       0.212   1.122  -0.826  0.00  0.00    +0.000 A 
ATOM     22  C   UNL     1       0.770   0.924   0.425  0.00  0.00    +0.001 A 
ATOM     23  C   UNL     1       1.930   0.188   0.557  0.00  0.00    +0.010 A 
ATOM     24  C   UNL     1       2.539  -0.356  -0.572  0.00  0.00    +0.002 A 
ATOM     25  C   UNL     1       1.973  -0.153  -1.829  0.00  0.00    +0.010 A 
ATOM     26  C   UNL     1       0.813   0.585  -1.950  0.00  0.00    +0.001 A 
ENDBRANCH   1  24
BRANCH   4  27
ATOM     27  C   UNL     1       7.097  -2.156  -1.283  0.00  0.00    +0.067 A 
ATOM     28  C   UNL     1       8.159  -2.486  -0.452  0.00  0.00    +0.028 A 
ATOM     29  C   UNL     1       9.419  -2.676  -0.986  0.00  0.00    +0.002 A 
ATOM     30  C   UNL     1       9.623  -2.536  -2.346  0.00  0.00    +0.000 A 
ATOM     31  C   UNL     1       8.567  -2.207  -3.176  0.00  0.00    +0.002 A 
ATOM     32  C   UNL     1       7.304  -2.022  -2.649  0.00  0.00    +0.028 A 
ENDBRANCH   4  27
TORSDOF 3
