REMARK  Name = ZINC32958968
REMARK  9 active torsions:
REMARK  status: ('A' for Active; 'I' for Inactive)
REMARK    1  A    between atoms: C_1  and  C_2
REMARK    2  A    between atoms: C_4  and  C_35
REMARK    3  A    between atoms: C_5  and  N_9
REMARK    4  A    between atoms: C_6  and  C_8
REMARK    5  A    between atoms: C_10  and  C_12
REMARK    6  A    between atoms: N_15  and  S_18
REMARK    7  A    between atoms: S_18  and  C_21
REMARK    8  A    between atoms: C_26  and  C_27
REMARK    9  A    between atoms: C_31  and  C_34
REMARK                            x       y       z     vdW  Elec       q    Type
REMARK                         _______ _______ _______ _____ _____    ______ ____
ROOT
ATOM      1  C   UNL     1      -4.352   1.347  -1.645  0.00  0.00    +0.078 C 
ATOM      2  C   UNL     1      -4.234   2.437  -2.713  0.00  0.00    +0.030 C 
ATOM      3  C   UNL     1      -5.128   2.079  -3.904  0.00  0.00    +0.110 C 
ATOM      4  N   UNL     1      -6.497   1.857  -3.418  0.00  0.00    -0.177 NA
ATOM      5  C   UNL     1      -6.712   0.895  -2.328  0.00  0.00    +0.110 C 
ATOM      6  C   UNL     1      -5.800   1.266  -1.155  0.00  0.00    +0.030 C 
ENDROOT
BRANCH   1   8
ATOM      7  N   UNL     1      -2.120   1.801  -0.682  0.00  0.00    -0.285 N 
ATOM      8  C   UNL     1      -3.448   1.679  -0.486  0.00  0.00    +0.220 C 
ATOM      9  O   UNL     1      -3.915   1.836   0.622  0.00  0.00    -0.275 OA
ATOM     10  H   UNL     1      -1.686   1.577  -1.667  0.00  0.00    +0.155 HD
BRANCH   7  15
ATOM     11  C   UNL     1       1.240   3.466   3.576  0.00  0.00    +0.044 C 
ATOM     12  C   UNL     1       0.346   3.025   2.446  0.00  0.00    -0.050 A 
ATOM     13  C   UNL     1       0.315   3.749   1.268  0.00  0.00    +0.008 A 
ATOM     14  C   UNL     1      -0.503   3.347   0.230  0.00  0.00    -0.029 A 
ATOM     15  C   UNL     1      -1.293   2.213   0.369  0.00  0.00    +0.039 A 
ATOM     16  C   UNL     1      -1.264   1.492   1.556  0.00  0.00    -0.029 A 
ATOM     17  C   UNL     1      -0.443   1.899   2.590  0.00  0.00    +0.008 A 
ATOM     18  C   UNL     1      -2.124   0.265   1.714  0.00  0.00    +0.045 C 
ATOM     19  C   UNL     1      -0.535   4.135  -1.054  0.00  0.00    +0.045 C 
ENDBRANCH   7  15
ENDBRANCH   1   8
BRANCH   4  20
ATOM     20  S   UNL     1      -7.772   2.676  -4.085  0.00  0.00    +0.061 S 
ATOM     21  O   UNL     1      -7.421   2.943  -5.436  0.00  0.00    -0.153 OA
ATOM     22  O   UNL     1      -8.946   1.958  -3.730  0.00  0.00    -0.153 OA
BRANCH  20  23
ATOM     23  C   UNL     1      -7.872   4.236  -3.273  0.00  0.00    +0.112 A 
ATOM     24  C   UNL     1      -7.545   5.392  -3.958  0.00  0.00    +0.076 A 
ATOM     25  C   UNL     1      -7.623   6.618  -3.321  0.00  0.00    +0.145 A 
ATOM     26  C   UNL     1      -8.032   6.683  -1.989  0.00  0.00    +0.076 A 
ATOM     27  C   UNL     1      -8.359   5.522  -1.308  0.00  0.00    +0.032 A 
ATOM     28  C   UNL     1      -8.283   4.301  -1.954  0.00  0.00    -0.022 A 
ATOM     29  C   UNL     1      -8.644   3.037  -1.217  0.00  0.00    +0.046 C 
ATOM     30  N   UNL     1      -8.106   7.931  -1.355  0.00  0.00    -0.280 N 
ATOM     31  C   UNL     1      -8.091   9.051  -2.110  0.00  0.00    +0.258 C 
ATOM     32  O   UNL     1      -8.123  10.142  -1.581  0.00  0.00    -0.271 OA
ATOM     33  C   UNL     1      -8.034   8.939  -3.612  0.00  0.00    +0.256 C 
ATOM     34  O   UNL     1      -7.307   7.764  -3.980  0.00  0.00    -0.478 OA
ATOM     35  C   UNL     1      -9.456   8.853  -4.170  0.00  0.00    +0.062 C 
ATOM     36  H   UNL     1      -8.175   7.987  -0.258  0.00  0.00    +0.155 HD
ENDBRANCH  20  23
ENDBRANCH   4  20
TORSDOF 4
