REMARK  Name = ZINC39446909
REMARK  5 active torsions:
REMARK  status: ('A' for Active; 'I' for Inactive)
REMARK    1  A    between atoms: C_4  and  C_7
REMARK    2  A    between atoms: C_7  and  O_35
REMARK    3  A    between atoms: N_10  and  C_19
REMARK    4  A    between atoms: C_19  and  C_20
REMARK    5  A    between atoms: C_25  and  C_26
REMARK                            x       y       z     vdW  Elec       q    Type
REMARK                         _______ _______ _______ _____ _____    ______ ____
ROOT
ATOM      1  C   UNL     1       3.711  -0.707  -0.038  0.00  0.00    +0.091 C 
ATOM      2  C   UNL     1       4.077  -1.069  -1.480  0.00  0.00    +0.021 C 
ATOM      3  C   UNL     1       3.020  -2.021  -2.045  0.00  0.00    -0.075 C 
ATOM      4  N   UNL     1       2.970  -3.241  -1.230  0.00  0.00    +0.383 N 
ATOM      5  C   UNL     1       2.551  -2.911   0.137  0.00  0.00    -0.062 C 
ATOM      6  C   UNL     1       3.590  -1.993   0.785  0.00  0.00    +0.012 C 
ATOM      7  C   UNL     1       3.146  -1.647   2.208  0.00  0.00    +0.005 C 
ATOM      8  C   UNL     1       3.018  -2.931   3.029  0.00  0.00    +0.000 C 
ATOM      9  C   UNL     1       1.980  -3.849   2.381  0.00  0.00    -0.002 C 
ATOM     10  C   UNL     1       2.423  -4.195   0.958  0.00  0.00    -0.015 C 
ATOM     11  H   UNL     1       3.885  -3.666  -1.207  0.00  0.00    -0.081 HD
ENDROOT
BRANCH   1  15
ATOM     12  C   UNL     1      -0.015   1.380   0.012  0.00  0.00    +0.000 A 
ATOM     13  C   UNL     1       0.669   1.159   1.192  0.00  0.00    +0.000 A 
ATOM     14  C   UNL     1       1.875   0.484   1.176  0.00  0.00    +0.006 A 
ATOM     15  C   UNL     1       2.396   0.029  -0.020  0.00  0.00    -0.016 A 
ATOM     16  C   UNL     1       1.711   0.248  -1.201  0.00  0.00    +0.006 A 
ATOM     17  C   UNL     1       0.506   0.925  -1.185  0.00  0.00    +0.000 A 
ENDBRANCH   1  15
BRANCH   1  18
ATOM     18  O   UNL     1       4.731   0.123   0.522  0.00  0.00    -0.384 OA
ATOM     19  H   UNL     1       4.864   0.956   0.048  0.00  0.00    +0.211 HD
ENDBRANCH   1  18
BRANCH   4  20
ATOM     20  C   UNL     1       2.011  -4.184  -1.821  0.00  0.00    -0.063 C 
BRANCH  20  21
ATOM     21  C   UNL     1       2.516  -4.632  -3.194  0.00  0.00    +0.066 C 
ATOM     22  C   UNL     1       3.752  -5.498  -3.051  0.00  0.00    +0.115 C 
ATOM     23  N   UNL     1       3.442  -6.652  -3.547  0.00  0.00    -0.161 NA
ATOM     24  N   UNL     1       2.135  -6.694  -4.020  0.00  0.00    -0.153 NA
ATOM     25  C   UNL     1       1.512  -5.554  -3.858  0.00  0.00    +0.077 C 
BRANCH  25  26
ATOM     26  C   UNL     1       0.129  -5.232  -4.237  0.00  0.00    +0.002 A 
ATOM     27  C   UNL     1      -0.386  -3.954  -3.996  0.00  0.00    +0.013 A 
ATOM     28  C   UNL     1      -1.682  -3.655  -4.354  0.00  0.00    +0.050 A 
ATOM     29  C   UNL     1      -2.482  -4.619  -4.953  0.00  0.00    +0.166 A 
ATOM     30  C   UNL     1      -1.976  -5.897  -5.197  0.00  0.00    +0.167 A 
ATOM     31  C   UNL     1      -0.675  -6.202  -4.847  0.00  0.00    +0.059 A 
ATOM     32  O   UNL     1      -2.952  -6.647  -5.788  0.00  0.00    -0.453 OA
ATOM     33  C   UNL     1      -4.183  -5.946  -5.531  0.00  0.00    +0.466 C 
ATOM     34  O   UNL     1      -3.773  -4.573  -5.392  0.00  0.00    -0.453 OA
ENDBRANCH  25  26
ENDBRANCH  20  21
ENDBRANCH   4  20
TORSDOF 5
