REMARK  Name = ZINC14466956
REMARK  4 active torsions:
REMARK  status: ('A' for Active; 'I' for Inactive)
REMARK    1  A    between atoms: C_1  and  C_2
REMARK    2  A    between atoms: C_4  and  C_27
REMARK    3  A    between atoms: C_15  and  C_18
REMARK    4  A    between atoms: C_23  and  O_24
REMARK                            x       y       z     vdW  Elec       q    Type
REMARK                         _______ _______ _______ _____ _____    ______ ____
ROOT
ATOM      1  C   UNL     1      -6.748   3.524  -1.761  0.00  0.00    +0.044 C 
ATOM      2  C   UNL     1      -5.433   2.928  -2.192  0.00  0.00    -0.050 A 
ATOM      3  C   UNL     1      -5.156   2.754  -3.536  0.00  0.00    +0.008 A 
ATOM      4  C   UNL     1      -3.952   2.217  -3.932  0.00  0.00    -0.029 A 
ATOM      5  C   UNL     1      -2.993   1.838  -2.990  0.00  0.00    +0.034 A 
ATOM      6  C   UNL     1      -3.291   2.007  -1.636  0.00  0.00    -0.019 A 
ATOM      7  C   UNL     1      -4.497   2.553  -1.248  0.00  0.00    +0.009 A 
ATOM      8  C   UNL     1      -2.279   1.574  -0.647  0.00  0.00    +0.049 C 
ATOM      9  C   UNL     1      -2.140   2.205   0.687  0.00  0.00    -0.023 C 
ATOM     10  C   UNL     1      -0.861   2.152   1.048  0.00  0.00    -0.030 C 
ATOM     11  C   UNL     1      -0.034   1.500  -0.062  0.00  0.00    +0.033 C 
ATOM     12  C   UNL     1      -0.882   1.812  -1.300  0.00  0.00    +0.029 C 
ATOM     13  C   UNL     1      -0.832   0.839  -2.460  0.00  0.00    +0.109 C 
ATOM     14  N   UNL     1      -1.793   1.315  -3.467  0.00  0.00    -0.336 N 
ATOM     15  C   UNL     1      -3.665   2.035  -5.401  0.00  0.00    +0.045 C 
ATOM     16  H   UNL     1      -1.353   1.952  -4.114  0.00  0.00    +0.147 HD
ENDROOT
BRANCH  13  17
ATOM     17  C   UNL     1       0.556   0.810  -3.046  0.00  0.00    +0.017 A 
ATOM     18  C   UNL     1       0.890   1.666  -4.077  0.00  0.00    +0.029 A 
ATOM     19  C   UNL     1       2.163   1.640  -4.616  0.00  0.00    +0.043 A 
ATOM     20  C   UNL     1       3.107   0.756  -4.123  0.00  0.00    +0.043 A 
ATOM     21  C   UNL     1       2.778  -0.102  -3.091  0.00  0.00    +0.084 A 
ATOM     22  C   UNL     1       1.502  -0.073  -2.546  0.00  0.00    +0.140 A 
ATOM     23 CL   UNL     1       3.962  -1.211  -2.472  0.00  0.00    -0.080 Cl
ATOM     24 CL   UNL     1       2.579   2.717  -5.913  0.00  0.00    -0.083 Cl
BRANCH  22  25
ATOM     25  O   UNL     1       1.177  -0.913  -1.527  0.00  0.00    -0.505 OA
ATOM     26  H   UNL     1       0.824  -1.765  -1.817  0.00  0.00    +0.292 HD
ENDBRANCH  22  25
ENDBRANCH  13  17
TORSDOF 2
