REMARK  Name = ZINC05648019
REMARK  4 active torsions:
REMARK  status: ('A' for Active; 'I' for Inactive)
REMARK    1  A    between atoms: C_4  and  N_7
REMARK    2  A    between atoms: C_11  and  N_12
REMARK    3  A    between atoms: N_12  and  C_13
REMARK    4  A    between atoms: C_14  and  C_21
REMARK                            x       y       z     vdW  Elec       q    Type
REMARK                         _______ _______ _______ _____ _____    ______ ____
ROOT
ATOM      1  N   UNL     1       2.359   3.885  -0.080  0.00  0.00    -0.190 N 
ATOM      2  C   UNL     1       2.323   5.231  -0.172  0.00  0.00    +0.265 C 
ATOM      3  O   UNL     1       1.266   5.821  -0.294  0.00  0.00    -0.269 OA
ATOM      4  C   UNL     1       3.598   5.967  -0.115  0.00  0.00    +0.113 C 
ATOM      5  C   UNL     1       3.639   7.347  -0.198  0.00  0.00    +0.091 C 
ATOM      6  C   UNL     1       4.828   5.168   0.028  0.00  0.00    +0.258 C 
ATOM      7  O   UNL     1       5.919   5.705   0.078  0.00  0.00    -0.270 OA
ATOM      8  N   UNL     1       4.712   3.826   0.102  0.00  0.00    -0.235 N 
ATOM      9  C   UNL     1       3.517   3.223   0.049  0.00  0.00    +0.320 C 
ATOM     10  O   UNL     1       3.481   2.010   0.121  0.00  0.00    -0.251 OA
ATOM     11  H   UNL     1       5.611   3.202   0.209  0.00  0.00    +0.159 HD
ENDROOT
BRANCH   1  15
ATOM     12  C   UNL     1      -1.209   1.734  -0.215  0.00  0.00    +0.000 A 
ATOM     13  C   UNL     1      -0.951   2.576   0.851  0.00  0.00    +0.002 A 
ATOM     14  C   UNL     1       0.231   3.288   0.900  0.00  0.00    +0.024 A 
ATOM     15  C   UNL     1       1.158   3.164  -0.127  0.00  0.00    +0.046 A 
ATOM     16  C   UNL     1       0.894   2.322  -1.199  0.00  0.00    +0.024 A 
ATOM     17  C   UNL     1      -0.290   1.612  -1.241  0.00  0.00    +0.002 A 
ENDBRANCH   1  15
BRANCH   5  18
ATOM     18  N   UNL     1       2.491   8.058  -0.185  0.00  0.00    -0.313 N 
ATOM     19  H   UNL     1       1.531   7.550  -0.017  0.00  0.00    +0.152 HD
BRANCH  18  20
ATOM     20  C   UNL     1       2.524   9.429  -0.385  0.00  0.00    +0.087 A 
ATOM     21  C   UNL     1       1.464  10.320  -0.412  0.00  0.00    +0.084 A 
ATOM     22  C   UNL     1       1.771  11.730  -0.639  0.00  0.00    -0.018 A 
ATOM     23  C   UNL     1       3.077  12.011  -0.808  0.00  0.00    -0.004 A 
ATOM     24  S   UNL     1       3.898  10.443  -0.666  0.00  0.00    -0.077 S 
ATOM     25  C   UNL     1       3.312  13.479  -1.039  0.00  0.00    +0.043 C 
ATOM     26  C   UNL     1       2.011  14.162  -0.562  0.00  0.00    +0.010 C 
ATOM     27  C   UNL     1       0.978  13.033  -0.748  0.00  0.00    +0.037 C 
BRANCH  21  28
ATOM     28  C   UNL     1       0.117   9.875  -0.222  0.00  0.00    +0.102 C 
ATOM     29  N   UNL     1      -0.953   9.522  -0.071  0.00  0.00    -0.191 NA
ENDBRANCH  21  28
ENDBRANCH  18  20
ENDBRANCH   5  18
TORSDOF 4
