REMARK  Name = ZINC08767865
REMARK  3 active torsions:
REMARK  status: ('A' for Active; 'I' for Inactive)
REMARK    1  A    between atoms: C_6  and  C_7
REMARK    2  A    between atoms: C_13  and  C_15
REMARK    3  A    between atoms: C_15  and  N_16
REMARK                            x       y       z     vdW  Elec       q    Type
REMARK                         _______ _______ _______ _____ _____    ______ ____
ROOT
ATOM      1  C   UNL     1       1.144   3.595   0.012  0.00  0.00    +0.106 C 
ATOM      2  C   UNL     1       0.815   4.123  -1.400  0.00  0.00    +0.029 C 
ATOM      3  C   UNL     1      -0.104   5.339  -1.111  0.00  0.00    +0.021 C 
ATOM      4  C   UNL     1      -0.892   4.845   0.128  0.00  0.00    +0.108 C 
ATOM      5  N   UNL     1       0.086   4.071   0.914  0.00  0.00    -0.293 N 
ATOM      6  C   UNL     1       0.021   3.839   2.240  0.00  0.00    +0.234 C 
ATOM      7  O   UNL     1       0.885   3.186   2.784  0.00  0.00    -0.274 OA
ENDROOT
BRANCH   1  13
ATOM      8  C   UNL     1      -0.017   1.378   0.010  0.00  0.00    +0.009 A 
ATOM      9  C   UNL     1       0.002  -0.004   0.002  0.00  0.00    +0.050 A 
ATOM     10  C   UNL     1       1.211  -0.682  -0.014  0.00  0.00    +0.162 A 
ATOM     11  C   UNL     1       2.404   0.031  -0.024  0.00  0.00    +0.162 A 
ATOM     12  C   UNL     1       2.378   1.418  -0.014  0.00  0.00    +0.055 A 
ATOM     13  C   UNL     1       1.169   2.088   0.002  0.00  0.00    -0.023 A 
ATOM     14  O   UNL     1       3.602  -0.614  -0.044  0.00  0.00    -0.485 OA
ATOM     15  C   UNL     1       3.594  -1.998   0.325  0.00  0.00    +0.270 C 
ATOM     16  C   UNL     1       2.433  -2.684  -0.409  0.00  0.00    +0.270 C 
ATOM     17  O   UNL     1       1.214  -2.043  -0.018  0.00  0.00    -0.485 OA
ENDBRANCH   1  13
BRANCH   6  18
ATOM     18  C   UNL     1      -1.126   4.392   3.046  0.00  0.00    +0.213 C 
BRANCH  18  19
ATOM     19  N   UNL     1      -0.968   4.004   4.449  0.00  0.00    -0.215 N 
ATOM     20  C   UNL     1      -0.297   4.745   5.368  0.00  0.00    +0.247 C 
ATOM     21  O   UNL     1       0.099   5.869   5.193  0.00  0.00    -0.273 OA
ATOM     22  C   UNL     1      -0.201   3.842   6.570  0.00  0.00    +0.113 C 
ATOM     23  C   UNL     1      -0.652   4.648   7.799  0.00  0.00    +0.035 C 
ATOM     24  C   UNL     1       0.530   5.423   8.385  0.00  0.00    +0.003 C 
ATOM     25  C   UNL     1       0.903   6.612   7.521  0.00  0.00    +0.000 C 
ATOM     26  C   UNL     1       2.139   6.445   6.660  0.00  0.00    +0.000 C 
ATOM     27  C   UNL     1       2.876   5.128   6.809  0.00  0.00    +0.000 C 
ATOM     28  C   UNL     1       2.234   4.020   5.961  0.00  0.00    +0.003 C 
ATOM     29  C   UNL     1       1.200   3.325   6.840  0.00  0.00    +0.035 C 
ATOM     30  N   UNL     1      -1.134   2.751   6.286  0.00  0.00    -0.285 N 
ATOM     31  C   UNL     1      -1.483   2.894   4.991  0.00  0.00    +0.310 C 
ATOM     32  O   UNL     1      -2.183   2.105   4.388  0.00  0.00    -0.252 OA
ATOM     33  H   UNL     1      -1.442   2.066   6.898  0.00  0.00    +0.151 HD
ENDBRANCH  18  19
ENDBRANCH   6  18
TORSDOF 3
