REMARK  Name = ZINC00891981
REMARK  7 active torsions:
REMARK  status: ('A' for Active; 'I' for Inactive)
REMARK    1  A    between atoms: C_1  and  C_2
REMARK    2  A    between atoms: C_3  and  C_27
REMARK    3  A    between atoms: C_4  and  C_12
REMARK    4  A    between atoms: C_6  and  C_10
REMARK    5  A    between atoms: C_7  and  N_9
REMARK    6  A    between atoms: C_27  and  O_29
REMARK    7  A    between atoms: O_29  and  C_30
REMARK                            x       y       z     vdW  Elec       q    Type
REMARK                         _______ _______ _______ _____ _____    ______ ____
ROOT
ATOM      1  C   UNL     1       6.250   0.922  -2.488  0.00  0.00    +0.087 C 
ATOM      2  C   UNL     1       5.491   1.188  -1.214  0.00  0.00    +0.115 C 
ATOM      3  C   UNL     1       4.394   1.954  -1.262  0.00  0.00    +0.087 C 
ATOM      4  C   UNL     1       3.599   2.253  -0.020  0.00  0.00    +0.107 C 
ATOM      5  C   UNL     1       4.421   1.934   1.199  0.00  0.00    +0.098 C 
ATOM      6  C   UNL     1       5.530   1.161   1.104  0.00  0.00    +0.198 C 
ATOM      7  O   UNL     1       5.938   0.649  -0.070  0.00  0.00    -0.445 OA
ENDROOT
BRANCH   4   8
ATOM      8  C   UNL     1       2.346   1.415  -0.013  0.00  0.00    +0.003 A 
ATOM      9  C   UNL     1       2.435   0.052  -0.022  0.00  0.00    +0.017 A 
ATOM     10  C   UNL     1       1.241  -0.692  -0.014  0.00  0.00    +0.004 A 
ATOM     11  C   UNL     1       1.256  -2.096  -0.022  0.00  0.00    +0.059 A 
ATOM     12  C   UNL     1       0.079  -2.789  -0.014  0.00  0.00    +0.163 A 
ATOM     13  C   UNL     1      -1.149  -2.110   0.005  0.00  0.00    +0.164 A 
ATOM     14  C   UNL     1      -1.191  -0.744   0.011  0.00  0.00    +0.077 A 
ATOM     15  C   UNL     1       0.002  -0.004   0.002  0.00  0.00    +0.076 A 
ATOM     16  N   UNL     1      -0.016   1.333   0.009  0.00  0.00    -0.235 NA
ATOM     17  C   UNL     1       1.096   2.030   0.003  0.00  0.00    +0.134 A 
ATOM     18 CL   UNL     1       1.007   3.764   0.013  0.00  0.00    -0.062 Cl
ATOM     19  O   UNL     1      -2.322  -2.803   0.019  0.00  0.00    -0.485 OA
ATOM     20  C   UNL     1      -2.262  -4.179  -0.367  0.00  0.00    +0.270 C 
ATOM     21  C   UNL     1      -1.079  -4.832   0.361  0.00  0.00    +0.270 C 
ATOM     22  O   UNL     1       0.118  -4.151  -0.027  0.00  0.00    -0.485 OA
ENDBRANCH   4   8
BRANCH   6  23
ATOM     23  N   UNL     1       6.256   0.893   2.238  0.00  0.00    -0.328 N 
ATOM     24  H   UNL     1       5.973   1.256   3.092  0.00  0.00    +0.145 HD
ATOM     25  H   UNL     1       7.052   0.341   2.185  0.00  0.00    +0.145 HD
ENDBRANCH   6  23
BRANCH   5  26
ATOM     26  C   UNL     1       4.027   2.453   2.474  0.00  0.00    +0.101 C 
ATOM     27  N   UNL     1       3.715   2.865   3.486  0.00  0.00    -0.191 NA
ENDBRANCH   5  26
BRANCH   3  28
ATOM     28  C   UNL     1       3.975   2.491  -2.504  0.00  0.00    +0.339 C 
ATOM     29  O   UNL     1       4.610   2.256  -3.514  0.00  0.00    -0.245 OA
BRANCH  28  30
ATOM     30  O   UNL     1       2.871   3.265  -2.566  0.00  0.00    -0.465 OA
ATOM     31  C   UNL     1       2.507   3.773  -3.850  0.00  0.00    +0.280 C 
ENDBRANCH  28  30
ENDBRANCH   3  28
TORSDOF 5
