REMARK  Name = ZINC40247223
REMARK  6 active torsions:
REMARK  status: ('A' for Active; 'I' for Inactive)
REMARK    1  A    between atoms: C_1  and  C_2
REMARK    2  A    between atoms: C_4  and  C_22
REMARK    3  A    between atoms: C_5  and  C_9
REMARK    4  A    between atoms: C_6  and  C_8
REMARK    5  A    between atoms: C_9  and  C_11
REMARK    6  A    between atoms: C_9  and  O_21
REMARK                            x       y       z     vdW  Elec       q    Type
REMARK                         _______ _______ _______ _____ _____    ______ ____
ROOT
ATOM      1  C   UNL     1      -0.341  -4.922   1.159  0.00  0.00    +0.175 C 
ENDROOT
BRANCH   1   2
ATOM      2  C   UNL     1      -1.759  -5.052   1.654  0.00  0.00    -0.011 A 
ATOM      3  C   UNL     1      -2.080  -4.658   2.939  0.00  0.00    +0.010 A 
ATOM      4  C   UNL     1      -3.379  -4.776   3.397  0.00  0.00    +0.050 A 
ATOM      5  C   UNL     1      -4.364  -5.291   2.567  0.00  0.00    +0.162 A 
ATOM      6  C   UNL     1      -4.041  -5.685   1.274  0.00  0.00    +0.162 A 
ATOM      7  C   UNL     1      -2.737  -5.559   0.820  0.00  0.00    +0.056 A 
ATOM      8  O   UNL     1      -4.994  -6.185   0.440  0.00  0.00    -0.485 OA
ATOM      9  C   UNL     1      -6.209  -6.637   1.048  0.00  0.00    +0.270 C 
ATOM     10  C   UNL     1      -6.668  -5.572   2.053  0.00  0.00    +0.270 C 
ATOM     11  O   UNL     1      -5.638  -5.405   3.033  0.00  0.00    -0.485 OA
ENDBRANCH   1   2
BRANCH   1  16
ATOM     12  C   UNL     1       1.154   0.658   1.030  0.00  0.00    +0.044 C 
ATOM     13  C   UNL     1       0.764  -0.797   1.064  0.00  0.00    -0.050 A 
ATOM     14  C   UNL     1       1.655  -1.741   1.539  0.00  0.00    +0.007 A 
ATOM     15  C   UNL     1       1.298  -3.076   1.570  0.00  0.00    -0.044 A 
ATOM     16  C   UNL     1       0.048  -3.467   1.127  0.00  0.00    -0.009 A 
ATOM     17  C   UNL     1      -0.844  -2.523   0.652  0.00  0.00    -0.044 A 
ATOM     18  C   UNL     1      -0.488  -1.188   0.625  0.00  0.00    +0.007 A 
ATOM     19  C   UNL     1      -2.206  -2.950   0.169  0.00  0.00    +0.044 C 
ATOM     20  C   UNL     1       2.270  -4.104   2.087  0.00  0.00    +0.044 C 
ENDBRANCH   1  16
BRANCH   1  21
ATOM     21  O   UNL     1       0.536  -5.631   2.038  0.00  0.00    -0.383 OA
ATOM     22  H   UNL     1       0.416  -5.413   2.972  0.00  0.00    +0.211 HD
ENDBRANCH   1  21
TORSDOF 3
