REMARK  Name = ZINC21449697
REMARK  10 active torsions:
REMARK  status: ('A' for Active; 'I' for Inactive)
REMARK    1  A    between atoms: C_1  and  C_2
REMARK    2  A    between atoms: C_2  and  C_3
REMARK    3  A    between atoms: C_3  and  N_4
REMARK    4  A    between atoms: N_4  and  S_5
REMARK    5  A    between atoms: S_5  and  C_8
REMARK    6  A    between atoms: C_11  and  N_14
REMARK    7  A    between atoms: C_15  and  C_17
REMARK    8  A    between atoms: C_23  and  C_25
REMARK    9  A    between atoms: N_30  and  C_32
REMARK   10  A    between atoms: C_35  and  C_38
REMARK                            x       y       z     vdW  Elec       q    Type
REMARK                         _______ _______ _______ _____ _____    ______ ____
ROOT
ATOM      1  C   UNL     1      -1.137  -2.203   0.226  0.00  0.00    +0.078 C 
ATOM      2  C   UNL     1      -0.478  -2.781  -1.029  0.00  0.00    +0.032 C 
ATOM      3  C   UNL     1      -0.405  -4.306  -0.905  0.00  0.00    +0.108 C 
ATOM      4  N   UNL     1      -1.754  -4.824  -0.640  0.00  0.00    -0.301 N 
ATOM      5  C   UNL     1      -2.514  -4.270   0.489  0.00  0.00    +0.108 C 
ATOM      6  C   UNL     1      -2.562  -2.745   0.351  0.00  0.00    +0.032 C 
ATOM      7  C   UNL     1      -2.285  -5.788  -1.417  0.00  0.00    +0.221 C 
ATOM      8  O   UNL     1      -3.400  -6.207  -1.188  0.00  0.00    -0.275 OA
ENDROOT
BRANCH   7   9
ATOM      9  C   UNL     1      -1.494  -6.346  -2.572  0.00  0.00    +0.102 C 
ATOM     10  C   UNL     1      -0.190  -7.014  -2.078  0.00  0.00    +0.110 C 
ATOM     11  C   UNL     1      -0.023  -8.215  -2.982  0.00  0.00    +0.221 C 
ATOM     12  O   UNL     1       1.005  -8.845  -3.117  0.00  0.00    -0.275 OA
ATOM     13  N   UNL     1      -1.178  -8.483  -3.614  0.00  0.00    -0.271 N 
ATOM     14  C   UNL     1      -2.231  -7.538  -3.223  0.00  0.00    +0.127 C 
BRANCH  13  15
ATOM     15  C   UNL     1      -1.355  -9.527  -4.528  0.00  0.00    +0.036 A 
ATOM     16  C   UNL     1      -0.331 -10.438  -4.750  0.00  0.00    +0.024 A 
ATOM     17  C   UNL     1      -0.510 -11.471  -5.650  0.00  0.00    +0.005 A 
ATOM     18  C   UNL     1      -1.704 -11.592  -6.337  0.00  0.00    -0.050 A 
ATOM     19  C   UNL     1      -2.724 -10.684  -6.122  0.00  0.00    +0.005 A 
ATOM     20  C   UNL     1      -2.553  -9.652  -5.220  0.00  0.00    +0.024 A 
ATOM     21  C   UNL     1      -1.893 -12.716  -7.322  0.00  0.00    +0.044 C 
ENDBRANCH  13  15
ENDBRANCH   7   9
BRANCH   1  23
ATOM     22  N   UNL     1      -0.033  -0.000   0.004  0.00  0.00    -0.285 N 
ATOM     23  C   UNL     1      -1.179  -0.700   0.123  0.00  0.00    +0.220 C 
ATOM     24  O   UNL     1      -2.244  -0.120   0.147  0.00  0.00    -0.275 OA
ATOM     25  H   UNL     1       0.926  -0.529  -0.105  0.00  0.00    +0.155 HD
BRANCH  22  29
ATOM     26  C   UNL     1      -0.120   4.165   0.052  0.00  0.00    +0.105 A 
ATOM     27  C   UNL     1      -1.032   3.447   0.805  0.00  0.00    +0.030 A 
ATOM     28  C   UNL     1      -1.005   2.066   0.791  0.00  0.00    +0.025 A 
ATOM     29  C   UNL     1      -0.062   1.399   0.021  0.00  0.00    +0.034 A 
ATOM     30  C   UNL     1       0.855   2.122  -0.730  0.00  0.00    +0.025 A 
ATOM     31  C   UNL     1       0.820   3.503  -0.716  0.00  0.00    +0.030 A 
BRANCH  26  32
ATOM     32  S   UNL     1      -0.157   5.926   0.073  0.00  0.00    +0.058 S 
ATOM     33  O   UNL     1       0.448   6.359  -1.137  0.00  0.00    -0.153 OA
ATOM     34  O   UNL     1      -1.476   6.301   0.443  0.00  0.00    -0.153 OA
BRANCH  32  35
ATOM     35  N   UNL     1       0.837   6.422   1.302  0.00  0.00    -0.190 NA
ATOM     36  H   UNL     1       0.392   6.799   2.235  0.00  0.00    +0.148 HD
BRANCH  35  37
ATOM     37  C   UNL     1       2.276   6.157   1.232  0.00  0.00    +0.105 C 
BRANCH  37  39
ATOM     38  C   UNL     1       4.508   6.741   2.193  0.00  0.00    +0.005 C 
ATOM     39  C   UNL     1       3.005   7.018   2.266  0.00  0.00    +0.013 C 
ENDBRANCH  37  39
ENDBRANCH  35  37
ENDBRANCH  32  35
ENDBRANCH  26  32
ENDBRANCH  22  29
ENDBRANCH   1  23
TORSDOF 8
