REMARK  Name = ZINC14727551
REMARK  13 active torsions:
REMARK  status: ('A' for Active; 'I' for Inactive)
REMARK    1  A    between atoms: C_1  and  C_2
REMARK    2  A    between atoms: C_2  and  C_32
REMARK    3  A    between atoms: C_3  and  C_4
REMARK    4  A    between atoms: C_4  and  C_5
REMARK    5  A    between atoms: C_6  and  O_31
REMARK    6  A    between atoms: C_7  and  C_26
REMARK    7  A    between atoms: C_10  and  O_11
REMARK    8  A    between atoms: C_15  and  C_18
REMARK    9  A    between atoms: C_20  and  O_25
REMARK   10  A    between atoms: C_22  and  O_24
REMARK   11  A    between atoms: C_26  and  C_27
REMARK   12  A    between atoms: C_28  and  C_29
REMARK   13  A    between atoms: C_28  and  C_30
REMARK                            x       y       z     vdW  Elec       q    Type
REMARK                         _______ _______ _______ _____ _____    ______ ____
ROOT
ATOM      1  C   UNL     1      -1.830   7.306  -1.861  0.00  0.00    +0.040 A 
ATOM      2  C   UNL     1      -2.120   7.705  -0.562  0.00  0.00    +0.131 A 
ATOM      3  C   UNL     1      -1.303   7.325   0.495  0.00  0.00    +0.041 A 
ATOM      4  C   UNL     1      -0.186   6.542   0.265  0.00  0.00    +0.142 A 
ATOM      5  C   UNL     1       0.107   6.130  -1.048  0.00  0.00    +0.101 A 
ATOM      6  C   UNL     1      -0.720   6.521  -2.113  0.00  0.00    +0.138 A 
ATOM      7  C   UNL     1       1.284   5.287  -1.285  0.00  0.00    +0.174 C 
ATOM      8  O   UNL     1       1.464   4.725  -2.345  0.00  0.00    -0.292 OA
ATOM      9  C   UNL     1       2.267   5.154  -0.135  0.00  0.00    +0.129 C 
ATOM     10  C   UNL     1       1.444   5.033   1.156  0.00  0.00    +0.211 C 
ATOM     11  O   UNL     1       0.614   6.185   1.298  0.00  0.00    -0.483 OA
ENDROOT
BRANCH  10  12
ATOM     12  C   UNL     1       2.374   4.933   2.338  0.00  0.00    -0.000 A 
ATOM     13  C   UNL     1       2.879   6.081   2.917  0.00  0.00    +0.053 A 
ATOM     14  C   UNL     1       3.731   5.992   4.009  0.00  0.00    +0.121 A 
ATOM     15  C   UNL     1       4.085   4.749   4.511  0.00  0.00    +0.090 A 
ATOM     16  C   UNL     1       3.582   3.598   3.924  0.00  0.00    +0.121 A 
ATOM     17  C   UNL     1       2.726   3.693   2.836  0.00  0.00    +0.053 A 
BRANCH  16  18
ATOM     18  O   UNL     1       3.927   2.378   4.414  0.00  0.00    -0.507 OA
ATOM     19  H   UNL     1       4.719   2.001   4.009  0.00  0.00    +0.292 HD
ENDBRANCH  16  18
BRANCH  14  20
ATOM     20  O   UNL     1       4.223   7.122   4.582  0.00  0.00    -0.507 OA
ATOM     21  H   UNL     1       5.058   7.425   4.200  0.00  0.00    +0.292 HD
ENDBRANCH  14  20
ENDBRANCH  10  12
BRANCH   6  22
ATOM     22  O   UNL     1      -0.432   6.131  -3.380  0.00  0.00    -0.506 OA
ATOM     23  H   UNL     1      -0.838   5.291  -3.635  0.00  0.00    +0.292 HD
ENDBRANCH   6  22
BRANCH   2  24
ATOM     24  O   UNL     1      -3.213   8.473  -0.323  0.00  0.00    -0.506 OA
ATOM     25  H   UNL     1      -4.016   7.967  -0.139  0.00  0.00    +0.292 HD
ENDBRANCH   2  24
BRANCH   1  26
ATOM     26  C   UNL     1      -2.726   7.729  -2.996  0.00  0.00    +0.069 C 
BRANCH  26  29
ATOM     27  C   UNL     1      -5.426   8.530  -3.114  0.00  0.00    +0.038 C 
ATOM     28  C   UNL     1      -5.068   7.069  -3.201  0.00  0.00    -0.079 C 
ATOM     29  C   UNL     1      -3.810   6.701  -3.191  0.00  0.00    -0.023 C 
ATOM     30  C   UNL     1      -6.155   6.030  -3.299  0.00  0.00    +0.038 C 
ENDBRANCH  26  29
ENDBRANCH   1  26
BRANCH   3  31
ATOM     31  C   UNL     1      -1.634   7.768   1.897  0.00  0.00    +0.069 C 
BRANCH  31  32
ATOM     32  C   UNL     1      -2.527   6.745   2.550  0.00  0.00    -0.023 C 
ATOM     33  C   UNL     1      -2.165   6.181   3.675  0.00  0.00    -0.079 C 
ATOM     34  C   UNL     1      -0.811   6.481   4.266  0.00  0.00    +0.038 C 
ATOM     35  C   UNL     1      -3.101   5.233   4.379  0.00  0.00    +0.038 C 
ENDBRANCH  31  32
ENDBRANCH   3  31
TORSDOF 9
