REMARK  Name = ZINC11859188
REMARK  9 active torsions:
REMARK  status: ('A' for Active; 'I' for Inactive)
REMARK    1  A    between atoms: C_1  and  C_2
REMARK    2  A    between atoms: C_2  and  O_3
REMARK    3  A    between atoms: O_3  and  C_4
REMARK    4  A    between atoms: C_4  and  C_6
REMARK    5  A    between atoms: C_8  and  C_20
REMARK    6  A    between atoms: C_14  and  C_15
REMARK    7  A    between atoms: C_14  and  O_19
REMARK    8  A    between atoms: N_22  and  C_31
REMARK    9  A    between atoms: C_24  and  C_25
REMARK                            x       y       z     vdW  Elec       q    Type
REMARK                         _______ _______ _______ _____ _____    ______ ____
ROOT
ATOM      1  C   UNL     1      -1.460  -1.028   0.436  0.00  0.00    +0.181 C 
ATOM      2  C   UNL     1      -0.836  -2.316  -0.111  0.00  0.00    +0.127 C 
ATOM      3  N   UNL     1      -1.893  -3.301  -0.345  0.00  0.00    -0.291 N 
ATOM      4  C   UNL     1      -3.143  -2.923  -0.652  0.00  0.00    +0.302 C 
ATOM      5  O   UNL     1      -3.981  -3.782  -0.847  0.00  0.00    -0.253 OA
ATOM      6  N   UNL     1      -3.504  -1.635  -0.754  0.00  0.00    -0.264 N 
ATOM      7  C   UNL     1      -2.539  -0.555  -0.544  0.00  0.00    +0.246 C 
ATOM      8  H   UNL     1      -1.686  -4.246  -0.276  0.00  0.00    +0.151 HD
ATOM      9  H   UNL     1      -4.423  -1.415  -0.972  0.00  0.00    +0.153 HD
ENDROOT
BRANCH   2  10
ATOM     10  C   UNL     1       0.149  -2.863   0.890  0.00  0.00    +0.019 A 
ATOM     11  C   UNL     1      -0.136  -3.707   1.906  0.00  0.00    +0.120 A 
ATOM     12  N   UNL     1       1.021  -3.963   2.572  0.00  0.00    -0.239 N 
ATOM     13  N   UNL     1       2.048  -3.243   1.948  0.00  0.00    -0.166 NA
ATOM     14  C   UNL     1       1.528  -2.580   0.936  0.00  0.00    +0.098 A 
BRANCH  14  15
ATOM     15  C   UNL     1       2.266  -1.689   0.007  0.00  0.00    +0.002 A 
ATOM     16  C   UNL     1       2.005  -1.734  -1.361  0.00  0.00    +0.010 A 
ATOM     17  C   UNL     1       2.691  -0.900  -2.220  0.00  0.00    +0.001 A 
ATOM     18  C   UNL     1       3.644  -0.027  -1.726  0.00  0.00    +0.000 A 
ATOM     19  C   UNL     1       3.911   0.018  -0.370  0.00  0.00    +0.001 A 
ATOM     20  C   UNL     1       3.227  -0.807   0.499  0.00  0.00    +0.010 A 
ENDBRANCH  14  15
BRANCH  12  21
ATOM     21  C   UNL     1       1.161  -4.796   3.690  0.00  0.00    +0.065 A 
ATOM     22  C   UNL     1       0.053  -5.449   4.213  0.00  0.00    +0.028 A 
ATOM     23  C   UNL     1       0.195  -6.274   5.312  0.00  0.00    +0.002 A 
ATOM     24  C   UNL     1       1.436  -6.440   5.898  0.00  0.00    +0.000 A 
ATOM     25  C   UNL     1       2.540  -5.786   5.382  0.00  0.00    +0.002 A 
ATOM     26  C   UNL     1       2.406  -4.965   4.280  0.00  0.00    +0.028 A 
ENDBRANCH  12  21
ENDBRANCH   2  10
BRANCH   7  27
ATOM     27  C   UNL     1      -3.257   0.666   0.036  0.00  0.00    +0.436 C 
ATOM     28  F   UNL     1      -2.355   1.730   0.141  0.00  0.00    -0.166 F 
ATOM     29  F   UNL     1      -4.312   1.030  -0.806  0.00  0.00    -0.166 F 
ATOM     30  F   UNL     1      -3.758   0.353   1.304  0.00  0.00    -0.166 F 
ENDBRANCH   7  27
BRANCH   1  31
ATOM     31  C   UNL     1      -0.398   0.032   0.570  0.00  0.00    +0.317 C 
ATOM     32  O   UNL     1       0.178   0.438  -0.411  0.00  0.00    -0.250 OA
BRANCH  31  33
ATOM     33  O   UNL     1      -0.091   0.525   1.780  0.00  0.00    -0.465 OA
BRANCH  33  35
ATOM     34  C   UNL     1       1.152   1.982   3.285  0.00  0.00    +0.048 C 
ATOM     35  C   UNL     1       0.942   1.544   1.834  0.00  0.00    +0.229 C 
ENDBRANCH  33  35
ENDBRANCH  31  33
ENDBRANCH   1  31
BRANCH   7  36
ATOM     36  O   UNL     1      -1.933  -0.205  -1.789  0.00  0.00    -0.364 OA
ATOM     37  H   UNL     1      -2.558   0.104  -2.458  0.00  0.00    +0.212 HD
ENDBRANCH   7  36
TORSDOF 8
