REMARK  Name = ZINC02238342
REMARK  10 active torsions:
REMARK  status: ('A' for Active; 'I' for Inactive)
REMARK    1  A    between atoms: C_1  and  C_2
REMARK    2  A    between atoms: C_2  and  O_3
REMARK    3  A    between atoms: O_3  and  C_4
REMARK    4  A    between atoms: C_4  and  C_6
REMARK    5  A    between atoms: C_7  and  C_31
REMARK    6  A    between atoms: C_8  and  C_30
REMARK    7  A    between atoms: C_10  and  N_11
REMARK    8  A    between atoms: C_12  and  C_14
REMARK    9  A    between atoms: C_14  and  S_15
REMARK   10  A    between atoms: S_15  and  C_16
REMARK                            x       y       z     vdW  Elec       q    Type
REMARK                         _______ _______ _______ _____ _____    ______ ____
ROOT
ATOM      1  C   UNL     1      -0.789   3.967  -0.557  0.00  0.00    +0.173 C 
ENDROOT
BRANCH   1   3
ATOM      2  N   UNL     1      -2.405   5.808  -0.903  0.00  0.00    -0.279 N 
ATOM      3  C   UNL     1      -1.121   5.422  -0.764  0.00  0.00    +0.228 C 
ATOM      4  O   UNL     1      -0.232   6.247  -0.806  0.00  0.00    -0.275 OA
ATOM      5  H   UNL     1      -3.115   5.148  -0.870  0.00  0.00    +0.155 HD
BRANCH   2  10
ATOM      6  C   UNL     1      -3.960   7.733  -1.257  0.00  0.00    +0.091 A 
ATOM      7  C   UNL     1      -3.986   9.165  -1.440  0.00  0.00    -0.025 A 
ATOM      8  C   UNL     1      -2.804   9.806  -1.438  0.00  0.00    -0.008 A 
ATOM      9  S   UNL     1      -1.627   8.495  -1.181  0.00  0.00    -0.078 S 
ATOM     10  C   UNL     1      -2.710   7.146  -1.095  0.00  0.00    +0.086 A 
ATOM     11  C   UNL     1      -2.540  11.280  -1.606  0.00  0.00    +0.052 C 
ATOM     12  C   UNL     1      -5.283   9.909  -1.626  0.00  0.00    +0.045 C 
BRANCH   6  13
ATOM     13  C   UNL     1      -5.190   6.937  -1.243  0.00  0.00    +0.342 C 
ATOM     14  O   UNL     1      -5.774   6.739  -0.194  0.00  0.00    -0.245 OA
BRANCH  13  15
ATOM     15  O   UNL     1      -5.674   6.425  -2.392  0.00  0.00    -0.461 OA
BRANCH  15  17
ATOM     16  C   UNL     1      -7.289   5.152  -3.697  0.00  0.00    +0.048 C 
ATOM     17  C   UNL     1      -6.897   5.646  -2.303  0.00  0.00    +0.229 C 
ENDBRANCH  15  17
ENDBRANCH  13  15
ENDBRANCH   6  13
ENDBRANCH   2  10
ENDBRANCH   1   3
BRANCH   1  18
ATOM     18  S   UNL     1       1.004   3.772  -0.406  0.00  0.00    -0.077 S 
BRANCH  18  19
ATOM     19  C   UNL     1       1.105   2.028  -0.178  0.00  0.00    +0.191 A 
ATOM     20  N   UNL     1      -0.011   1.307  -0.165  0.00  0.00    -0.207 NA
ATOM     21  C   UNL     1       0.002  -0.004   0.002  0.00  0.00    +0.129 A 
ATOM     22  C   UNL     1       1.247  -0.671   0.174  0.00  0.00    +0.051 A 
ATOM     23  C   UNL     1       1.500  -2.100   0.374  0.00  0.00    -0.025 A 
ATOM     24  C   UNL     1       2.786  -2.481   0.512  0.00  0.00    -0.004 A 
ATOM     25  S   UNL     1       3.727  -0.983   0.388  0.00  0.00    -0.073 S 
ATOM     26  C   UNL     1       2.388   0.155   0.149  0.00  0.00    +0.115 A 
ATOM     27  N   UNL     1       2.293   1.460  -0.022  0.00  0.00    -0.214 NA
ATOM     28  C   UNL     1       3.304  -3.870   0.726  0.00  0.00    +0.043 C 
ATOM     29  C   UNL     1       2.128  -4.768   1.137  0.00  0.00    +0.005 C 
ATOM     30  C   UNL     1       0.961  -4.518   0.178  0.00  0.00    +0.005 C 
ATOM     31  C   UNL     1       0.373  -3.129   0.425  0.00  0.00    +0.037 C 
ATOM     32  N   UNL     1      -1.181  -0.720   0.009  0.00  0.00    -0.343 N 
ATOM     33  H   UNL     1      -1.994  -0.317  -0.337  0.00  0.00    +0.144 HD
ATOM     34  H   UNL     1      -1.200  -1.624   0.359  0.00  0.00    +0.144 HD
ENDBRANCH  18  19
ENDBRANCH   1  18
TORSDOF 7
