REMARK  Name = ZINC04150013
REMARK  8 active torsions:
REMARK  status: ('A' for Active; 'I' for Inactive)
REMARK    1  A    between atoms: C_1  and  C_2
REMARK    2  A    between atoms: N_9  and  S_10
REMARK    3  A    between atoms: S_10  and  C_13
REMARK    4  A    between atoms: C_21  and  C_41
REMARK    5  A    between atoms: C_24  and  O_40
REMARK    6  A    between atoms: C_26  and  C_30
REMARK    7  A    between atoms: C_30  and  C_32
REMARK    8  A    between atoms: C_30  and  C_33
REMARK                            x       y       z     vdW  Elec       q    Type
REMARK                         _______ _______ _______ _____ _____    ______ ____
ROOT
ATOM      1  C   UNL     1      -1.041   5.969  -6.611  0.00  0.00    +0.014 C 
ATOM      2  C   UNL     1      -2.204   6.512  -5.778  0.00  0.00    +0.042 C 
ATOM      3  C   UNL     1      -1.770   6.643  -4.326  0.00  0.00    +0.057 A 
ATOM      4  C   UNL     1      -2.616   6.285  -3.328  0.00  0.00    +0.015 A 
ATOM      5  S   UNL     1      -1.664   6.619  -1.871  0.00  0.00    -0.056 S 
ATOM      6  C   UNL     1      -0.239   7.205  -2.677  0.00  0.00    +0.178 A 
ATOM      7  N   UNL     1      -0.578   7.101  -3.946  0.00  0.00    -0.228 NA
ATOM      8  N   UNL     1       0.949   7.659  -2.127  0.00  0.00    -0.194 N 
ATOM      9  C   UNL     1      -3.996   5.744  -3.455  0.00  0.00    +0.051 C 
ATOM     10  C   UNL     1      -4.494   5.970  -4.896  0.00  0.00    -0.022 C 
ATOM     11  C   UNL     1      -3.394   5.549  -5.874  0.00  0.00    +0.033 C 
ATOM     12  C   UNL     1      -3.918   5.606  -7.313  0.00  0.00    +0.123 C 
ATOM     13  C   UNL     1      -5.140   4.704  -7.470  0.00  0.00    +0.029 C 
ATOM     14  C   UNL     1      -6.241   5.196  -6.526  0.00  0.00    +0.007 C 
ATOM     15  C   UNL     1      -5.737   5.094  -5.088  0.00  0.00    +0.008 C 
ATOM     16  C   UNL     1      -4.853   7.441  -5.115  0.00  0.00    +0.012 C 
ATOM     17  H   UNL     1       1.669   7.955  -2.705  0.00  0.00    +0.176 HD
ENDROOT
BRANCH   8  18
ATOM     18  S   UNL     1       1.139   7.697  -0.482  0.00  0.00    +0.074 S 
ATOM     19  O   UNL     1      -0.017   8.333   0.046  0.00  0.00    -0.150 OA
ATOM     20  O   UNL     1       2.453   8.178  -0.236  0.00  0.00    -0.150 OA
BRANCH  18  21
ATOM     21  C   UNL     1       1.099   6.029   0.085  0.00  0.00    +0.109 A 
ATOM     22  C   UNL     1       2.271   5.301   0.172  0.00  0.00    +0.030 A 
ATOM     23  C   UNL     1       2.240   3.992   0.616  0.00  0.00    +0.022 A 
ATOM     24  C   UNL     1       1.037   3.411   0.974  0.00  0.00    +0.041 A 
ATOM     25  C   UNL     1      -0.136   4.139   0.882  0.00  0.00    +0.022 A 
ATOM     26  C   UNL     1      -0.104   5.449   0.443  0.00  0.00    +0.030 A 
ATOM     27 CL   UNL     1       0.998   1.768   1.532  0.00  0.00    -0.084 Cl
ENDBRANCH  18  21
ENDBRANCH   8  18
BRANCH  13  28
ATOM     28  C   UNL     1      -5.640   4.760  -8.915  0.00  0.00    +0.078 C 
ATOM     29  C   UNL     1      -6.140   6.172  -9.227  0.00  0.00    +0.017 C 
BRANCH  28  30
ATOM     30  C   UNL     1      -6.768   3.776  -9.095  0.00  0.00    +0.219 C 
ATOM     31  O   UNL     1      -7.917   4.141  -8.966  0.00  0.00    -0.275 OA
ATOM     32  N   UNL     1      -6.499   2.491  -9.399  0.00  0.00    -0.301 N 
ATOM     33  C   UNL     1      -5.158   1.893  -9.484  0.00  0.00    +0.108 C 
ATOM     34  C   UNL     1      -5.341   0.413  -9.882  0.00  0.00    +0.020 C 
ATOM     35  C   UNL     1      -6.738   0.407 -10.558  0.00  0.00    +0.020 C 
ATOM     36  C   UNL     1      -7.500   1.453  -9.706  0.00  0.00    +0.108 C 
ENDBRANCH  28  30
ENDBRANCH  13  28
BRANCH  12  37
ATOM     37  O   UNL     1      -2.891   5.172  -8.207  0.00  0.00    -0.391 OA
ATOM     38  H   UNL     1      -3.117   5.270  -9.142  0.00  0.00    +0.210 HD
ENDBRANCH  12  37
TORSDOF 5
