REMARK  Name = ZINC15932596
REMARK  12 active torsions:
REMARK  status: ('A' for Active; 'I' for Inactive)
REMARK    1  A    between atoms: C_1  and  C_2
REMARK    2  A    between atoms: C_4  and  C_8
REMARK    3  A    between atoms: C_5  and  C_7
REMARK    4  A    between atoms: C_14  and  C_22
REMARK    5  A    between atoms: C_16  and  C_20
REMARK    6  A    between atoms: C_17  and  N_19
REMARK    7  A    between atoms: C_23  and  O_32
REMARK    8  A    between atoms: C_25  and  O_30
REMARK    9  A    between atoms: C_27  and  O_28
REMARK   10  A    between atoms: O_28  and  C_29
REMARK   11  A    between atoms: O_30  and  C_31
REMARK   12  A    between atoms: O_32  and  C_33
REMARK                            x       y       z     vdW  Elec       q    Type
REMARK                         _______ _______ _______ _____ _____    ______ ____
ROOT
ATOM      1  C   UNL     1      -1.671  -3.134  -0.003  0.00  0.00    +0.084 C 
ATOM      2  N   UNL     1      -1.414  -4.415  -0.056  0.00  0.00    -0.150 NA
ATOM      3  N   UNL     1      -2.577  -5.185  -0.067  0.00  0.00    -0.115 NA
ATOM      4  C   UNL     1      -3.635  -4.464   0.010  0.00  0.00    +0.227 C 
ATOM      5  C   UNL     1      -3.176  -3.009  -0.019  0.00  0.00    +0.140 C 
ATOM      6  C   UNL     1      -3.695  -2.383   1.280  0.00  0.00    +0.090 C 
ATOM      7  C   UNL     1      -5.103  -2.860   1.523  0.00  0.00    +0.095 C 
ATOM      8  C   UNL     1      -5.635  -3.971   0.975  0.00  0.00    +0.200 C 
ATOM      9  O   UNL     1      -4.947  -4.776   0.118  0.00  0.00    -0.425 OA
ENDROOT
BRANCH   1  13
ATOM     10  C   UNL     1      -0.220   1.753   0.256  0.00  0.00    +0.051 C 
ATOM     11  C   UNL     1      -0.115   0.251   0.184  0.00  0.00    -0.012 A 
ATOM     12  C   UNL     1      -1.109  -0.657   0.125  0.00  0.00    +0.021 A 
ATOM     13  C   UNL     1      -0.694  -2.038   0.064  0.00  0.00    +0.009 A 
ATOM     14  C   UNL     1       0.662  -2.281   0.072  0.00  0.00    -0.004 A 
ATOM     15  S   UNL     1       1.353  -0.754   0.148  0.00  0.00    -0.098 S 
ATOM     16  C   UNL     1       1.364  -3.613   0.017  0.00  0.00    +0.052 C 
ENDBRANCH   1  13
BRANCH   6  17
ATOM     17  C   UNL     1      -2.813  -2.799   2.429  0.00  0.00    +0.045 A 
ATOM     18  C   UNL     1      -2.003  -1.865   3.056  0.00  0.00    +0.131 A 
ATOM     19  C   UNL     1      -1.191  -2.248   4.113  0.00  0.00    +0.091 A 
ATOM     20  C   UNL     1      -1.190  -3.566   4.543  0.00  0.00    +0.127 A 
ATOM     21  C   UNL     1      -2.001  -4.501   3.917  0.00  0.00    +0.091 A 
ATOM     22  C   UNL     1      -2.816  -4.117   2.863  0.00  0.00    +0.131 A 
BRANCH  22  23
ATOM     23  O   UNL     1      -3.614  -5.031   2.252  0.00  0.00    -0.495 OA
ATOM     24  C   UNL     1      -3.566  -6.370   2.751  0.00  0.00    +0.277 C 
ENDBRANCH  22  23
BRANCH  20  25
ATOM     25  O   UNL     1      -0.394  -3.942   5.579  0.00  0.00    -0.495 OA
ATOM     26  C   UNL     1      -0.444  -5.316   5.969  0.00  0.00    +0.277 C 
ENDBRANCH  20  25
BRANCH  18  27
ATOM     27  O   UNL     1      -2.004  -0.573   2.634  0.00  0.00    -0.495 OA
ATOM     28  C   UNL     1      -1.145   0.336   3.325  0.00  0.00    +0.277 C 
ENDBRANCH  18  27
ENDBRANCH   6  17
BRANCH   8  29
ATOM     29  N   UNL     1      -6.929  -4.303   1.289  0.00  0.00    -0.328 N 
ATOM     30  H   UNL     1      -7.441  -3.743   1.894  0.00  0.00    +0.145 HD
ATOM     31  H   UNL     1      -7.333  -5.098   0.907  0.00  0.00    +0.145 HD
ENDBRANCH   8  29
BRANCH   7  32
ATOM     32  C   UNL     1      -5.931  -2.081   2.394  0.00  0.00    +0.100 C 
ATOM     33  N   UNL     1      -6.588  -1.464   3.084  0.00  0.00    -0.191 NA
ENDBRANCH   7  32
TORSDOF 7
