REMARK  Name = ZINC18031835
REMARK  7 active torsions:
REMARK  status: ('A' for Active; 'I' for Inactive)
REMARK    1  A    between atoms: C_1  and  C_2
REMARK    2  A    between atoms: C_3  and  C_18
REMARK    3  A    between atoms: N_6  and  C_9
REMARK    4  A    between atoms: C_12  and  N_15
REMARK    5  A    between atoms: C_18  and  C_27
REMARK    6  A    between atoms: N_19  and  C_20
REMARK    7  A    between atoms: C_20  and  C_21
REMARK                            x       y       z     vdW  Elec       q    Type
REMARK                         _______ _______ _______ _____ _____    ______ ____
ROOT
ATOM      1  C   UNL     1       0.060   1.270   0.680  0.00  0.00    +0.066 C 
ATOM      2  C   UNL     1       0.008  -0.184   0.288  0.00  0.00    +0.044 A 
ATOM      3  C   UNL     1      -1.139  -0.926   0.093  0.00  0.00    +0.082 A 
ATOM      4  C   UNL     1      -0.704  -2.283  -0.275  0.00  0.00    +0.281 A 
ATOM      5  O   UNL     1      -1.419  -3.233  -0.529  0.00  0.00    -0.265 OA
ATOM      6  N   UNL     1       0.646  -2.266  -0.276  0.00  0.00    -0.219 N 
ATOM      7  N   UNL     1       1.074  -0.979   0.065  0.00  0.00    -0.294 N 
ATOM      8  H   UNL     1       2.001  -0.700   0.132  0.00  0.00    +0.187 HD
ENDROOT
BRANCH   6   9
ATOM      9  C   UNL     1       1.476  -3.352  -0.571  0.00  0.00    +0.067 A 
ATOM     10  C   UNL     1       0.921  -4.580  -0.906  0.00  0.00    +0.030 A 
ATOM     11  C   UNL     1       1.744  -5.651  -1.198  0.00  0.00    +0.035 A 
ATOM     12  C   UNL     1       3.118  -5.500  -1.156  0.00  0.00    +0.126 A 
ATOM     13  C   UNL     1       3.673  -4.278  -0.823  0.00  0.00    +0.035 A 
ATOM     14  C   UNL     1       2.856  -3.202  -0.537  0.00  0.00    +0.030 A 
BRANCH  12  15
ATOM     15  N   UNL     1       3.997  -6.650  -1.469  0.00  0.00    +0.056 N 
ATOM     16  O   UNL     1       3.513  -7.719  -1.760  0.00  0.00    -0.126 OA
ATOM     17  O   UNL     1       5.198  -6.520  -1.433  0.00  0.00    -0.126 OA
ENDBRANCH  12  15
ENDBRANCH   6   9
BRANCH   3  18
ATOM     18  C   UNL     1      -2.523  -0.455   0.226  0.00  0.00    +0.047 C 
ATOM     19  N   UNL     1      -3.165  -0.025  -0.816  0.00  0.00    -0.285 NA
ATOM     20  C   UNL     1      -3.198  -0.469   1.573  0.00  0.00    +0.066 C 
BRANCH  19  21
ATOM     21  C   UNL     1      -2.555  -0.122  -2.144  0.00  0.00    +0.173 C 
BRANCH  21  22
ATOM     22  C   UNL     1      -3.401  -1.041  -3.029  0.00  0.00    +0.140 C 
ATOM     23  C   UNL     1      -2.753  -1.185  -4.429  0.00  0.00    +0.035 C 
ATOM     24  C   UNL     1      -3.331  -2.554  -4.881  0.00  0.00    +0.031 C 
ATOM     25  C   UNL     1      -3.411  -3.332  -3.549  0.00  0.00    +0.160 C 
ATOM     26  O   UNL     1      -3.427  -2.370  -2.486  0.00  0.00    -0.375 OA
ENDBRANCH  21  22
ENDBRANCH  19  21
ENDBRANCH   3  18
TORSDOF 5
