REMARK  Name = ZINC17448369
REMARK  10 active torsions:
REMARK  status: ('A' for Active; 'I' for Inactive)
REMARK    1  A    between atoms: C_1  and  C_2
REMARK    2  A    between atoms: C_10  and  C_11
REMARK    3  A    between atoms: N_13  and  N_14
REMARK    4  A    between atoms: C_15  and  C_17
REMARK    5  A    between atoms: C_17  and  C_19
REMARK    6  A    between atoms: C_17  and  N_22
REMARK    7  A    between atoms: C_19  and  C_20
REMARK    8  A    between atoms: C_19  and  C_21
REMARK    9  A    between atoms: N_22  and  S_23
REMARK   10  A    between atoms: S_23  and  C_26
REMARK                            x       y       z     vdW  Elec       q    Type
REMARK                         _______ _______ _______ _____ _____    ______ ____
ROOT
ATOM      1  N   UNL     1       1.824   2.173   1.699  0.00  0.00    -0.233 N 
ATOM      2  C   UNL     1       2.512   1.273   0.969  0.00  0.00    +0.248 C 
ATOM      3  O   UNL     1       2.274   0.090   1.084  0.00  0.00    -0.273 OA
ATOM      4  H   UNL     1       2.061   3.113   1.658  0.00  0.00    +0.173 HD
ENDROOT
BRANCH   1   7
ATOM      5  C   UNL     1       0.076   2.653   3.241  0.00  0.00    +0.296 C 
ATOM      6  O   UNL     1       0.372   3.832   3.191  0.00  0.00    -0.265 OA
ATOM      7  N   UNL     1       0.767   1.752   2.516  0.00  0.00    -0.228 N 
ATOM      8  H   UNL     1       0.530   0.812   2.556  0.00  0.00    +0.173 HD
BRANCH   5  18
ATOM      9  C   UNL     1      -1.665   4.520   5.018  0.00  0.00    +0.048 C 
ATOM     10  C   UNL     1      -1.798   3.026   4.870  0.00  0.00    +0.008 A 
ATOM     11  C   UNL     1      -2.774   2.160   5.531  0.00  0.00    +0.024 A 
ATOM     12  C   UNL     1      -3.817   2.380   6.434  0.00  0.00    +0.012 A 
ATOM     13  C   UNL     1      -4.562   1.325   6.878  0.00  0.00    +0.001 A 
ATOM     14  C   UNL     1      -4.290   0.037   6.438  0.00  0.00    +0.004 A 
ATOM     15  C   UNL     1      -3.266  -0.202   5.547  0.00  0.00    +0.047 A 
ATOM     16  C   UNL     1      -2.494   0.857   5.081  0.00  0.00    +0.136 A 
ATOM     17  O   UNL     1      -1.454   0.935   4.228  0.00  0.00    -0.450 OA
ATOM     18  C   UNL     1      -1.037   2.211   4.094  0.00  0.00    +0.195 A 
ENDBRANCH   5  18
ENDBRANCH   1   7
BRANCH   2  19
ATOM     19  C   UNL     1       3.578   1.737   0.010  0.00  0.00    +0.166 C 
BRANCH  19  20
ATOM     20  C   UNL     1       2.928   2.160  -1.309  0.00  0.00    +0.010 C 
ATOM     21  C   UNL     1       3.991   2.758  -2.233  0.00  0.00    +0.009 C 
ATOM     22  C   UNL     1       2.295   0.940  -1.981  0.00  0.00    +0.009 C 
ENDBRANCH  19  20
BRANCH  19  23
ATOM     23  N   UNL     1       4.520   0.643  -0.240  0.00  0.00    -0.177 NA
ATOM     24  H   UNL     1       4.221  -0.161  -0.693  0.00  0.00    +0.149 HD
BRANCH  23  25
ATOM     25  S   UNL     1       6.096   0.780   0.252  0.00  0.00    +0.065 S 
ATOM     26  O   UNL     1       6.733  -0.446  -0.083  0.00  0.00    -0.153 OA
ATOM     27  O   UNL     1       6.562   2.035  -0.223  0.00  0.00    -0.153 OA
BRANCH  25  28
ATOM     28  C   UNL     1       6.086   0.878   2.011  0.00  0.00    +0.142 A 
ATOM     29  C   UNL     1       6.153  -0.123   2.923  0.00  0.00    +0.036 A 
ATOM     30  C   UNL     1       6.130   0.193   4.268  0.00  0.00    +0.010 A 
ATOM     31  C   UNL     1       6.040   1.494   4.636  0.00  0.00    +0.047 A 
ATOM     32  S   UNL     1       5.992   2.323   3.056  0.00  0.00    -0.077 S 
ENDBRANCH  25  28
ENDBRANCH  23  25
ENDBRANCH  19  23
ENDBRANCH   2  19
TORSDOF 7
