REMARK  Name = ZINC16742532
REMARK  6 active torsions:
REMARK  status: ('A' for Active; 'I' for Inactive)
REMARK    1  A    between atoms: C_1  and  C_2
REMARK    2  A    between atoms: C_7  and  C_8
REMARK    3  A    between atoms: C_14  and  C_26
REMARK    4  A    between atoms: N_16  and  C_19
REMARK    5  A    between atoms: C_19  and  C_20
REMARK    6  A    between atoms: C_29  and  O_32
REMARK                            x       y       z     vdW  Elec       q    Type
REMARK                         _______ _______ _______ _____ _____    ______ ____
ROOT
ATOM      1  C   UNL     1      -4.345  -8.984  -2.949  0.00  0.00    +0.044 C 
ATOM      2  C   UNL     1      -3.157  -8.097  -2.681  0.00  0.00    -0.047 A 
ATOM      3  C   UNL     1      -3.260  -7.066  -1.773  0.00  0.00    +0.019 A 
ATOM      4  C   UNL     1      -2.155  -6.251  -1.532  0.00  0.00    +0.065 A 
ATOM      5  C   UNL     1      -0.944  -6.474  -2.208  0.00  0.00    +0.140 A 
ATOM      6  C   UNL     1      -0.864  -7.521  -3.122  0.00  0.00    +0.050 A 
ATOM      7  C   UNL     1      -1.962  -8.320  -3.352  0.00  0.00    -0.044 A 
ATOM      8  C   UNL     1      -1.865  -9.451  -4.343  0.00  0.00    +0.044 C 
ATOM      9  O   UNL     1       0.123  -5.687  -1.975  0.00  0.00    -0.450 OA
ATOM     10  C   UNL     1       0.116  -4.658  -1.105  0.00  0.00    +0.199 A 
ATOM     11  C   UNL     1      -0.995  -4.346  -0.394  0.00  0.00    +0.072 A 
ATOM     12  C   UNL     1      -2.218  -5.135  -0.567  0.00  0.00    +0.199 A 
ATOM     13  O   UNL     1      -3.235  -4.883   0.054  0.00  0.00    -0.287 OA
ATOM     14  C   UNL     1      -0.658  -3.163   0.476  0.00  0.00    +0.145 C 
ATOM     15  N   UNL     1       0.742  -2.831   0.183  0.00  0.00    -0.281 N 
ATOM     16  C   UNL     1       1.191  -3.704  -0.734  0.00  0.00    +0.283 C 
ATOM     17  O   UNL     1       2.316  -3.712  -1.194  0.00  0.00    -0.267 OA
ENDROOT
BRANCH  14  18
ATOM     18  C   UNL     1      -0.813  -3.524   1.931  0.00  0.00    -0.022 A 
ATOM     19  C   UNL     1       0.151  -4.293   2.557  0.00  0.00    +0.009 A 
ATOM     20  C   UNL     1       0.015  -4.620   3.892  0.00  0.00    +0.046 A 
ATOM     21  C   UNL     1      -1.096  -4.188   4.602  0.00  0.00    +0.117 A 
ATOM     22  C   UNL     1      -2.065  -3.422   3.969  0.00  0.00    +0.046 A 
ATOM     23  C   UNL     1      -1.921  -3.092   2.636  0.00  0.00    +0.009 A 
BRANCH  21  24
ATOM     24  O   UNL     1      -1.235  -4.513   5.914  0.00  0.00    -0.507 OA
ATOM     25  H   UNL     1      -1.708  -5.343   6.065  0.00  0.00    +0.292 HD
ENDBRANCH  21  24
ENDBRANCH  14  18
BRANCH  15  26
ATOM     26  C   UNL     1       1.514  -1.743   0.789  0.00  0.00    +0.140 C 
BRANCH  26  27
ATOM     27  C   UNL     1       1.358  -0.476  -0.054  0.00  0.00    +0.136 C 
ATOM     28  C   UNL     1       2.211   0.674   0.537  0.00  0.00    +0.035 C 
ATOM     29  C   UNL     1       1.448   1.915  -0.002  0.00  0.00    +0.031 C 
ATOM     30  C   UNL     1      -0.017   1.428   0.010  0.00  0.00    +0.160 C 
ATOM     31  O   UNL     1       0.002  -0.004   0.002  0.00  0.00    -0.375 OA
ENDBRANCH  26  27
ENDBRANCH  15  26
TORSDOF 4
