REMARK  Name = ZINC45896169
REMARK  9 active torsions:
REMARK  status: ('A' for Active; 'I' for Inactive)
REMARK    1  A    between atoms: C_1  and  C_2
REMARK    2  A    between atoms: C_5  and  C_7
REMARK    3  A    between atoms: C_9  and  C_18
REMARK    4  A    between atoms: C_10  and  C_17
REMARK    5  A    between atoms: C_18  and  O_20
REMARK    6  A    between atoms: O_20  and  C_21
REMARK    7  A    between atoms: C_21  and  C_22
REMARK    8  A    between atoms: C_21  and  C_23
REMARK    9  A    between atoms: C_21  and  C_24
REMARK                            x       y       z     vdW  Elec       q    Type
REMARK                         _______ _______ _______ _____ _____    ______ ____
ROOT
ATOM      1  C   UNL     1       1.665  -3.138  -0.043  0.00  0.00    +0.216 C 
ATOM      2  C   UNL     1       2.520  -2.974  -1.271  0.00  0.00    +0.085 C 
ATOM      3  C   UNL     1       3.845  -2.762  -1.219  0.00  0.00    +0.020 C 
ATOM      4  N   UNL     1       4.529  -2.689  -0.031  0.00  0.00    -0.286 N 
ATOM      5  C   UNL     1       3.863  -3.096   1.115  0.00  0.00    +0.240 A 
ATOM      6  N   UNL     1       2.522  -3.316   1.124  0.00  0.00    -0.198 N 
ATOM      7  N   UNL     1       2.216  -3.714   2.424  0.00  0.00    -0.042 NA
ATOM      8  N   UNL     1       3.330  -3.705   3.082  0.00  0.00    -0.021 NA
ATOM      9  N   UNL     1       4.302  -3.341   2.316  0.00  0.00    -0.092 NA
ATOM     10  C   UNL     1       4.606  -2.599  -2.509  0.00  0.00    +0.061 C 
ATOM     11  H   UNL     1       5.443  -2.366   0.005  0.00  0.00    +0.155 HD
ENDROOT
BRANCH   1  16
ATOM     12  C   UNL     1       0.310   1.669   0.663  0.00  0.00    +0.086 C 
ATOM     13  C   UNL     1       0.221   0.179   0.450  0.00  0.00    +0.102 A 
ATOM     14  C   UNL     1      -0.914  -0.537   0.361  0.00  0.00    +0.045 A 
ATOM     15  C   UNL     1      -0.534  -1.884   0.163  0.00  0.00    +0.047 A 
ATOM     16  C   UNL     1       0.811  -1.911   0.143  0.00  0.00    +0.134 A 
ATOM     17  O   UNL     1       1.263  -0.657   0.312  0.00  0.00    -0.462 OA
ENDBRANCH   1  16
BRANCH   2  18
ATOM     18  C   UNL     1       1.900  -3.047  -2.538  0.00  0.00    +0.340 C 
ATOM     19  O   UNL     1       1.551  -4.124  -2.984  0.00  0.00    -0.245 OA
BRANCH  18  20
ATOM     20  O   UNL     1       1.693  -1.921  -3.254  0.00  0.00    -0.456 OA
BRANCH  20  21
ATOM     21  C   UNL     1       1.060  -2.069  -4.527  0.00  0.00    +0.106 C 
ATOM     22  C   UNL     1      -0.322  -2.696  -4.339  0.00  0.00    +0.055 C 
ATOM     23  C   UNL     1       0.913  -0.696  -5.185  0.00  0.00    +0.055 C 
ATOM     24  C   UNL     1       1.914  -2.973  -5.419  0.00  0.00    +0.055 C 
ENDBRANCH  20  21
ENDBRANCH  18  20
ENDBRANCH   2  18
TORSDOF 4
