REMARK  Name = ZINC63270564
REMARK  10 active torsions:
REMARK  status: ('A' for Active; 'I' for Inactive)
REMARK    1  A    between atoms: C_1  and  C_2
REMARK    2  A    between atoms: C_3  and  C_21
REMARK    3  A    between atoms: C_9  and  O_19
REMARK    4  A    between atoms: C_15  and  C_17
REMARK    5  A    between atoms: C_15  and  C_18
REMARK    6  A    between atoms: O_19  and  C_20
REMARK    7  A    between atoms: C_21  and  C_22
REMARK    8  A    between atoms: N_24  and  C_25
REMARK    9  A    between atoms: C_25  and  C_26
REMARK   10  A    between atoms: C_26  and  C_27
REMARK                            x       y       z     vdW  Elec       q    Type
REMARK                         _______ _______ _______ _____ _____    ______ ____
ROOT
ATOM      1  C   UNL     1       0.265   1.493  -0.024  0.00  0.00    +0.045 C 
ATOM      2  C   UNL     1       0.136  -0.009  -0.014  0.00  0.00    -0.026 A 
ATOM      3  C   UNL     1      -0.096  -0.691  -1.166  0.00  0.00    +0.049 A 
ATOM      4  C   UNL     1      -0.212  -2.095  -1.139  0.00  0.00    +0.341 A 
ATOM      5  O   UNL     1      -0.421  -2.699  -2.176  0.00  0.00    -0.245 OA
ATOM      6  O   UNL     1      -0.097  -2.778   0.012  0.00  0.00    -0.421 OA
ATOM      7  C   UNL     1       0.131  -2.136   1.180  0.00  0.00    +0.149 A 
ATOM      8  C   UNL     1       0.260  -0.736   1.197  0.00  0.00    +0.063 A 
ATOM      9  C   UNL     1       0.504  -0.074   2.413  0.00  0.00    +0.134 A 
ATOM     10  C   UNL     1       0.620  -0.807   3.575  0.00  0.00    +0.092 A 
ATOM     11  C   UNL     1       0.494  -2.198   3.553  0.00  0.00    +0.131 A 
ATOM     12  C   UNL     1       0.240  -2.856   2.363  0.00  0.00    +0.038 A 
ATOM     13  C   UNL     1       0.088  -4.356   2.310  0.00  0.00    +0.046 C 
ATOM     14  C   UNL     1       0.663  -4.979   3.584  0.00  0.00    +0.052 C 
ATOM     15  C   UNL     1       0.109  -4.207   4.789  0.00  0.00    +0.105 C 
ATOM     16  O   UNL     1       0.622  -2.869   4.726  0.00  0.00    -0.486 OA
ATOM     17  C   UNL     1       0.577  -4.871   6.086  0.00  0.00    +0.055 C 
ATOM     18  C   UNL     1      -1.420  -4.198   4.736  0.00  0.00    +0.055 C 
ENDROOT
BRANCH   9  19
ATOM     19  O   UNL     1       0.627   1.277   2.442  0.00  0.00    -0.494 OA
ATOM     20  C   UNL     1       0.875   1.878   3.715  0.00  0.00    +0.277 C 
ENDBRANCH   9  19
BRANCH   3  21
ATOM     21  C   UNL     1      -0.228   0.053  -2.470  0.00  0.00    +0.138 C 
BRANCH  21  22
ATOM     22  C   UNL     1       1.113   0.107  -3.156  0.00  0.00    +0.218 C 
ATOM     23  O   UNL     1       2.081  -0.407  -2.636  0.00  0.00    -0.275 OA
ATOM     24  N   UNL     1       1.236   0.728  -4.346  0.00  0.00    -0.315 N 
ATOM     25  H   UNL     1       0.462   1.139  -4.761  0.00  0.00    +0.149 HD
BRANCH  24  26
ATOM     26  C   UNL     1       2.540   0.781  -5.012  0.00  0.00    +0.108 C 
BRANCH  26  27
ATOM     27  C   UNL     1       2.406   1.536  -6.336  0.00  0.00    +0.052 C 
BRANCH  27  28
ATOM     28  C   UNL     1       3.747   1.590  -7.022  0.00  0.00    -0.040 C 
ATOM     29  C   UNL     1       4.209   0.746  -7.972  0.00  0.00    -0.001 A 
ATOM     30  C   UNL     1       3.625  -0.431  -8.626  0.00  0.00    +0.010 A 
ATOM     31  C   UNL     1       4.347  -1.088  -9.562  0.00  0.00    +0.001 A 
ATOM     32  C   UNL     1       5.637  -0.674  -9.922  0.00  0.00    +0.002 A 
ATOM     33  C   UNL     1       6.241   0.398  -9.366  0.00  0.00    +0.026 A 
ATOM     34  C   UNL     1       5.572   1.163  -8.370  0.00  0.00    +0.043 A 
ATOM     35  N   UNL     1       5.939   2.224  -7.693  0.00  0.00    -0.380 N 
ATOM     36  C   UNL     1       4.845   2.604  -6.791  0.00  0.00    +0.144 C 
ATOM     37  H   UNL     1       6.789   2.684  -7.776  0.00  0.00    +0.160 HD
ENDBRANCH  27  28
ENDBRANCH  26  27
ENDBRANCH  24  26
ENDBRANCH  21  22
ENDBRANCH   3  21
TORSDOF 6
