REMARK  Name = ZINC66135786
REMARK  8 active torsions:
REMARK  status: ('A' for Active; 'I' for Inactive)
REMARK    1  A    between atoms: C_1  and  C_2
REMARK    2  A    between atoms: C_6  and  C_23
REMARK    3  A    between atoms: C_7  and  O_8
REMARK    4  A    between atoms: O_8  and  C_9
REMARK    5  A    between atoms: C_9  and  C_11
REMARK    6  A    between atoms: C_9  and  C_12
REMARK    7  A    between atoms: C_13  and  C_20
REMARK    8  A    between atoms: C_14  and  C_19
REMARK                            x       y       z     vdW  Elec       q    Type
REMARK                         _______ _______ _______ _____ _____    ______ ____
ROOT
ATOM      1  C   UNL     1      -1.773   1.282   3.759  0.00  0.00    +0.099 A 
ATOM      2  C   UNL     1      -2.935   2.023   3.505  0.00  0.00    +0.082 A 
ATOM      3  C   UNL     1      -3.189   3.151   4.296  0.00  0.00    +0.056 A 
ATOM      4  N   UNL     1      -2.332   3.472   5.247  0.00  0.00    -0.219 NA
ATOM      5  C   UNL     1      -1.243   2.744   5.456  0.00  0.00    +0.213 A 
ATOM      6  N   UNL     1      -0.969   1.667   4.731  0.00  0.00    -0.215 NA
ATOM      7  N   UNL     1      -0.372   3.115   6.460  0.00  0.00    -0.327 N 
ATOM      8  C   UNL     1      -4.423   3.984   4.066  0.00  0.00    +0.066 C 
ATOM      9  H   UNL     1      -0.560   3.898   7.001  0.00  0.00    +0.145 HD
ATOM     10  H   UNL     1       0.428   2.592   6.625  0.00  0.00    +0.145 HD
ENDROOT
BRANCH   2  11
ATOM     11  C   UNL     1      -3.866   1.627   2.431  0.00  0.00    +0.245 C 
ATOM     12  O   UNL     1      -4.782   0.864   2.671  0.00  0.00    -0.270 OA
ATOM     13  N   UNL     1      -3.701   2.111   1.184  0.00  0.00    -0.325 N 
ATOM     14  H   UNL     1      -2.971   2.720   0.992  0.00  0.00    +0.145 HD
ATOM     15  H   UNL     1      -4.313   1.850   0.478  0.00  0.00    +0.145 HD
ENDBRANCH   2  11
BRANCH   1  16
ATOM     16  C   UNL     1      -1.451   0.060   2.938  0.00  0.00    +0.220 C 
ATOM     17  C   UNL     1      -1.740  -1.198   3.760  0.00  0.00    +0.059 C 
BRANCH  16  18
ATOM     18  O   UNL     1      -0.070   0.083   2.572  0.00  0.00    -0.482 OA
BRANCH  18  25
ATOM     19  C   UNL     1       0.887  -2.562   2.838  0.00  0.00    +0.047 C 
ATOM     20  C   UNL     1       0.755  -1.876   1.502  0.00  0.00    -0.007 A 
ATOM     21  C   UNL     1       1.103  -2.544   0.344  0.00  0.00    +0.022 A 
ATOM     22  C   UNL     1       0.982  -1.915  -0.881  0.00  0.00    +0.019 A 
ATOM     23  C   UNL     1       0.512  -0.615  -0.951  0.00  0.00    +0.022 A 
ATOM     24  C   UNL     1       0.163   0.057   0.205  0.00  0.00    -0.007 A 
ATOM     25  C   UNL     1       0.278  -0.575   1.435  0.00  0.00    +0.127 A 
ATOM     26  C   UNL     1      -0.349   1.472   0.129  0.00  0.00    +0.047 C 
ATOM     27 BR   UNL     1       1.460  -2.831  -2.465  0.00  0.00    -0.050 Br
ENDBRANCH  18  25
ENDBRANCH  16  18
ENDBRANCH   1  16
TORSDOF 4
