REMARK  Name = ZINC39685523
REMARK  10 active torsions:
REMARK  status: ('A' for Active; 'I' for Inactive)
REMARK    1  A    between atoms: C_1  and  C_2
REMARK    2  A    between atoms: C_2  and  C_3
REMARK    3  A    between atoms: C_3  and  C_4
REMARK    4  A    between atoms: C_4  and  C_6
REMARK    5  A    between atoms: C_4  and  C_7
REMARK    6  A    between atoms: C_11  and  C_20
REMARK    7  A    between atoms: N_22  and  C_23
REMARK    8  A    between atoms: C_23  and  C_24
REMARK    9  A    between atoms: C_24  and  N_25
REMARK   10  A    between atoms: N_29  and  C_32
REMARK                            x       y       z     vdW  Elec       q    Type
REMARK                         _______ _______ _______ _____ _____    ______ ____
ROOT
ATOM      1  C   UNL     1       1.789  -2.745  -2.502  0.00  0.00    +0.218 C 
ATOM      2  O   UNL     1       2.452  -2.031  -3.224  0.00  0.00    -0.275 OA
ATOM      3  N   UNL     1       1.721  -4.070  -2.742  0.00  0.00    -0.300 N 
ATOM      4  C   UNL     1       0.886  -5.077  -2.046  0.00  0.00    +0.121 C 
ATOM      5  C   UNL     1       0.401  -6.023  -3.168  0.00  0.00    +0.100 C 
ATOM      6  C   UNL     1       1.442  -5.869  -4.289  0.00  0.00    -0.004 C 
ATOM      7  C   UNL     1       2.461  -4.847  -3.765  0.00  0.00    +0.115 C 
ATOM      8  C   UNL     1       0.779  -5.342  -5.558  0.00  0.00    -0.010 C 
ATOM      9  C   UNL     1       1.823  -5.252  -6.674  0.00  0.00    -0.082 C 
ATOM     10  N   UNL     1       2.400  -6.580  -6.916  0.00  0.00    +0.379 N 
ATOM     11  C   UNL     1       3.115  -7.040  -5.720  0.00  0.00    -0.082 C 
ATOM     12  C   UNL     1       2.126  -7.205  -4.562  0.00  0.00    -0.010 C 
ATOM     13  H   UNL     1       1.661  -7.231  -7.135  0.00  0.00    -0.086 HD
ATOM     14  H   UNL     1       3.042  -6.530  -7.692  0.00  0.00    -0.086 HD
ENDROOT
BRANCH   5  15
ATOM     15  C   UNL     1       0.364  -7.447  -2.674  0.00  0.00    +0.218 C 
ATOM     16  O   UNL     1       1.132  -7.808  -1.808  0.00  0.00    -0.275 OA
ATOM     17  N   UNL     1      -0.522  -8.318  -3.196  0.00  0.00    -0.314 N 
ATOM     18  H   UNL     1      -1.135  -8.029  -3.889  0.00  0.00    +0.149 HD
BRANCH  17  19
ATOM     19  C   UNL     1      -0.557  -9.702  -2.716  0.00  0.00    +0.119 C 
BRANCH  19  20
ATOM     20  C   UNL     1      -1.644 -10.474  -3.467  0.00  0.00    +0.103 C 
BRANCH  20  21
ATOM     21  N   UNL     1      -1.680 -11.861  -2.986  0.00  0.00    -0.303 NA
ATOM     22  C   UNL     1      -0.442 -12.589  -3.366  0.00  0.00    +0.082 C 
ATOM     23  C   UNL     1      -0.213 -13.746  -2.506  0.00  0.00    -0.003 C 
ATOM     24  C   UNL     1      -1.359 -14.772  -2.586  0.00  0.00    -0.078 C 
ATOM     25  N   UNL     1      -2.434 -14.316  -1.740  0.00  0.00    +0.379 N 
ATOM     26  C   UNL     1      -3.452 -13.536  -2.482  0.00  0.00    -0.064 C 
ATOM     27  C   UNL     1      -2.836 -12.556  -3.497  0.00  0.00    +0.066 C 
ATOM     28  C   UNL     1      -3.083 -15.482  -1.127  0.00  0.00    -0.096 C 
ATOM     29  H   UNL     1      -2.050 -13.737  -1.008  0.00  0.00    -0.082 HD
ENDBRANCH  20  21
ENDBRANCH  19  20
ENDBRANCH  17  19
ENDBRANCH   5  15
BRANCH   1  30
ATOM     30  C   UNL     1       1.041  -2.151  -1.337  0.00  0.00    +0.072 C 
ATOM     31  C   UNL     1      -0.355  -1.720  -1.792  0.00  0.00    +0.017 C 
BRANCH  30  32
ATOM     32  C   UNL     1       1.803  -0.935  -0.808  0.00  0.00    +0.012 C 
BRANCH  32  34
ATOM     33  C   UNL     1       1.873   0.810   0.980  0.00  0.00    +0.004 C 
ATOM     34  C   UNL     1       1.111  -0.407   0.451  0.00  0.00    -0.003 C 
ENDBRANCH  32  34
ENDBRANCH  30  32
ENDBRANCH   1  30
TORSDOF 7
