REMARK  Name = ZINC13121757
REMARK  10 active torsions:
REMARK  status: ('A' for Active; 'I' for Inactive)
REMARK    1  A    between atoms: C_1  and  C_2
REMARK    2  A    between atoms: C_2  and  C_3
REMARK    3  A    between atoms: C_3  and  N_4
REMARK    4  A    between atoms: C_5  and  C_24
REMARK    5  A    between atoms: C_8  and  C_15
REMARK    6  A    between atoms: C_18  and  C_22
REMARK    7  A    between atoms: C_20  and  O_21
REMARK    8  A    between atoms: C_27  and  O_32
REMARK    9  A    between atoms: C_28  and  O_30
REMARK   10  A    between atoms: O_30  and  C_31
REMARK                            x       y       z     vdW  Elec       q    Type
REMARK                         _______ _______ _______ _____ _____    ______ ____
ROOT
ATOM      1  N   UNL     1       0.738  -1.962  -1.265  0.00  0.00    -0.285 N 
ATOM      2  C   UNL     1       1.787  -2.804  -0.677  0.00  0.00    +0.141 C 
ATOM      3  C   UNL     1       1.377  -4.229  -0.930  0.00  0.00    +0.035 A 
ATOM      4  C   UNL     1       1.664  -5.549  -0.783  0.00  0.00    +0.075 A 
ATOM      5  N   UNL     1       0.644  -6.239  -1.375  0.00  0.00    -0.276 N 
ATOM      6  H   UNL     1       0.581  -7.205  -1.423  0.00  0.00    +0.189 HD
ATOM      7  N   UNL     1      -0.219  -5.417  -1.857  0.00  0.00    -0.168 NA
ATOM      8  C   UNL     1       0.151  -4.173  -1.630  0.00  0.00    +0.153 A 
ATOM      9  C   UNL     1      -0.204  -2.753  -1.807  0.00  0.00    +0.268 C 
ATOM     10  O   UNL     1      -1.206  -2.353  -2.367  0.00  0.00    -0.268 OA
ENDROOT
BRANCH   4  11
ATOM     11  C   UNL     1       2.850  -6.126  -0.114  0.00  0.00    +0.043 A 
ATOM     12  C   UNL     1       3.786  -6.852  -0.850  0.00  0.00    +0.034 A 
ATOM     13  C   UNL     1       4.891  -7.389  -0.220  0.00  0.00    +0.045 A 
ATOM     14  C   UNL     1       5.073  -7.210   1.141  0.00  0.00    -0.029 A 
ATOM     15  C   UNL     1       4.151  -6.492   1.880  0.00  0.00    +0.050 A 
ATOM     16  C   UNL     1       3.041  -5.942   1.260  0.00  0.00    +0.126 A 
ATOM     17  C   UNL     1       6.282  -7.800   1.820  0.00  0.00    +0.045 C 
ATOM     18 CL   UNL     1       6.056  -8.292  -1.137  0.00  0.00    -0.083 Cl
BRANCH  16  19
ATOM     19  O   UNL     1       2.137  -5.232   1.985  0.00  0.00    -0.506 OA
ATOM     20  H   UNL     1       1.423  -5.768   2.357  0.00  0.00    +0.292 HD
ENDBRANCH  16  19
ENDBRANCH   4  11
BRANCH   2  21
ATOM     21  C   UNL     1       1.886  -2.548   0.805  0.00  0.00    -0.019 A 
ATOM     22  C   UNL     1       0.738  -2.344   1.548  0.00  0.00    +0.009 A 
ATOM     23  C   UNL     1       0.823  -2.108   2.907  0.00  0.00    +0.049 A 
ATOM     24  C   UNL     1       2.062  -2.077   3.528  0.00  0.00    +0.158 A 
ATOM     25  C   UNL     1       3.217  -2.283   2.781  0.00  0.00    +0.162 A 
ATOM     26  C   UNL     1       3.124  -2.523   1.419  0.00  0.00    +0.055 A 
BRANCH  25  27
ATOM     27  O   UNL     1       4.434  -2.253   3.386  0.00  0.00    -0.491 OA
ATOM     28  C   UNL     1       5.577  -2.473   2.556  0.00  0.00    +0.277 C 
ENDBRANCH  25  27
BRANCH  24  29
ATOM     29  O   UNL     1       2.147  -1.845   4.866  0.00  0.00    -0.503 OA
ATOM     30  H   UNL     1       2.117  -2.646   5.407  0.00  0.00    +0.292 HD
ENDBRANCH  24  29
ENDBRANCH   2  21
BRANCH   1  31
ATOM     31  C   UNL     1       0.718  -0.497  -1.257  0.00  0.00    +0.109 C 
BRANCH  31  33
ATOM     32  C   UNL     1      -0.019   1.526   0.010  0.00  0.00    +0.005 C 
ATOM     33  C   UNL     1       0.002  -0.004   0.002  0.00  0.00    +0.016 C 
ENDBRANCH  31  33
ENDBRANCH   1  31
TORSDOF 7
