REMARK  Name = ZINC39595883
REMARK  7 active torsions:
REMARK  status: ('A' for Active; 'I' for Inactive)
REMARK    1  A    between atoms: C_1  and  C_2
REMARK    2  A    between atoms: C_2  and  C_4
REMARK    3  A    between atoms: C_2  and  O_28
REMARK    4  A    between atoms: C_4  and  N_5
REMARK    5  A    between atoms: C_6  and  C_8
REMARK    6  A    between atoms: C_19  and  C_21
REMARK    7  A    between atoms: O_28  and  C_29
REMARK                            x       y       z     vdW  Elec       q    Type
REMARK                         _______ _______ _______ _____ _____    ______ ____
ROOT
ATOM      1  C   UNL     1       0.907  -3.869  -2.329  0.00  0.00    +0.100 C 
ATOM      2  C   UNL     1       1.522  -4.493  -1.055  0.00  0.00    +0.121 C 
ATOM      3  N   UNL     1       2.183  -5.732  -1.527  0.00  0.00    -0.296 N 
ATOM      4  C   UNL     1       2.789  -5.355  -2.826  0.00  0.00    +0.115 C 
ATOM      5  C   UNL     1       1.742  -4.437  -3.489  0.00  0.00    -0.004 C 
ATOM      6  C   UNL     1       0.856  -5.244  -4.433  0.00  0.00    -0.010 C 
ATOM      7  C   UNL     1       1.697  -5.750  -5.607  0.00  0.00    -0.082 C 
ATOM      8  N   UNL     1       2.290  -4.609  -6.315  0.00  0.00    +0.379 N 
ATOM      9  C   UNL     1       3.213  -3.892  -5.427  0.00  0.00    -0.082 C 
ATOM     10  C   UNL     1       2.435  -3.308  -4.244  0.00  0.00    -0.010 C 
ATOM     11  C   UNL     1       2.225  -6.931  -0.913  0.00  0.00    +0.247 C 
ATOM     12  O   UNL     1       1.585  -7.116   0.104  0.00  0.00    -0.270 OA
ATOM     13  H   UNL     1       2.793  -4.941  -7.124  0.00  0.00    -0.086 HD
ATOM     14  H   UNL     1       1.557  -3.982  -6.613  0.00  0.00    -0.086 HD
ENDROOT
BRANCH  11  15
ATOM     15  C   UNL     1       3.050  -8.021  -1.475  0.00  0.00    +0.037 A 
ATOM     16  C   UNL     1       4.149  -7.723  -2.283  0.00  0.00    +0.014 A 
ATOM     17  C   UNL     1       4.914  -8.745  -2.805  0.00  0.00    +0.016 A 
ATOM     18  C   UNL     1       4.594 -10.064  -2.530  0.00  0.00    +0.018 A 
ATOM     19  C   UNL     1       3.505 -10.366  -1.730  0.00  0.00    +0.016 A 
ATOM     20  C   UNL     1       2.736  -9.353  -1.197  0.00  0.00    +0.014 A 
ATOM     21 BR   UNL     1       5.649 -11.458  -3.250  0.00  0.00    -0.050 Br
ENDBRANCH  11  15
BRANCH   1  23
ATOM     22  N   UNL     1       0.093  -1.603  -2.893  0.00  0.00    -0.312 N 
ATOM     23  C   UNL     1       1.022  -2.368  -2.286  0.00  0.00    +0.218 C 
ATOM     24  O   UNL     1       1.951  -1.847  -1.704  0.00  0.00    -0.275 OA
ATOM     25  H   UNL     1      -0.649  -2.019  -3.357  0.00  0.00    +0.149 HD
BRANCH  22  26
ATOM     26  C   UNL     1       0.205  -0.143  -2.851  0.00  0.00    +0.148 C 
BRANCH  26  28
ATOM     27  C   UNL     1      -0.785   1.998  -3.674  0.00  0.00    +0.053 C 
ATOM     28  C   UNL     1      -0.968   0.480  -3.611  0.00  0.00    +0.187 C 
BRANCH  28  29
ATOM     29  O   UNL     1      -2.189   0.175  -2.934  0.00  0.00    -0.488 OA
BRANCH  29  30
ATOM     30  C   UNL     1      -3.325   0.180  -3.681  0.00  0.00    +0.121 A 
ATOM     31  C   UNL     1      -3.254   0.367  -5.053  0.00  0.00    +0.048 A 
ATOM     32  C   UNL     1      -4.409   0.372  -5.811  0.00  0.00    +0.042 A 
ATOM     33  C   UNL     1      -5.638   0.189  -5.200  0.00  0.00    +0.124 A 
ATOM     34  C   UNL     1      -5.712   0.003  -3.830  0.00  0.00    +0.042 A 
ATOM     35  C   UNL     1      -4.557  -0.009  -3.071  0.00  0.00    +0.048 A 
ATOM     36  F   UNL     1      -6.768   0.194  -5.942  0.00  0.00    -0.205 F 
ENDBRANCH  29  30
ENDBRANCH  28  29
ENDBRANCH  26  28
ENDBRANCH  22  26
ENDBRANCH   1  23
TORSDOF 6
