REMARK  Name = ZINC21537419
REMARK  6 active torsions:
REMARK  status: ('A' for Active; 'I' for Inactive)
REMARK    1  A    between atoms: C_6  and  C_7
REMARK    2  A    between atoms: C_16  and  S_18
REMARK    3  A    between atoms: S_18  and  C_19
REMARK    4  A    between atoms: C_19  and  C_20
REMARK    5  A    between atoms: N_22  and  C_23
REMARK    6  A    between atoms: C_23  and  C_24
REMARK                            x       y       z     vdW  Elec       q    Type
REMARK                         _______ _______ _______ _____ _____    ______ ____
ROOT
ATOM      1  C   UNL     1      -1.268  -0.764   0.011  0.00  0.00    +0.165 A 
ATOM      2  N   UNL     1      -1.234  -2.091   0.009  0.00  0.00    -0.208 NA
ATOM      3  C   UNL     1      -2.373  -2.790   0.017  0.00  0.00    +0.162 A 
ATOM      4  C   UNL     1      -2.651  -4.151   0.018  0.00  0.00    +0.119 A 
ATOM      5  C   UNL     1      -4.039  -4.301   0.029  0.00  0.00    +0.267 A 
ATOM      6  O   UNL     1      -4.642  -5.362   0.032  0.00  0.00    -0.266 OA
ATOM      7  N   UNL     1      -4.600  -3.076   0.034  0.00  0.00    -0.256 N 
ATOM      8  H   UNL     1      -5.552  -2.888   0.042  0.00  0.00    +0.191 HD
ATOM      9  N   UNL     1      -3.579  -2.121   0.027  0.00  0.00    -0.210 N 
ATOM     10  C   UNL     1      -3.580  -0.756   0.028  0.00  0.00    +0.192 A 
ATOM     11  N   UNL     1      -2.429  -0.103   0.026  0.00  0.00    -0.202 NA
ENDROOT
BRANCH   1  17
ATOM     12  C   UNL     1      -0.017   1.391   0.010  0.00  0.00    +0.013 A 
ATOM     13  C   UNL     1       1.170   2.094   0.002  0.00  0.00    +0.021 A 
ATOM     14  C   UNL     1       2.378   1.418  -0.013  0.00  0.00    +0.041 A 
ATOM     15  C   UNL     1       2.403   0.034  -0.021  0.00  0.00    +0.021 A 
ATOM     16  C   UNL     1       1.223  -0.680  -0.014  0.00  0.00    +0.013 A 
ATOM     17  C   UNL     1       0.002  -0.004   0.002  0.00  0.00    +0.019 A 
ATOM     18 CL   UNL     1       3.868   2.310  -0.022  0.00  0.00    -0.084 Cl
ENDBRANCH   1  17
BRANCH  10  19
ATOM     19  S   UNL     1      -5.103   0.131   0.040  0.00  0.00    -0.077 S 
BRANCH  19  20
ATOM     20  C   UNL     1      -4.597   1.873   0.038  0.00  0.00    +0.173 C 
BRANCH  20  21
ATOM     21  C   UNL     1      -5.821   2.752   0.048  0.00  0.00    +0.223 C 
ATOM     22  O   UNL     1      -6.926   2.252   0.056  0.00  0.00    -0.275 OA
ATOM     23  N   UNL     1      -5.687   4.093   0.048  0.00  0.00    -0.312 N 
ATOM     24  H   UNL     1      -4.803   4.492   0.041  0.00  0.00    +0.149 HD
BRANCH  23  25
ATOM     25  C   UNL     1      -6.877   4.947   0.058  0.00  0.00    +0.135 C 
BRANCH  25  26
ATOM     26  C   UNL     1      -6.450   6.417   0.055  0.00  0.00    +0.135 C 
ATOM     27  C   UNL     1      -7.692   7.323   0.188  0.00  0.00    +0.035 C 
ATOM     28  C   UNL     1      -7.351   8.492  -0.776  0.00  0.00    +0.031 C 
ATOM     29  C   UNL     1      -6.564   7.743  -1.881  0.00  0.00    +0.160 C 
ATOM     30  O   UNL     1      -5.810   6.735  -1.186  0.00  0.00    -0.375 OA
ENDBRANCH  25  26
ENDBRANCH  23  25
ENDBRANCH  20  21
ENDBRANCH  19  20
ENDBRANCH  10  19
TORSDOF 6
