REMARK  Name = ZINC63756184
REMARK  7 active torsions:
REMARK  status: ('A' for Active; 'I' for Inactive)
REMARK    1  A    between atoms: C_4  and  S_7
REMARK    2  A    between atoms: S_7  and  N_10
REMARK    3  A    between atoms: N_10  and  C_11
REMARK    4  A    between atoms: C_17  and  C_18
REMARK    5  A    between atoms: N_20  and  C_21
REMARK    6  A    between atoms: C_21  and  C_22
REMARK    7  A    between atoms: C_22  and  C_23
REMARK                            x       y       z     vdW  Elec       q    Type
REMARK                         _______ _______ _______ _____ _____    ______ ____
ROOT
ATOM      1  C   UNL     1       3.837  -1.822   2.444  0.00  0.00    +0.220 C 
ATOM      2  N   UNL     1       3.978  -1.558   3.893  0.00  0.00    -0.322 N 
ATOM      3  C   UNL     1       3.654  -2.566   4.731  0.00  0.00    +0.021 C 
ATOM      4  C   UNL     1       3.718  -3.976   4.167  0.00  0.00    +0.122 C 
ATOM      5  S   UNL     1       4.146  -3.641   2.404  0.00  0.00    -0.116 S 
ATOM      6  C   UNL     1       3.290  -2.332   6.008  0.00  0.00    +0.086 C 
ATOM      7  H   UNL     1       4.289  -0.702   4.226  0.00  0.00    +0.148 HD
ENDROOT
BRANCH   6   8
ATOM      8  C   UNL     1       3.102  -1.005   6.459  0.00  0.00    +0.238 C 
ATOM      9  O   UNL     1       3.163  -0.079   5.670  0.00  0.00    -0.271 OA
ATOM     10  N   UNL     1       2.854  -0.764   7.762  0.00  0.00    -0.311 N 
ATOM     11  H   UNL     1       2.805  -1.501   8.390  0.00  0.00    +0.149 HD
BRANCH  10  12
ATOM     12  C   UNL     1       2.659   0.611   8.228  0.00  0.00    +0.109 C 
BRANCH  12  13
ATOM     13  C   UNL     1       2.397   0.606   9.736  0.00  0.00    +0.052 C 
BRANCH  13  14
ATOM     14  C   UNL     1       2.196   2.020  10.216  0.00  0.00    -0.040 C 
ATOM     15  C   UNL     1       1.018   2.663  10.383  0.00  0.00    -0.001 A 
ATOM     16  C   UNL     1      -0.376   2.253  10.175  0.00  0.00    +0.010 A 
ATOM     17  C   UNL     1      -1.366   3.138  10.435  0.00  0.00    +0.001 A 
ATOM     18  C   UNL     1      -1.093   4.434  10.896  0.00  0.00    +0.002 A 
ATOM     19  C   UNL     1       0.161   4.883  11.110  0.00  0.00    +0.026 A 
ATOM     20  C   UNL     1       1.278   4.036  10.871  0.00  0.00    +0.043 A 
ATOM     21  N   UNL     1       2.568   4.235  11.000  0.00  0.00    -0.380 N 
ATOM     22  C   UNL     1       3.271   3.006  10.614  0.00  0.00    +0.144 C 
ATOM     23  H   UNL     1       2.986   5.055  11.303  0.00  0.00    +0.160 HD
ENDBRANCH  13  14
ENDBRANCH  12  13
ENDBRANCH  10  12
ENDBRANCH   6   8
BRANCH   1  24
ATOM     24  N   UNL     1       4.848  -1.096   1.672  0.00  0.00    -0.161 NA
ATOM     25  H   UNL     1       5.693  -0.855   2.084  0.00  0.00    +0.151 HD
BRANCH  24  26
ATOM     26  S   UNL     1       4.550  -0.685   0.096  0.00  0.00    +0.061 S 
ATOM     27  O   UNL     1       4.073  -1.860  -0.546  0.00  0.00    -0.153 OA
ATOM     28  O   UNL     1       5.692   0.024  -0.363  0.00  0.00    -0.153 OA
BRANCH  26  32
ATOM     29  C   UNL     1       1.116   2.265   0.107  0.00  0.00    +0.000 A 
ATOM     30  C   UNL     1       2.418   2.720   0.195  0.00  0.00    +0.002 A 
ATOM     31  C   UNL     1       3.467   1.819   0.191  0.00  0.00    +0.028 A 
ATOM     32  C   UNL     1       3.213   0.463   0.101  0.00  0.00    +0.105 A 
ATOM     33  C   UNL     1       1.911   0.008   0.014  0.00  0.00    +0.028 A 
ATOM     34  C   UNL     1       0.862   0.909   0.016  0.00  0.00    +0.002 A 
ENDBRANCH  26  32
ENDBRANCH  24  26
ENDBRANCH   1  24
TORSDOF 7
