REMARK  Name = ZINC38583299
REMARK  6 active torsions:
REMARK  status: ('A' for Active; 'I' for Inactive)
REMARK    1  A    between atoms: C_1  and  C_2
REMARK    2  A    between atoms: C_3  and  C_15
REMARK    3  A    between atoms: N_6  and  C_8
REMARK    4  A    between atoms: C_19  and  C_29
REMARK    5  A    between atoms: C_24  and  N_28
REMARK    6  A    between atoms: C_25  and  C_26
REMARK                            x       y       z     vdW  Elec       q    Type
REMARK                         _______ _______ _______ _____ _____    ______ ____
ROOT
ATOM      1  C   UNL     1      -2.442  -0.113  -0.130  0.00  0.00    +0.083 C 
ATOM      2  C   UNL     1      -3.196  -0.431   1.167  0.00  0.00    +0.140 C 
ATOM      3  C   UNL     1      -2.251  -0.449   2.347  0.00  0.00    +0.084 C 
ATOM      4  N   UNL     1      -2.263  -1.672   2.803  0.00  0.00    -0.150 NA
ATOM      5  N   UNL     1      -3.082  -2.510   2.046  0.00  0.00    -0.115 NA
ATOM      6  C   UNL     1      -3.635  -1.887   1.049  0.00  0.00    +0.227 C 
ATOM      7  O   UNL     1      -4.384  -2.310   0.008  0.00  0.00    -0.425 OA
ATOM      8  C   UNL     1      -4.061  -1.740  -1.182  0.00  0.00    +0.200 C 
ATOM      9  C   UNL     1      -3.181  -0.722  -1.291  0.00  0.00    +0.095 C 
ENDROOT
BRANCH   1  12
ATOM     10  C   UNL     1      -1.619  -2.890  -1.086  0.00  0.00    +0.062 C 
ATOM     11  C   UNL     1      -0.683  -1.884  -0.468  0.00  0.00    +0.022 C 
ATOM     12  C   UNL     1      -1.052  -0.689  -0.059  0.00  0.00    -0.006 C 
ATOM     13  C   UNL     1       0.175   0.002   0.494  0.00  0.00    +0.213 C 
ATOM     14  N   UNL     1       1.259  -0.982   0.329  0.00  0.00    -0.231 N 
ATOM     15  N   UNL     1       0.664  -2.108  -0.257  0.00  0.00    -0.267 N 
ATOM     16 CL   UNL     1       0.532   1.499  -0.446  0.00  0.00    -0.094 Cl
ATOM     17  H   UNL     1       1.132  -2.927  -0.484  0.00  0.00    +0.170 HD
BRANCH  14  18
ATOM     18  C   UNL     1       2.600  -0.827   0.688  0.00  0.00    +0.050 A 
ATOM     19  C   UNL     1       3.031   0.356   1.274  0.00  0.00    +0.025 A 
ATOM     20  C   UNL     1       4.358   0.506   1.627  0.00  0.00    +0.002 A 
ATOM     21  C   UNL     1       5.256  -0.520   1.398  0.00  0.00    +0.000 A 
ATOM     22  C   UNL     1       4.830  -1.699   0.814  0.00  0.00    +0.002 A 
ATOM     23  C   UNL     1       3.504  -1.857   0.464  0.00  0.00    +0.025 A 
ENDBRANCH  14  18
ENDBRANCH   1  12
BRANCH   3  24
ATOM     24  C   UNL     1      -1.474   0.685   2.875  0.00  0.00    -0.001 A 
ATOM     25  C   UNL     1      -1.573   1.944   2.277  0.00  0.00    +0.010 A 
ATOM     26  C   UNL     1      -0.841   3.001   2.777  0.00  0.00    +0.001 A 
ATOM     27  C   UNL     1      -0.011   2.817   3.869  0.00  0.00    +0.000 A 
ATOM     28  C   UNL     1       0.093   1.573   4.467  0.00  0.00    +0.001 A 
ATOM     29  C   UNL     1      -0.637   0.508   3.982  0.00  0.00    +0.010 A 
ENDBRANCH   3  24
BRANCH   8  30
ATOM     30  N   UNL     1      -4.655  -2.220  -2.323  0.00  0.00    -0.328 N 
ATOM     31  H   UNL     1      -5.290  -2.950  -2.269  0.00  0.00    +0.145 HD
ATOM     32  H   UNL     1      -4.439  -1.827  -3.183  0.00  0.00    +0.145 HD
ENDBRANCH   8  30
BRANCH   9  33
ATOM     33  C   UNL     1      -2.933  -0.186  -2.596  0.00  0.00    +0.100 C 
ATOM     34  N   UNL     1      -2.737   0.239  -3.631  0.00  0.00    -0.191 NA
ENDBRANCH   9  33
TORSDOF 5
