REMARK  Name = ZINC38976635
REMARK  7 active torsions:
REMARK  status: ('A' for Active; 'I' for Inactive)
REMARK    1  A    between atoms: C_1  and  C_2
REMARK    2  A    between atoms: C_2  and  C_3
REMARK    3  A    between atoms: C_3  and  C_4
REMARK    4  A    between atoms: C_4  and  N_5
REMARK    5  A    between atoms: N_5  and  C_6
REMARK    6  A    between atoms: N_9  and  S_10
REMARK    7  A    between atoms: S_10  and  C_13
REMARK                            x       y       z     vdW  Elec       q    Type
REMARK                         _______ _______ _______ _____ _____    ______ ____
ROOT
ATOM      1  C   UNL     1       1.466  -3.969  -2.516  0.00  0.00    +0.217 C 
ATOM      2  C   UNL     1       0.995  -4.404  -3.885  0.00  0.00    +0.167 C 
ATOM      3  N   UNL     1      -0.181  -4.056  -4.320  0.00  0.00    -0.111 NA
ATOM      4  N   UNL     1       1.808  -5.154  -4.646  0.00  0.00    -0.338 N 
ATOM      5  C   UNL     1       3.002  -5.519  -4.229  0.00  0.00    +0.064 A 
ATOM      6  C   UNL     1       3.834  -6.312  -5.059  0.00  0.00    +0.028 A 
ATOM      7  C   UNL     1       5.060  -6.690  -4.635  0.00  0.00    +0.002 A 
ATOM      8  C   UNL     1       5.574  -6.330  -3.378  0.00  0.00    +0.002 A 
ATOM      9  C   UNL     1       4.864  -5.577  -2.510  0.00  0.00    +0.027 A 
ATOM     10  C   UNL     1       3.519  -5.124  -2.895  0.00  0.00    +0.060 A 
ATOM     11  N   UNL     1       2.806  -4.395  -2.084  0.00  0.00    -0.362 N 
ATOM     12  H   UNL     1       3.151  -4.140  -1.214  0.00  0.00    +0.162 HD
ATOM     13  H   UNL     1       1.508  -5.434  -5.525  0.00  0.00    +0.167 HD
ENDROOT
BRANCH   3  14
ATOM     14  S   UNL     1      -0.684  -4.540  -5.822  0.00  0.00    +0.107 S 
ATOM     15  O   UNL     1       0.159  -3.889  -6.762  0.00  0.00    -0.146 OA
ATOM     16  O   UNL     1      -0.819  -5.953  -5.769  0.00  0.00    -0.146 OA
BRANCH  14  17
ATOM     17  C   UNL     1      -2.304  -3.888  -6.062  0.00  0.00    +0.150 A 
ATOM     18  C   UNL     1      -2.675  -2.702  -6.604  0.00  0.00    +0.037 A 
ATOM     19  C   UNL     1      -4.021  -2.398  -6.693  0.00  0.00    +0.010 A 
ATOM     20  C   UNL     1      -4.929  -3.295  -6.237  0.00  0.00    +0.047 A 
ATOM     21  S   UNL     1      -3.881  -4.623  -5.664  0.00  0.00    -0.076 S 
ENDBRANCH  14  17
ENDBRANCH   3  14
BRANCH   1  22
ATOM     22  N   UNL     1       1.427  -2.501  -2.474  0.00  0.00    -0.291 NA
ATOM     23  H   UNL     1       0.995  -2.127  -3.305  0.00  0.00    +0.124 HD
BRANCH  22  24
ATOM     24  C   UNL     1       0.739  -2.027  -1.265  0.00  0.00    +0.083 C 
BRANCH  24  25
ATOM     25  C   UNL     1       0.718  -0.497  -1.257  0.00  0.00    +0.015 C 
BRANCH  25  27
ATOM     26  C   UNL     1      -0.019   1.526   0.010  0.00  0.00    +0.004 C 
ATOM     27  C   UNL     1       0.002  -0.004   0.002  0.00  0.00    -0.002 C 
ENDBRANCH  25  27
ENDBRANCH  24  25
ENDBRANCH  22  24
ENDBRANCH   1  22
TORSDOF 6
