REMARK  Name = ZINC65588445
REMARK  4 active torsions:
REMARK  status: ('A' for Active; 'I' for Inactive)
REMARK    1  A    between atoms: C_1  and  C_2
REMARK    2  A    between atoms: N_11  and  C_12
REMARK    3  A    between atoms: C_15  and  O_20
REMARK    4  A    between atoms: O_20  and  C_21
REMARK                            x       y       z     vdW  Elec       q    Type
REMARK                         _______ _______ _______ _____ _____    ______ ____
ROOT
ATOM      1  C   UNL     1       0.488  -4.931  -3.170  0.00  0.00    +0.112 A 
ATOM      2  C   UNL     1      -0.247  -4.443  -4.243  0.00  0.00    +0.186 A 
ATOM      3  C   UNL     1      -0.534  -5.268  -5.318  0.00  0.00    +0.205 A 
ATOM      4  C   UNL     1      -0.087  -6.582  -5.323  0.00  0.00    +0.196 A 
ATOM      5  C   UNL     1       0.646  -7.071  -4.251  0.00  0.00    +0.205 A 
ATOM      6  C   UNL     1       0.939  -6.245  -3.179  0.00  0.00    +0.186 A 
ATOM      7  F   UNL     1       1.658  -6.719  -2.138  0.00  0.00    -0.200 F 
ATOM      8  F   UNL     1       1.080  -8.350  -4.257  0.00  0.00    -0.198 F 
ATOM      9  F   UNL     1      -1.248  -4.793  -6.362  0.00  0.00    -0.198 F 
ATOM     10  F   UNL     1      -0.682  -3.164  -4.238  0.00  0.00    -0.200 F 
ENDROOT
BRANCH   1  20
ATOM     11  C   UNL     1       2.549  -2.704   2.382  0.00  0.00    +0.039 C 
ATOM     12  C   UNL     1       2.781  -2.426   0.895  0.00  0.00    +0.133 C 
ATOM     13  C   UNL     1       1.455  -2.555   0.137  0.00  0.00    +0.140 C 
ATOM     14  N   UNL     1       1.666  -2.103  -1.247  0.00  0.00    -0.281 N 
ATOM     15  C   UNL     1       2.313  -0.798  -1.457  0.00  0.00    +0.137 C 
ATOM     16  C   UNL     1       3.597  -0.754  -0.621  0.00  0.00    +0.179 C 
ATOM     17  O   UNL     1       3.291  -1.101   0.732  0.00  0.00    -0.374 OA
ATOM     18  C   UNL     1       1.279  -2.862  -2.292  0.00  0.00    +0.307 C 
ATOM     19  O   UNL     1       1.380  -2.433  -3.425  0.00  0.00    -0.252 OA
ATOM     20  N   UNL     1       0.780  -4.096  -2.080  0.00  0.00    -0.264 N 
ATOM     21  H   UNL     1       0.622  -4.406  -1.175  0.00  0.00    +0.157 HD
ENDBRANCH   1  20
BRANCH   4  22
ATOM     22  O   UNL     1      -0.370  -7.392  -6.380  0.00  0.00    -0.489 OA
ATOM     23  C   UNL     1       0.572  -7.410  -7.454  0.00  0.00    +0.277 C 
ENDBRANCH   4  22
TORSDOF 2
