REMARK  Name = ZINC19452326
REMARK  6 active torsions:
REMARK  status: ('A' for Active; 'I' for Inactive)
REMARK    1  A    between atoms: C_1  and  C_2
REMARK    2  A    between atoms: C_2  and  C_3
REMARK    3  A    between atoms: C_2  and  C_4
REMARK    4  A    between atoms: C_6  and  C_27
REMARK    5  A    between atoms: C_11  and  C_13
REMARK    6  A    between atoms: C_19  and  C_21
REMARK                            x       y       z     vdW  Elec       q    Type
REMARK                         _______ _______ _______ _____ _____    ______ ____
ROOT
ATOM      1  C   UNL     1      -6.619   4.626   2.947  0.00  0.00    +0.048 A 
ATOM      2  C   UNL     1      -7.053   3.416   2.386  0.00  0.00    +0.056 A 
ATOM      3  C   UNL     1      -6.165   2.630   1.730  0.00  0.00    +0.149 A 
ATOM      4  N   UNL     1      -4.865   3.035   1.631  0.00  0.00    -0.210 N 
ATOM      5  C   UNL     1      -4.478   4.225   2.192  0.00  0.00    +0.157 A 
ATOM      6  N   UNL     1      -5.364   4.994   2.838  0.00  0.00    -0.232 NA
ATOM      7  C   UNL     1      -3.120   4.367   1.938  0.00  0.00    +0.075 A 
ATOM      8  C   UNL     1      -2.709   3.257   1.216  0.00  0.00    +0.086 A 
ATOM      9  N   UNL     1      -3.738   2.461   1.032  0.00  0.00    -0.168 NA
ENDROOT
BRANCH   8  10
ATOM     10  C   UNL     1      -1.307   3.002   0.726  0.00  0.00    +0.127 C 
ATOM     11  C   UNL     1      -0.816   1.624   1.221  0.00  0.00    +0.030 C 
ATOM     12  C   UNL     1      -0.013   1.086   0.008  0.00  0.00    +0.021 C 
ATOM     13  C   UNL     1      -0.838   1.637  -1.182  0.00  0.00    +0.109 C 
ATOM     14  N   UNL     1      -1.288   2.970  -0.744  0.00  0.00    -0.288 N 
ATOM     15  C   UNL     1      -1.627   3.991  -1.556  0.00  0.00    +0.267 C 
ATOM     16  O   UNL     1      -1.986   5.051  -1.082  0.00  0.00    -0.268 OA
BRANCH  15  17
ATOM     17  C   UNL     1      -1.562   3.821  -3.022  0.00  0.00    +0.147 A 
ATOM     18  C   UNL     1      -1.884   4.795  -3.997  0.00  0.00    +0.054 A 
ATOM     19  C   UNL     1      -1.675   4.193  -5.191  0.00  0.00    +0.105 A 
ATOM     20  N   UNL     1      -1.254   2.935  -4.937  0.00  0.00    -0.284 N 
ATOM     21  H   UNL     1      -1.024   2.253  -5.769  0.00  0.00    +0.188 HD
ATOM     22  N   UNL     1      -1.188   2.736  -3.670  0.00  0.00    -0.169 NA
ENDBRANCH  15  17
ENDBRANCH   8  10
BRANCH   3  23
ATOM     23  C   UNL     1      -6.607   1.325   1.119  0.00  0.00    +0.434 C 
ATOM     24  F   UNL     1      -6.463   0.298   2.058  0.00  0.00    -0.164 F 
ATOM     25  F   UNL     1      -7.949   1.421   0.735  0.00  0.00    -0.164 F 
ATOM     26  F   UNL     1      -5.819   1.045  -0.002  0.00  0.00    -0.164 F 
ENDBRANCH   3  23
BRANCH   1  28
ATOM     27  C   UNL     1      -8.328   6.403   2.674  0.00  0.00    +0.014 C 
ATOM     28  C   UNL     1      -7.599   5.508   3.679  0.00  0.00    +0.032 C 
ATOM     29  C   UNL     1      -8.616   4.636   4.418  0.00  0.00    +0.014 C 
ENDBRANCH   1  28
TORSDOF 4
