REMARK  Name = ZINC04868151
REMARK  11 active torsions:
REMARK  status: ('A' for Active; 'I' for Inactive)
REMARK    1  A    between atoms: C_1  and  C_2
REMARK    2  A    between atoms: C_3  and  C_25
REMARK    3  A    between atoms: C_4  and  C_17
REMARK    4  A    between atoms: N_8  and  C_15
REMARK    5  A    between atoms: N_11  and  C_14
REMARK    6  A    between atoms: C_22  and  O_23
REMARK    7  A    between atoms: O_23  and  C_24
REMARK    8  A    between atoms: C_25  and  O_27
REMARK    9  A    between atoms: O_27  and  C_28
REMARK   10  A    between atoms: C_28  and  C_29
REMARK   11  A    between atoms: C_28  and  C_30
REMARK                            x       y       z     vdW  Elec       q    Type
REMARK                         _______ _______ _______ _____ _____    ______ ____
ROOT
ATOM      1  C   UNL     1       2.448   0.159  -0.244  0.00  0.00    +0.061 C 
ATOM      2  C   UNL     1       1.179  -0.642  -0.115  0.00  0.00    +0.017 C 
ATOM      3  C   UNL     1       0.003  -0.004   0.010  0.00  0.00    +0.065 C 
ATOM      4  C   UNL     1      -1.292  -0.754   0.139  0.00  0.00    +0.099 C 
ATOM      5  C   UNL     1      -1.046  -2.192   0.494  0.00  0.00    +0.068 A 
ATOM      6  C   UNL     1       0.186  -2.754   0.346  0.00  0.00    +0.116 A 
ATOM      7  N   UNL     1       0.372  -4.075   0.675  0.00  0.00    -0.284 N 
ATOM      8  C   UNL     1      -0.653  -4.810   1.144  0.00  0.00    +0.333 A 
ATOM      9  O   UNL     1      -0.471  -5.978   1.429  0.00  0.00    -0.246 OA
ATOM     10  N   UNL     1      -1.876  -4.272   1.300  0.00  0.00    -0.264 N 
ATOM     11  C   UNL     1      -2.102  -2.981   0.988  0.00  0.00    +0.262 A 
ATOM     12  O   UNL     1      -3.212  -2.500   1.131  0.00  0.00    -0.267 OA
ATOM     13  C   UNL     1      -2.972  -5.097   1.815  0.00  0.00    +0.157 C 
ATOM     14  C   UNL     1       1.694  -4.687   0.514  0.00  0.00    +0.155 C 
ATOM     15  N   UNL     1       1.239  -2.009  -0.127  0.00  0.00    -0.303 N 
ATOM     16  H   UNL     1       2.029  -2.454  -0.471  0.00  0.00    +0.153 HD
ENDROOT
BRANCH   4  17
ATOM     17  C   UNL     1      -2.033  -0.692  -1.171  0.00  0.00    +0.007 A 
ATOM     18  C   UNL     1      -1.457  -1.207  -2.317  0.00  0.00    +0.008 A 
ATOM     19  C   UNL     1      -2.138  -1.151  -3.519  0.00  0.00    +0.001 A 
ATOM     20  C   UNL     1      -3.395  -0.579  -3.578  0.00  0.00    +0.004 A 
ATOM     21  C   UNL     1      -3.975  -0.062  -2.436  0.00  0.00    +0.046 A 
ATOM     22  C   UNL     1      -3.297  -0.122  -1.227  0.00  0.00    +0.124 A 
BRANCH  22  23
ATOM     23  O   UNL     1      -3.867   0.380  -0.101  0.00  0.00    -0.495 OA
ATOM     24  C   UNL     1      -5.170   0.951  -0.233  0.00  0.00    +0.277 C 
ENDBRANCH  22  23
ENDBRANCH   4  17
BRANCH   3  25
ATOM     25  C   UNL     1      -0.015   1.410   0.026  0.00  0.00    +0.338 C 
ATOM     26  O   UNL     1       1.030   2.031   0.034  0.00  0.00    -0.245 OA
BRANCH  25  27
ATOM     27  O   UNL     1      -1.193   2.069   0.027  0.00  0.00    -0.459 OA
BRANCH  27  28
ATOM     28  C   UNL     1      -1.136   3.497   0.044  0.00  0.00    +0.171 C 
ATOM     29  C   UNL     1      -1.108   4.023  -1.392  0.00  0.00    +0.052 C 
ATOM     30  C   UNL     1      -2.369   4.048   0.765  0.00  0.00    +0.052 C 
ENDBRANCH  27  28
ENDBRANCH  25  27
ENDBRANCH   3  25
TORSDOF 5
