REMARK  Name = ZINC67287095
REMARK  13 active torsions:
REMARK  status: ('A' for Active; 'I' for Inactive)
REMARK    1  A    between atoms: C_1  and  C_2
REMARK    2  A    between atoms: C_2  and  O_3
REMARK    3  A    between atoms: O_3  and  C_4
REMARK    4  A    between atoms: C_4  and  C_6
REMARK    5  A    between atoms: N_9  and  C_12
REMARK    6  A    between atoms: C_12  and  C_13
REMARK    7  A    between atoms: C_14  and  C_29
REMARK    8  A    between atoms: C_15  and  C_21
REMARK    9  A    between atoms: C_25  and  O_27
REMARK   10  A    between atoms: O_27  and  C_28
REMARK   11  A    between atoms: C_29  and  O_31
REMARK   12  A    between atoms: O_31  and  C_32
REMARK   13  A    between atoms: C_32  and  C_33
REMARK                            x       y       z     vdW  Elec       q    Type
REMARK                         _______ _______ _______ _____ _____    ______ ____
ROOT
ATOM      1  C   UNL     1       4.598  -6.064  -4.524  0.00  0.00    +0.038 C 
ATOM      2  C   UNL     1       3.880  -6.943  -5.256  0.00  0.00    +0.079 C 
ATOM      3  C   UNL     1       3.956  -8.407  -4.874  0.00  0.00    +0.144 C 
ATOM      4  N   UNL     1       4.813  -8.754  -3.728  0.00  0.00    -0.288 N 
ATOM      5  C   UNL     1       5.470  -7.762  -3.095  0.00  0.00    +0.304 C 
ATOM      6  O   UNL     1       6.180  -8.038  -2.148  0.00  0.00    -0.252 OA
ATOM      7  N   UNL     1       5.371  -6.483  -3.479  0.00  0.00    -0.271 N 
ATOM      8  H   UNL     1       4.902  -9.674  -3.435  0.00  0.00    +0.151 HD
ATOM      9  H   UNL     1       5.872  -5.816  -2.985  0.00  0.00    +0.156 HD
ENDROOT
BRANCH   3  10
ATOM     10  C   UNL     1       2.558  -8.881  -4.568  0.00  0.00    -0.019 A 
ATOM     11  C   UNL     1       1.987  -8.600  -3.340  0.00  0.00    +0.006 A 
ATOM     12  C   UNL     1       0.705  -9.033  -3.057  0.00  0.00    +0.004 A 
ATOM     13  C   UNL     1      -0.008  -9.748  -3.999  0.00  0.00    +0.045 A 
ATOM     14  C   UNL     1       0.563 -10.031  -5.232  0.00  0.00    +0.120 A 
ATOM     15  C   UNL     1       1.847  -9.590  -5.516  0.00  0.00    +0.051 A 
BRANCH  14  16
ATOM     16  O   UNL     1      -0.137 -10.734  -6.161  0.00  0.00    -0.495 OA
ATOM     17  C   UNL     1      -1.456 -11.151  -5.801  0.00  0.00    +0.277 C 
ENDBRANCH  14  16
ENDBRANCH   3  10
BRANCH   2  18
ATOM     18  C   UNL     1       3.083  -6.511  -6.342  0.00  0.00    +0.339 C 
ATOM     19  O   UNL     1       1.883  -6.370  -6.198  0.00  0.00    -0.245 OA
BRANCH  18  20
ATOM     20  O   UNL     1       3.654  -6.254  -7.538  0.00  0.00    -0.462 OA
BRANCH  20  21
ATOM     21  C   UNL     1       2.789  -5.822  -8.590  0.00  0.00    +0.229 C 
ATOM     22  C   UNL     1       3.610  -5.582  -9.858  0.00  0.00    +0.048 C 
ENDBRANCH  20  21
ENDBRANCH  18  20
ENDBRANCH   2  18
BRANCH   1  23
ATOM     23  C   UNL     1       4.551  -4.598  -4.870  0.00  0.00    +0.135 C 
BRANCH  23  27
ATOM     24  C   UNL     1       2.113  -2.019  -2.485  0.00  0.00    +0.100 C 
ATOM     25  C   UNL     1       3.585  -1.666  -2.713  0.00  0.00    +0.030 C 
ATOM     26  C   UNL     1       4.095  -2.404  -3.953  0.00  0.00    +0.085 C 
ATOM     27  N   UNL     1       3.945  -3.852  -3.759  0.00  0.00    -0.297 NA
ATOM     28  C   UNL     1       2.534  -4.221  -3.584  0.00  0.00    +0.085 C 
ATOM     29  C   UNL     1       1.978  -3.537  -2.333  0.00  0.00    +0.030 C 
BRANCH  24  30
ATOM     30  C   UNL     1       1.622  -1.343  -1.231  0.00  0.00    +0.310 C 
ATOM     31  O   UNL     1       1.206  -2.005  -0.310  0.00  0.00    -0.251 OA
BRANCH  30  32
ATOM     32  O   UNL     1       1.646  -0.004  -1.137  0.00  0.00    -0.465 OA
BRANCH  32  34
ATOM     33  C   UNL     1       1.270   2.095   0.001  0.00  0.00    +0.048 C 
ATOM     34  C   UNL     1       1.165   0.570   0.080  0.00  0.00    +0.229 C 
ENDBRANCH  32  34
ENDBRANCH  30  32
ENDBRANCH  24  30
ENDBRANCH  23  27
ENDBRANCH   1  23
TORSDOF 10
