REMARK  Name = ZINC39918827
REMARK  9 active torsions:
REMARK  status: ('A' for Active; 'I' for Inactive)
REMARK    1  A    between atoms: C_1  and  C_2
REMARK    2  A    between atoms: C_2  and  O_3
REMARK    3  A    between atoms: O_3  and  C_4
REMARK    4  A    between atoms: C_4  and  C_6
REMARK    5  A    between atoms: C_7  and  N_35
REMARK    6  A    between atoms: C_11  and  C_34
REMARK    7  A    between atoms: N_12  and  C_33
REMARK    8  A    between atoms: N_23  and  C_26
REMARK    9  A    between atoms: C_26  and  C_27
REMARK                            x       y       z     vdW  Elec       q    Type
REMARK                         _______ _______ _______ _____ _____    ______ ____
ROOT
ATOM      1  C   UNL     1      -2.787  -2.393   0.011  0.00  0.00    +0.117 C 
ATOM      2  C   UNL     1      -2.938  -3.740  -0.087  0.00  0.00    +0.196 C 
ATOM      3  O   UNL     1      -4.149  -4.319  -0.080  0.00  0.00    -0.441 OA
ATOM      4  C   UNL     1      -5.220  -3.648   0.393  0.00  0.00    +0.142 A 
ATOM      5  C   UNL     1      -6.385  -4.351   0.764  0.00  0.00    +0.068 A 
ATOM      6  C   UNL     1      -7.454  -3.676   1.237  0.00  0.00    +0.022 A 
ATOM      7  N   UNL     1      -7.426  -2.323   1.362  0.00  0.00    -0.315 N 
ATOM      8  C   UNL     1      -6.333  -1.617   1.019  0.00  0.00    +0.260 A 
ATOM      9  O   UNL     1      -6.329  -0.402   1.140  0.00  0.00    -0.267 OA
ATOM     10  C   UNL     1      -5.200  -2.275   0.523  0.00  0.00    +0.083 A 
ATOM     11  C   UNL     1      -3.979  -1.490   0.141  0.00  0.00    +0.144 C 
ATOM     12  C   UNL     1      -4.215  -0.729  -1.127  0.00  0.00    -0.002 A 
ATOM     13  C   UNL     1      -4.509  -1.153  -2.404  0.00  0.00    +0.007 A 
ATOM     14  C   UNL     1      -4.671  -0.169  -3.374  0.00  0.00    +0.000 A 
ATOM     15  C   UNL     1      -4.542   1.170  -3.067  0.00  0.00    +0.002 A 
ATOM     16  C   UNL     1      -4.245   1.604  -1.784  0.00  0.00    +0.024 A 
ATOM     17  C   UNL     1      -4.081   0.626  -0.801  0.00  0.00    +0.041 A 
ATOM     18  N   UNL     1      -3.785   0.772   0.542  0.00  0.00    -0.267 N 
ATOM     19  C   UNL     1      -3.706  -0.417   1.175  0.00  0.00    +0.240 C 
ATOM     20  O   UNL     1      -3.463  -0.594   2.350  0.00  0.00    -0.274 OA
ATOM     21  C   UNL     1      -8.604  -1.622   1.879  0.00  0.00    +0.152 C 
ATOM     22  C   UNL     1      -8.697  -4.433   1.631  0.00  0.00    +0.064 C 
ENDROOT
BRANCH   2  23
ATOM     23  N   UNL     1      -1.824  -4.528  -0.198  0.00  0.00    -0.329 N 
ATOM     24  H   UNL     1      -0.941  -4.132  -0.128  0.00  0.00    +0.145 HD
ATOM     25  H   UNL     1      -1.917  -5.482  -0.345  0.00  0.00    +0.145 HD
ENDBRANCH   2  23
BRANCH   1  26
ATOM     26  C   UNL     1      -1.498  -1.839  -0.003  0.00  0.00    +0.342 C 
ATOM     27  O   UNL     1      -1.063  -1.333  -1.023  0.00  0.00    -0.245 OA
BRANCH  26  28
ATOM     28  O   UNL     1      -0.739  -1.867   1.113  0.00  0.00    -0.462 OA
BRANCH  28  30
ATOM     29  C   UNL     1       1.269  -1.409   2.379  0.00  0.00    +0.048 C 
ATOM     30  C   UNL     1       0.564  -1.284   1.027  0.00  0.00    +0.229 C 
ENDBRANCH  28  30
ENDBRANCH  26  28
ENDBRANCH   1  26
BRANCH  18  31
ATOM     31  C   UNL     1      -3.581   2.064   1.200  0.00  0.00    +0.145 C 
BRANCH  31  32
ATOM     32  C   UNL     1      -4.919   2.583   1.732  0.00  0.00    +0.136 C 
ATOM     33  C   UNL     1      -4.736   3.998   2.320  0.00  0.00    +0.035 C 
ATOM     34  C   UNL     1      -5.648   3.954   3.576  0.00  0.00    +0.031 C 
ATOM     35  C   UNL     1      -5.477   2.477   4.012  0.00  0.00    +0.160 C 
ATOM     36  O   UNL     1      -5.386   1.731   2.785  0.00  0.00    -0.375 OA
ENDBRANCH  31  32
ENDBRANCH  18  31
TORSDOF 6
