REMARK  Name = ZINC50593412
REMARK  3 active torsions:
REMARK  status: ('A' for Active; 'I' for Inactive)
REMARK    1  A    between atoms: C_1  and  C_2
REMARK    2  A    between atoms: C_4  and  C_19
REMARK    3  A    between atoms: C_8  and  C_16
REMARK                            x       y       z     vdW  Elec       q    Type
REMARK                         _______ _______ _______ _____ _____    ______ ____
ROOT
ATOM      1  C   UNL     1      -0.100   1.570   0.079  0.00  0.00    +0.069 C 
ATOM      2  C   UNL     1      -0.184   0.065   0.055  0.00  0.00    +0.075 A 
ATOM      3  C   UNL     1      -0.491  -0.720  -1.063  0.00  0.00    +0.062 A 
ATOM      4  C   UNL     1      -0.467  -2.018  -0.680  0.00  0.00    +0.058 A 
ATOM      5  N   UNL     1      -0.153  -2.050   0.643  0.00  0.00    -0.217 N 
ATOM      6  N   UNL     1       0.024  -0.729   1.073  0.00  0.00    -0.169 NA
ATOM      7  C   UNL     1      -0.025  -3.194   1.428  0.00  0.00    +0.165 A 
ATOM      8  C   UNL     1       0.173  -3.071   2.811  0.00  0.00    +0.057 A 
ATOM      9  C   UNL     1       0.298  -4.234   3.576  0.00  0.00    +0.020 A 
ATOM     10  C   UNL     1       0.221  -5.460   2.935  0.00  0.00    -0.025 A 
ATOM     11  C   UNL     1       0.024  -5.504   1.566  0.00  0.00    +0.047 A 
ATOM     12  N   UNL     1      -0.096  -4.387   0.867  0.00  0.00    -0.232 NA
ATOM     13  C   UNL     1      -0.024  -6.948   1.108  0.00  0.00    +0.056 C 
ATOM     14  C   UNL     1       0.599  -7.761   2.262  0.00  0.00    +0.011 C 
ATOM     15  C   UNL     1       0.320  -6.865   3.488  0.00  0.00    +0.037 C 
ATOM     16  C   UNL     1      -0.739  -3.211  -1.560  0.00  0.00    +0.067 C 
ATOM     17 BR   UNL     1      -0.873  -0.081  -2.801  0.00  0.00    -0.047 Br
ENDROOT
BRANCH   8  18
ATOM     18  C   UNL     1       0.248  -1.739   3.446  0.00  0.00    +0.098 C 
ATOM     19  N   UNL     1      -0.736  -0.859   3.267  0.00  0.00    -0.387 N 
ATOM     20  N   UNL     1       1.300  -1.418   4.199  0.00  0.00    -0.344 N 
ATOM     21  H   UNL     1      -0.644   0.046   3.603  0.00  0.00    +0.157 HD
ATOM     22  H   UNL     1       2.017  -2.059   4.329  0.00  0.00    +0.144 HD
ATOM     23  H   UNL     1       1.350  -0.544   4.615  0.00  0.00    +0.144 HD
ATOM     24  H   UNL     1      -1.544  -1.123   2.800  0.00  0.00    +0.157 HD
ENDBRANCH   8  18
TORSDOF 1
