REMARK  Name = ZINC13394651
REMARK  5 active torsions:
REMARK  status: ('A' for Active; 'I' for Inactive)
REMARK    1  A    between atoms: C_1  and  C_2
REMARK    2  A    between atoms: C_5  and  C_9
REMARK    3  A    between atoms: C_9  and  C_23
REMARK    4  A    between atoms: N_10  and  N_11
REMARK    5  A    between atoms: C_14  and  C_17
REMARK                            x       y       z     vdW  Elec       q    Type
REMARK                         _______ _______ _______ _____ _____    ______ ____
ROOT
ATOM      1  N   UNL     1       2.455  -4.085  -0.132  0.00  0.00    -0.215 N 
ATOM      2  C   UNL     1       3.677  -4.733  -0.142  0.00  0.00    +0.178 A 
ATOM      3  N   UNL     1       4.895  -4.220  -0.140  0.00  0.00    -0.223 NA
ATOM      4  C   UNL     1       5.971  -5.002  -0.151  0.00  0.00    +0.088 A 
ATOM      5  C   UNL     1       5.810  -6.361  -0.164  0.00  0.00    +0.077 A 
ATOM      6  S   UNL     1       4.027  -6.486  -0.152  0.00  0.00    -0.059 S 
ATOM      7  H   UNL     1       2.420  -3.115  -0.127  0.00  0.00    +0.176 HD
ENDROOT
BRANCH   4   8
ATOM      8  C   UNL     1       7.327  -4.410  -0.149  0.00  0.00    +0.056 A 
ATOM      9  C   UNL     1       7.691  -3.090  -0.131  0.00  0.00    +0.057 A 
ATOM     10  C   UNL     1       9.034  -2.774  -0.133  0.00  0.00    +0.028 A 
ATOM     11  C   UNL     1       9.949  -3.776  -0.152  0.00  0.00    +0.047 A 
ATOM     12  S   UNL     1       8.912  -5.230  -0.162  0.00  0.00    -0.094 S 
ATOM     13 CL   UNL     1       6.488  -1.839  -0.107  0.00  0.00    -0.082 Cl
ENDBRANCH   4   8
BRANCH   1  15
ATOM     14  C   UNL     1       0.122  -4.224  -0.023  0.00  0.00    +0.074 C 
ATOM     15  N   UNL     1       1.268  -4.829  -0.130  0.00  0.00    -0.185 NA
ATOM     16  C   UNL     1      -1.146  -5.029   0.100  0.00  0.00    +0.068 C 
BRANCH  14  21
ATOM     17  C   UNL     1      -0.106   1.500  -0.102  0.00  0.00    +0.086 C 
ATOM     18  C   UNL     1      -0.046  -0.006  -0.065  0.00  0.00    +0.110 A 
ATOM     19  C   UNL     1      -0.007  -0.633   1.128  0.00  0.00    +0.093 A 
ATOM     20  C   UNL     1       0.049  -2.040   1.181  0.00  0.00    +0.198 A 
ATOM     21  C   UNL     1       0.064  -2.754  -0.022  0.00  0.00    +0.128 A 
ATOM     22  C   UNL     1       0.021  -2.031  -1.238  0.00  0.00    +0.350 A 
ATOM     23  O   UNL     1       0.033  -2.626  -2.302  0.00  0.00    -0.244 OA
ATOM     24  O   UNL     1      -0.037  -0.689  -1.218  0.00  0.00    -0.427 OA
ATOM     25  O   UNL     1       0.088  -2.686   2.369  0.00  0.00    -0.287 OA
ENDBRANCH  14  21
ENDBRANCH   1  15
TORSDOF 3
