REMARK  Name = ZINC16666717
REMARK  4 active torsions:
REMARK  status: ('A' for Active; 'I' for Inactive)
REMARK    1  A    between atoms: C_1  and  N_2
REMARK    2  A    between atoms: C_4  and  C_11
REMARK    3  A    between atoms: C_16  and  N_18
REMARK    4  A    between atoms: N_18  and  C_19
REMARK                            x       y       z     vdW  Elec       q    Type
REMARK                         _______ _______ _______ _____ _____    ______ ____
ROOT
ATOM      1  C   UNL     1      -1.031  -3.240  -1.781  0.00  0.00    +0.030 C 
ATOM      2  C   UNL     1      -0.747  -3.040  -3.097  0.00  0.00    +0.080 C 
ATOM      3  C   UNL     1      -0.445  -4.021  -4.159  0.00  0.00    +0.276 C 
ATOM      4  O   UNL     1      -0.419  -5.222  -3.938  0.00  0.00    -0.267 OA
ATOM      5  N   UNL     1      -0.205  -3.532  -5.357  0.00  0.00    -0.152 NA
ATOM      6  C   UNL     1      -0.230  -2.234  -5.611  0.00  0.00    +0.175 C 
ATOM      7  S   UNL     1      -0.641  -1.516  -4.028  0.00  0.00    -0.050 S 
ENDROOT
BRANCH   1  11
ATOM      8  C   UNL     1      -1.713   1.448  -0.203  0.00  0.00    +0.149 C 
ATOM      9  N   UNL     1      -1.615  -0.013  -0.190  0.00  0.00    -0.349 N 
ATOM     10  C   UNL     1      -1.317  -0.778  -1.270  0.00  0.00    +0.094 A 
ATOM     11  C   UNL     1      -1.307  -2.098  -0.911  0.00  0.00    +0.001 A 
ATOM     12  C   UNL     1      -1.631  -2.141   0.528  0.00  0.00    +0.007 A 
ATOM     13  C   UNL     1      -1.808  -0.805   0.924  0.00  0.00    +0.049 A 
ATOM     14  C   UNL     1      -2.122  -0.523   2.249  0.00  0.00    +0.026 A 
ATOM     15  C   UNL     1      -2.253  -1.549   3.159  0.00  0.00    +0.002 A 
ATOM     16  C   UNL     1      -2.074  -2.868   2.767  0.00  0.00    +0.001 A 
ATOM     17  C   UNL     1      -1.770  -3.169   1.457  0.00  0.00    +0.010 A 
ENDBRANCH   1  11
BRANCH   6  18
ATOM     18  N   UNL     1      -0.002  -1.594  -6.803  0.00  0.00    -0.192 NA
BRANCH  18  19
ATOM     19  C   UNL     1       0.103  -2.333  -7.985  0.00  0.00    +0.056 A 
ATOM     20  C   UNL     1      -0.483  -3.589  -8.074  0.00  0.00    +0.025 A 
ATOM     21  C   UNL     1      -0.378  -4.317  -9.243  0.00  0.00    +0.002 A 
ATOM     22  C   UNL     1       0.311  -3.798 -10.323  0.00  0.00    +0.000 A 
ATOM     23  C   UNL     1       0.897  -2.548 -10.238  0.00  0.00    +0.002 A 
ATOM     24  C   UNL     1       0.790  -1.812  -9.074  0.00  0.00    +0.025 A 
ENDBRANCH  18  19
ENDBRANCH   6  18
TORSDOF 3
