REMARK  Name = ZINC39685282
REMARK  9 active torsions:
REMARK  status: ('A' for Active; 'I' for Inactive)
REMARK    1  A    between atoms: C_1  and  C_2
REMARK    2  A    between atoms: C_2  and  N_3
REMARK    3  A    between atoms: C_4  and  C_25
REMARK    4  A    between atoms: C_7  and  S_8
REMARK    5  A    between atoms: S_8  and  C_9
REMARK    6  A    between atoms: C_9  and  C_10
REMARK    7  A    between atoms: C_15  and  C_24
REMARK    8  A    between atoms: C_16  and  C_21
REMARK    9  A    between atoms: C_29  and  C_30
REMARK                            x       y       z     vdW  Elec       q    Type
REMARK                         _______ _______ _______ _____ _____    ______ ____
ROOT
ATOM      1  C   UNL     1      -1.484  -0.829   4.701  0.00  0.00    +0.151 C 
ENDROOT
BRANCH   1   2
ATOM      2  C   UNL     1      -2.849  -0.559   5.279  0.00  0.00    +0.134 C 
ATOM      3  N   UNL     1      -3.745   0.018   4.515  0.00  0.00    -0.160 NA
ATOM      4  C   UNL     1      -4.982   0.299   4.935  0.00  0.00    +0.271 C 
ATOM      5  O   UNL     1      -5.791   0.836   4.197  0.00  0.00    -0.268 OA
ATOM      6  C   UNL     1      -5.344  -0.068   6.341  0.00  0.00    +0.071 C 
ATOM      7  C   UNL     1      -6.513   0.114   6.974  0.00  0.00    -0.034 C 
ATOM      8  C   UNL     1      -6.617  -0.353   8.408  0.00  0.00    +0.192 C 
ATOM      9  S   UNL     1      -4.935  -1.036   8.700  0.00  0.00    -0.086 S 
ATOM     10  C   UNL     1      -4.247  -0.712   7.096  0.00  0.00    +0.112 C 
ATOM     11  N   UNL     1      -3.083  -0.922   6.531  0.00  0.00    -0.227 NA
ATOM     12  C   UNL     1      -7.682   0.762   6.279  0.00  0.00    +0.041 C 
BRANCH   8  13
ATOM     13  C   UNL     1      -7.667  -1.423   8.553  0.00  0.00    +0.373 C 
ATOM     14  O   UNL     1      -7.349  -2.600   8.514  0.00  0.00    -0.245 OA
ATOM     15  O   UNL     1      -8.836  -1.113   8.709  0.00  0.00    -0.245 OA
ENDBRANCH   8  13
ENDBRANCH   1   2
BRANCH   1  16
ATOM     16  S   UNL     1      -1.427  -0.240   2.986  0.00  0.00    -0.078 S 
BRANCH  16  21
ATOM     17  N   UNL     1       0.745  -0.371   1.226  0.00  0.00    -0.302 N 
ATOM     18  C   UNL     1       2.039  -0.834   1.281  0.00  0.00    +0.168 A 
ATOM     19  N   UNL     1       2.220  -1.326   2.484  0.00  0.00    -0.128 NA
ATOM     20  N   UNL     1       1.144  -1.205   3.175  0.00  0.00    -0.122 NA
ATOM     21  C   UNL     1       0.210  -0.623   2.458  0.00  0.00    +0.192 A 
BRANCH  18  22
ATOM     22  C   UNL     1       3.037  -0.786   0.191  0.00  0.00    +0.060 A 
ATOM     23  C   UNL     1       2.833  -1.160  -1.215  0.00  0.00    +0.053 A 
ATOM     24  C   UNL     1       4.011  -0.954  -1.828  0.00  0.00    +0.196 A 
ATOM     25  O   UNL     1       4.897  -0.495  -0.931  0.00  0.00    -0.467 OA
ATOM     26  C   UNL     1       4.333  -0.382   0.280  0.00  0.00    +0.112 A 
ATOM     27  C   UNL     1       5.019   0.106   1.530  0.00  0.00    +0.087 C 
ENDBRANCH  18  22
BRANCH  17  29
ATOM     28  C   UNL     1       0.400   1.761   0.078  0.00  0.00    +0.027 C 
ATOM     29  C   UNL     1       0.080   0.265   0.085  0.00  0.00    +0.122 C 
ENDBRANCH  17  29
ENDBRANCH  16  21
ENDBRANCH   1  16
TORSDOF 6
