REMARK  Name = ZINC05868005
REMARK  6 active torsions:
REMARK  status: ('A' for Active; 'I' for Inactive)
REMARK    1  A    between atoms: C_1  and  C_2
REMARK    2  A    between atoms: C_2  and  C_31
REMARK    3  A    between atoms: C_7  and  C_11
REMARK    4  A    between atoms: N_22  and  C_23
REMARK    5  A    between atoms: C_26  and  O_29
REMARK    6  A    between atoms: O_29  and  C_30
REMARK                            x       y       z     vdW  Elec       q    Type
REMARK                         _______ _______ _______ _____ _____    ______ ____
ROOT
ATOM      1  C   UNL     1       3.648   1.861  -0.140  0.00  0.00    +0.194 C 
ATOM      2  N   UNL     1       4.725   1.192   0.604  0.00  0.00    -0.321 N 
ATOM      3  C   UNL     1       4.851  -0.189   0.497  0.00  0.00    +0.041 A 
ATOM      4  C   UNL     1       6.074  -0.823   0.645  0.00  0.00    +0.024 A 
ATOM      5  C   UNL     1       6.145  -2.200   0.555  0.00  0.00    +0.002 A 
ATOM      6  C   UNL     1       5.005  -2.951   0.318  0.00  0.00    +0.001 A 
ATOM      7  C   UNL     1       3.780  -2.335   0.164  0.00  0.00    +0.015 A 
ATOM      8  C   UNL     1       3.694  -0.947   0.248  0.00  0.00    +0.058 A 
ATOM      9  C   UNL     1       2.411  -0.241   0.081  0.00  0.00    +0.254 C 
ATOM     10  O   UNL     1       1.369  -0.866   0.029  0.00  0.00    -0.270 OA
ATOM     11  N   UNL     1       2.403   1.103  -0.015  0.00  0.00    -0.245 N 
ATOM     12  H   UNL     1       5.338   1.702   1.156  0.00  0.00    +0.148 HD
ENDROOT
BRANCH   1  18
ATOM     13  C   UNL     1       7.492   2.265  -3.294  0.00  0.00    +0.012 C 
ATOM     14  C   UNL     1       6.060   1.798  -3.026  0.00  0.00    -0.025 C 
ATOM     15  C   UNL     1       5.022   2.313  -4.074  0.00  0.00    -0.000 C 
ATOM     16  C   UNL     1       3.669   1.592  -3.998  0.00  0.00    +0.031 C 
ATOM     17  C   UNL     1       3.288   1.413  -2.531  0.00  0.00    -0.024 C 
ATOM     18  C   UNL     1       4.027   1.962  -1.595  0.00  0.00    -0.032 C 
ATOM     19  C   UNL     1       5.282   2.696  -2.034  0.00  0.00    +0.024 C 
ATOM     20  C   UNL     1       4.999   3.611  -3.240  0.00  0.00    +0.013 C 
ATOM     21  C   UNL     1       5.963   0.303  -2.715  0.00  0.00    +0.012 C 
ENDBRANCH   1  18
BRANCH  11  22
ATOM     22  C   UNL     1       1.180   1.787   0.000  0.00  0.00    +0.039 A 
ATOM     23  C   UNL     1       0.866   2.625   1.062  0.00  0.00    +0.027 A 
ATOM     24  C   UNL     1      -0.342   3.294   1.078  0.00  0.00    +0.047 A 
ATOM     25  C   UNL     1      -1.236   3.138   0.030  0.00  0.00    +0.120 A 
ATOM     26  C   UNL     1      -0.923   2.301  -1.031  0.00  0.00    +0.047 A 
ATOM     27  C   UNL     1       0.282   1.626  -1.046  0.00  0.00    +0.027 A 
BRANCH  25  28
ATOM     28  O   UNL     1      -2.423   3.801   0.044  0.00  0.00    -0.495 OA
ATOM     29  C   UNL     1      -2.681   4.646   1.167  0.00  0.00    +0.277 C 
ENDBRANCH  25  28
ENDBRANCH  11  22
TORSDOF 3
