REMARK  Name = ZINC36954813
REMARK  8 active torsions:
REMARK  status: ('A' for Active; 'I' for Inactive)
REMARK    1  A    between atoms: C_1  and  C_2
REMARK    2  A    between atoms: C_2  and  C_3
REMARK    3  A    between atoms: C_6  and  N_9
REMARK    4  A    between atoms: N_9  and  C_10
REMARK    5  A    between atoms: C_10  and  C_12
REMARK    6  A    between atoms: C_10  and  C_13
REMARK    7  A    between atoms: C_16  and  S_19
REMARK    8  A    between atoms: S_19  and  N_22
REMARK                            x       y       z     vdW  Elec       q    Type
REMARK                         _______ _______ _______ _____ _____    ______ ____
ROOT
ATOM      1  C   UNL     1       1.456  -4.106   4.911  0.00  0.00    -0.044 C 
ATOM      2  C   UNL     1       2.196  -4.612   6.151  0.00  0.00    -0.009 C 
ENDROOT
BRANCH   1   3
ATOM      3  C   UNL     1       0.062  -4.678   4.889  0.00  0.00    -0.062 A 
ATOM      4  C   UNL     1      -0.931  -4.110   5.665  0.00  0.00    +0.004 A 
ATOM      5  C   UNL     1      -2.210  -4.635   5.645  0.00  0.00    +0.029 A 
ATOM      6  C   UNL     1      -2.496  -5.728   4.848  0.00  0.00    +0.105 A 
ATOM      7  C   UNL     1      -1.503  -6.295   4.072  0.00  0.00    +0.029 A 
ATOM      8  C   UNL     1      -0.225  -5.768   4.088  0.00  0.00    +0.004 A 
BRANCH   6   9
ATOM      9  S   UNL     1      -4.125  -6.398   4.824  0.00  0.00    +0.056 S 
ATOM     10  O   UNL     1      -4.001  -7.753   4.415  0.00  0.00    -0.153 OA
ATOM     11  O   UNL     1      -4.736  -6.026   6.051  0.00  0.00    -0.153 OA
BRANCH   9  12
ATOM     12  N   UNL     1      -4.958  -5.616   3.625  0.00  0.00    -0.204 NA
ATOM     13  H   UNL     1      -5.669  -6.074   3.150  0.00  0.00    +0.144 HD
ATOM     14  H   UNL     1      -4.735  -4.700   3.397  0.00  0.00    +0.144 HD
ENDBRANCH   9  12
ENDBRANCH   6   9
ENDBRANCH   1   3
BRANCH   1  15
ATOM     15  N   UNL     1       1.382  -2.639   4.950  0.00  0.00    +0.385 N 
ATOM     16  H   UNL     1       2.311  -2.258   5.057  0.00  0.00    -0.085 HD
ATOM     17  H   UNL     1       0.809  -2.352   5.730  0.00  0.00    -0.085 HD
BRANCH  15  21
ATOM     18  C   UNL     1       0.902  -0.422   1.332  0.00  0.00    -0.011 C 
ATOM     19  C   UNL     1      -0.042  -0.119   2.498  0.00  0.00    +0.002 C 
ATOM     20  C   UNL     1       0.574  -0.633   3.800  0.00  0.00    -0.015 C 
ATOM     21  C   UNL     1       0.791  -2.145   3.700  0.00  0.00    -0.071 C 
ATOM     22  C   UNL     1       1.735  -2.448   2.534  0.00  0.00    -0.015 C 
ATOM     23  C   UNL     1       1.119  -1.933   1.232  0.00  0.00    +0.002 C 
BRANCH  18  25
ATOM     24  C   UNL     1       0.184   1.619   0.082  0.00  0.00    +0.004 C 
ATOM     25  C   UNL     1       0.286   0.093   0.030  0.00  0.00    -0.000 C 
ENDBRANCH  18  25
ENDBRANCH  15  21
ENDBRANCH   1  15
TORSDOF 6
