REMARK  Name = ZINC09579052
REMARK  8 active torsions:
REMARK  status: ('A' for Active; 'I' for Inactive)
REMARK    1  A    between atoms: C_1  and  C_2
REMARK    2  A    between atoms: C_7  and  C_9
REMARK    3  A    between atoms: C_7  and  C_10
REMARK    4  A    between atoms: N_13  and  C_17
REMARK    5  A    between atoms: C_17  and  C_18
REMARK    6  A    between atoms: N_20  and  C_21
REMARK    7  A    between atoms: C_21  and  C_22
REMARK    8  A    between atoms: C_25  and  N_28
REMARK                            x       y       z     vdW  Elec       q    Type
REMARK                         _______ _______ _______ _____ _____    ______ ____
ROOT
ATOM      1  C   UNL     1      -1.997  -4.121  -3.051  0.00  0.00    +0.213 C 
ENDROOT
BRANCH   1  13
ATOM      2  C   UNL     1       0.054   1.519   0.017  0.00  0.00    +0.007 C 
ATOM      3  C   UNL     1       0.059  -0.013   0.008  0.00  0.00    -0.011 C 
ATOM      4  C   UNL     1      -1.384  -0.522   0.018  0.00  0.00    +0.038 C 
ATOM      5  C   UNL     1      -1.391  -2.044  -0.040  0.00  0.00    +0.113 C 
ATOM      6  C   UNL     1      -0.552  -2.679   1.051  0.00  0.00    +0.041 C 
ATOM      7  C   UNL     1       0.809  -2.047   1.282  0.00  0.00    -0.032 C 
ATOM      8  C   UNL     1       0.762  -0.524   1.264  0.00  0.00    +0.009 C 
ATOM      9  C   UNL     1       1.309  -2.486   2.675  0.00  0.00    +0.011 C 
ATOM     10  C   UNL     1       1.823  -2.553   0.252  0.00  0.00    +0.011 C 
ATOM     11  C   UNL     1      -1.004  -2.532  -1.414  0.00  0.00    +0.247 C 
ATOM     12  O   UNL     1      -0.011  -2.260  -2.055  0.00  0.00    -0.273 OA
ATOM     13  N   UNL     1      -2.016  -3.330  -1.818  0.00  0.00    -0.215 N 
ATOM     14  C   UNL     1      -3.034  -3.308  -0.952  0.00  0.00    +0.310 C 
ATOM     15  O   UNL     1      -4.065  -3.934  -1.103  0.00  0.00    -0.252 OA
ATOM     16  N   UNL     1      -2.787  -2.516   0.106  0.00  0.00    -0.285 N 
ATOM     17  H   UNL     1      -3.391  -2.291   0.828  0.00  0.00    +0.151 HD
ENDBRANCH   1  13
BRANCH   1  18
ATOM     18  C   UNL     1      -1.413  -5.481  -2.767  0.00  0.00    +0.231 C 
ATOM     19  O   UNL     1      -1.049  -5.762  -1.645  0.00  0.00    -0.274 OA
ATOM     20  N   UNL     1      -1.296  -6.384  -3.760  0.00  0.00    -0.310 N 
ATOM     21  H   UNL     1      -1.587  -6.160  -4.658  0.00  0.00    +0.149 HD
BRANCH  20  22
ATOM     22  C   UNL     1      -0.728  -7.706  -3.484  0.00  0.00    +0.139 C 
BRANCH  22  23
ATOM     23  C   UNL     1      -0.708  -8.520  -4.753  0.00  0.00    -0.030 A 
ATOM     24  C   UNL     1      -1.796  -9.305  -5.086  0.00  0.00    +0.007 A 
ATOM     25  C   UNL     1      -1.782 -10.052  -6.248  0.00  0.00    +0.024 A 
ATOM     26  C   UNL     1      -0.672 -10.012  -7.082  0.00  0.00    +0.036 A 
ATOM     27  C   UNL     1       0.419  -9.222  -6.745  0.00  0.00    +0.024 A 
ATOM     28  C   UNL     1       0.396  -8.474  -5.584  0.00  0.00    +0.007 A 
BRANCH  26  29
ATOM     29  N   UNL     1      -0.654 -10.768  -8.260  0.00  0.00    -0.271 N 
ATOM     30  C   UNL     1       0.415 -10.710  -9.264  0.00  0.00    +0.114 C 
ATOM     31  C   UNL     1       0.242 -11.982 -10.124  0.00  0.00    +0.029 C 
ATOM     32  C   UNL     1      -1.264 -12.283  -9.941  0.00  0.00    +0.098 C 
ATOM     33  C   UNL     1      -1.610 -11.643  -8.615  0.00  0.00    +0.220 C 
ATOM     34  O   UNL     1      -2.607 -11.883  -7.967  0.00  0.00    -0.275 OA
ENDBRANCH  26  29
ENDBRANCH  22  23
ENDBRANCH  20  22
ENDBRANCH   1  18
TORSDOF 5
