REMARK  Name = ZINC08568089
REMARK  8 active torsions:
REMARK  status: ('A' for Active; 'I' for Inactive)
REMARK    1  A    between atoms: C_1  and  C_2
REMARK    2  A    between atoms: C_2  and  C_3
REMARK    3  A    between atoms: C_3  and  C_4
REMARK    4  A    between atoms: C_4  and  C_5
REMARK    5  A    between atoms: C_12  and  N_29
REMARK    6  A    between atoms: C_13  and  C_27
REMARK    7  A    between atoms: N_21  and  C_24
REMARK    8  A    between atoms: C_24  and  C_25
REMARK                            x       y       z     vdW  Elec       q    Type
REMARK                         _______ _______ _______ _____ _____    ______ ____
ROOT
ATOM      1  C   UNL     1       1.797  -2.052  -2.631  0.00  0.00    +0.071 A 
ATOM      2  C   UNL     1       1.169  -2.347  -3.833  0.00  0.00    +0.061 A 
ATOM      3  C   UNL     1       2.137  -2.643  -4.755  0.00  0.00    +0.223 A 
ATOM      4  N   UNL     1       3.326  -2.535  -4.142  0.00  0.00    -0.246 N 
ATOM      5  H   UNL     1       4.194  -2.687  -4.548  0.00  0.00    +0.192 HD
ATOM      6  N   UNL     1       3.092  -2.159  -2.810  0.00  0.00    -0.176 NA
ATOM      7  O   UNL     1       1.847  -2.974  -6.037  0.00  0.00    -0.423 OA
ATOM      8  C   UNL     1       0.591  -2.753  -6.479  0.00  0.00    +0.201 C 
ATOM      9  C   UNL     1      -0.451  -2.466  -5.664  0.00  0.00    +0.110 C 
ATOM     10  C   UNL     1      -0.295  -2.369  -4.171  0.00  0.00    +0.145 C 
ATOM     11  C   UNL     1      -0.997  -3.491  -3.476  0.00  0.00    -0.001 A 
ATOM     12  C   UNL     1      -0.826  -4.857  -3.541  0.00  0.00    +0.007 A 
ATOM     13  C   UNL     1      -1.661  -5.636  -2.748  0.00  0.00    +0.000 A 
ATOM     14  C   UNL     1      -2.616  -5.064  -1.932  0.00  0.00    +0.002 A 
ATOM     15  C   UNL     1      -2.795  -3.691  -1.863  0.00  0.00    +0.024 A 
ATOM     16  C   UNL     1      -1.963  -2.898  -2.655  0.00  0.00    +0.041 A 
ATOM     17  N   UNL     1      -1.923  -1.521  -2.781  0.00  0.00    -0.266 N 
ATOM     18  C   UNL     1      -0.973  -1.120  -3.653  0.00  0.00    +0.241 C 
ATOM     19  O   UNL     1      -0.713   0.023  -3.962  0.00  0.00    -0.274 OA
ENDROOT
BRANCH   8  20
ATOM     20  N   UNL     1       0.358  -2.824  -7.829  0.00  0.00    -0.328 N 
ATOM     21  H   UNL     1       1.086  -3.028  -8.437  0.00  0.00    +0.145 HD
ATOM     22  H   UNL     1      -0.535  -2.670  -8.176  0.00  0.00    +0.145 HD
ENDBRANCH   8  20
BRANCH   9  23
ATOM     23  C   UNL     1      -1.743  -2.247  -6.242  0.00  0.00    +0.102 C 
ATOM     24  N   UNL     1      -2.768  -2.074  -6.700  0.00  0.00    -0.191 NA
ENDBRANCH   9  23
BRANCH   1  25
ATOM     25  C   UNL     1       1.111  -1.671  -1.345  0.00  0.00    +0.058 C 
BRANCH  25  26
ATOM     26  C   UNL     1       0.944  -2.913  -0.467  0.00  0.00    +0.006 C 
BRANCH  26  28
ATOM     27  C   UNL     1       0.246  -3.741   1.784  0.00  0.00    +0.004 C 
ATOM     28  C   UNL     1       0.372  -2.505   0.892  0.00  0.00    -0.003 C 
ENDBRANCH  26  28
ENDBRANCH  25  26
ENDBRANCH   1  25
BRANCH  17  29
ATOM     29  C   UNL     1      -2.807  -0.605  -2.055  0.00  0.00    +0.140 C 
BRANCH  29  30
ATOM     30  C   UNL     1      -2.134  -0.163  -0.781  0.00  0.00    -0.015 C 
ATOM     31  C   UNL     1      -1.976   1.114  -0.533  0.00  0.00    +0.005 C 
ENDBRANCH  29  30
ENDBRANCH  17  29
TORSDOF 7
