REMARK  Name = ZINC23300119
REMARK  8 active torsions:
REMARK  status: ('A' for Active; 'I' for Inactive)
REMARK    1  A    between atoms: C_1  and  C_2
REMARK    2  A    between atoms: C_2  and  N_3
REMARK    3  A    between atoms: N_3  and  C_4
REMARK    4  A    between atoms: C_11  and  C_13
REMARK    5  A    between atoms: C_13  and  N_14
REMARK    6  A    between atoms: C_19  and  C_26
REMARK    7  A    between atoms: C_22  and  C_24
REMARK    8  A    between atoms: C_22  and  C_25
REMARK                            x       y       z     vdW  Elec       q    Type
REMARK                         _______ _______ _______ _____ _____    ______ ____
ROOT
ATOM      1  N   UNL     1      -0.548   2.183   1.203  0.00  0.00    -0.215 N 
ATOM      2  C   UNL     1      -1.895   2.263   1.211  0.00  0.00    +0.247 C 
ATOM      3  O   UNL     1      -2.649   2.043   0.287  0.00  0.00    -0.273 OA
ATOM      4  C   UNL     1      -2.266   2.683   2.614  0.00  0.00    +0.113 C 
ATOM      5  C   UNL     1      -3.124   1.615   3.284  0.00  0.00    +0.038 C 
ATOM      6  C   UNL     1      -3.458   2.049   4.714  0.00  0.00    -0.011 C 
ATOM      7  C   UNL     1      -4.208   3.382   4.678  0.00  0.00    +0.009 C 
ATOM      8  C   UNL     1      -3.328   4.448   4.023  0.00  0.00    -0.032 C 
ATOM      9  C   UNL     1      -2.993   4.022   2.591  0.00  0.00    +0.041 C 
ATOM     10  C   UNL     1      -2.034   4.604   4.824  0.00  0.00    +0.011 C 
ATOM     11  C   UNL     1      -4.076   5.783   3.997  0.00  0.00    +0.011 C 
ATOM     12  C   UNL     1      -4.337   0.987   5.378  0.00  0.00    +0.007 C 
ATOM     13  N   UNL     1      -0.975   2.810   3.302  0.00  0.00    -0.285 N 
ATOM     14  C   UNL     1      -0.029   2.498   2.396  0.00  0.00    +0.310 C 
ATOM     15  O   UNL     1       1.163   2.502   2.634  0.00  0.00    -0.252 OA
ATOM     16  H   UNL     1      -0.942   3.113   4.359  0.00  0.00    +0.151 HD
ENDROOT
BRANCH   1  17
ATOM     17  C   UNL     1       0.247   1.803   0.033  0.00  0.00    +0.214 C 
BRANCH  17  19
ATOM     18  N   UNL     1       1.153  -0.270  -0.967  0.00  0.00    -0.270 N 
ATOM     19  C   UNL     1       0.447   0.310   0.024  0.00  0.00    +0.238 C 
ATOM     20  O   UNL     1      -0.029  -0.371   0.908  0.00  0.00    -0.274 OA
BRANCH  18  21
ATOM     21  C   UNL     1       1.419  -1.644  -0.926  0.00  0.00    +0.036 A 
ATOM     22  C   UNL     1       2.099  -2.189   0.154  0.00  0.00    +0.026 A 
ATOM     23  C   UNL     1       2.355  -3.546   0.195  0.00  0.00    +0.040 A 
ATOM     24  C   UNL     1       1.943  -4.361  -0.846  0.00  0.00    +0.124 A 
ATOM     25  C   UNL     1       1.269  -3.818  -1.927  0.00  0.00    +0.040 A 
ATOM     26  C   UNL     1       1.006  -2.463  -1.969  0.00  0.00    +0.026 A 
ATOM     27  F   UNL     1       2.198  -5.687  -0.806  0.00  0.00    -0.205 F 
ENDBRANCH  18  21
BRANCH  18  29
ATOM     28  C   UNL     1       3.037   1.077  -1.754  0.00  0.00    +0.025 C 
ATOM     29  C   UNL     1       1.644   0.538  -2.086  0.00  0.00    +0.110 C 
ENDBRANCH  18  29
ENDBRANCH  17  19
ENDBRANCH   1  17
TORSDOF 4
