REMARK  Name = ZINC39498586
REMARK  11 active torsions:
REMARK  status: ('A' for Active; 'I' for Inactive)
REMARK    1  A    between atoms: C_4  and  O_7
REMARK    2  A    between atoms: O_7  and  S_8
REMARK    3  A    between atoms: S_8  and  C_11
REMARK    4  A    between atoms: C_12  and  C_28
REMARK    5  A    between atoms: C_15  and  O_27
REMARK    6  A    between atoms: C_16  and  S_17
REMARK    7  A    between atoms: S_17  and  O_20
REMARK    8  A    between atoms: O_20  and  C_21
REMARK    9  A    between atoms: C_28  and  C_30
REMARK   10  A    between atoms: C_28  and  N_33
REMARK   11  A    between atoms: C_30  and  C_31
REMARK                            x       y       z     vdW  Elec       q    Type
REMARK                         _______ _______ _______ _____ _____    ______ ____
ROOT
ATOM      1  C   UNL     1       4.955  -2.386   0.814  0.00  0.00    +0.165 A 
ATOM      2  C   UNL     1       4.172  -1.754   1.762  0.00  0.00    +0.004 A 
ATOM      3  C   UNL     1       3.357  -2.496   2.596  0.00  0.00    +0.011 A 
ATOM      4  C   UNL     1       3.322  -3.873   2.484  0.00  0.00    +0.048 A 
ATOM      5  C   UNL     1       4.107  -4.510   1.533  0.00  0.00    +0.147 A 
ATOM      6  C   UNL     1       4.920  -3.762   0.694  0.00  0.00    +0.198 A 
ENDROOT
BRANCH   1   7
ATOM      7  S   UNL     1       5.993  -1.436  -0.247  0.00  0.00    +0.153 S 
ATOM      8  O   UNL     1       7.067  -2.284  -0.629  0.00  0.00    -0.131 OA
ATOM      9  O   UNL     1       6.201  -0.188   0.400  0.00  0.00    -0.131 OA
BRANCH   7  10
ATOM     10  O   UNL     1       5.197  -1.144  -1.511  0.00  0.00    -0.342 OA
BRANCH  10  14
ATOM     11  C   UNL     1       2.392   1.849  -1.076  0.00  0.00    +0.000 A 
ATOM     12  C   UNL     1       3.676   2.160  -1.485  0.00  0.00    +0.004 A 
ATOM     13  C   UNL     1       4.617   1.160  -1.632  0.00  0.00    +0.048 A 
ATOM     14  C   UNL     1       4.274  -0.158  -1.367  0.00  0.00    +0.157 A 
ATOM     15  C   UNL     1       2.985  -0.468  -0.956  0.00  0.00    +0.048 A 
ATOM     16  C   UNL     1       2.047   0.536  -0.812  0.00  0.00    +0.004 A 
ENDBRANCH  10  14
ENDBRANCH   7  10
ENDBRANCH   1   7
BRANCH   6  17
ATOM     17  S   UNL     1       5.911  -4.567  -0.520  0.00  0.00    +0.156 S 
ATOM     18  O   UNL     1       7.257  -4.466  -0.077  0.00  0.00    -0.131 OA
ATOM     19  O   UNL     1       5.289  -5.816  -0.790  0.00  0.00    -0.131 OA
BRANCH  17  20
ATOM     20  O   UNL     1       5.812  -3.746  -1.798  0.00  0.00    -0.342 OA
BRANCH  20  21
ATOM     21  C   UNL     1       4.720  -4.032  -2.555  0.00  0.00    +0.157 A 
ATOM     22  C   UNL     1       4.803  -4.982  -3.563  0.00  0.00    +0.048 A 
ATOM     23  C   UNL     1       3.691  -5.271  -4.331  0.00  0.00    +0.004 A 
ATOM     24  C   UNL     1       2.497  -4.614  -4.096  0.00  0.00    +0.000 A 
ATOM     25  C   UNL     1       2.413  -3.667  -3.093  0.00  0.00    +0.004 A 
ATOM     26  C   UNL     1       3.520  -3.378  -2.318  0.00  0.00    +0.048 A 
ENDBRANCH  20  21
ENDBRANCH  17  20
ENDBRANCH   6  17
BRANCH   5  27
ATOM     27  O   UNL     1       4.074  -5.864   1.421  0.00  0.00    -0.505 OA
ATOM     28  H   UNL     1       3.454  -6.188   0.753  0.00  0.00    +0.292 HD
ENDBRANCH   5  27
BRANCH   2  29
ATOM     29  C   UNL     1       4.209  -0.252   1.888  0.00  0.00    +0.112 C 
BRANCH  29  30
ATOM     30  N   UNL     1       2.936   0.223   2.436  0.00  0.00    -0.311 N 
ATOM     31  C   UNL     1       2.498   1.464   2.144  0.00  0.00    +0.326 C 
ATOM     32  O   UNL     1       3.158   2.187   1.427  0.00  0.00    -0.280 OA
ATOM     33  H   UNL     1       2.409  -0.355   3.009  0.00  0.00    +0.149 HD
ENDBRANCH  29  30
BRANCH  29  34
ATOM     34  C   UNL     1       5.350   0.154   2.822  0.00  0.00    +0.097 C 
BRANCH  34  35
ATOM     35  C   UNL     1       5.495   1.654   2.816  0.00  0.00    +0.225 C 
ATOM     36  O   UNL     1       5.454   2.269   3.854  0.00  0.00    -0.301 OA
ENDBRANCH  34  35
ENDBRANCH  29  34
ENDBRANCH   2  29
TORSDOF 11
