REMARK  Name = ZINC39325308
REMARK  10 active torsions:
REMARK  status: ('A' for Active; 'I' for Inactive)
REMARK    1  A    between atoms: C_1  and  O_2
REMARK    2  A    between atoms: O_2  and  C_3
REMARK    3  A    between atoms: C_3  and  C_5
REMARK    4  A    between atoms: C_5  and  C_6
REMARK    5  A    between atoms: C_7  and  C_26
REMARK    6  A    between atoms: C_8  and  C_16
REMARK    7  A    between atoms: C_10  and  C_14
REMARK    8  A    between atoms: C_11  and  N_13
REMARK    9  A    between atoms: C_26  and  O_28
REMARK   10  A    between atoms: O_28  and  C_29
REMARK                            x       y       z     vdW  Elec       q    Type
REMARK                         _______ _______ _______ _____ _____    ______ ____
ROOT
ATOM      1  C   UNL     1      -2.640  -2.765   0.005  0.00  0.00    +0.129 C 
ATOM      2  C   UNL     1      -3.313  -2.774  -1.152  0.00  0.00    +0.088 C 
ATOM      3  C   UNL     1      -4.798  -3.015  -1.188  0.00  0.00    +0.106 C 
ATOM      4  C   UNL     1      -5.253  -3.606   0.118  0.00  0.00    +0.098 C 
ATOM      5  C   UNL     1      -4.463  -3.551   1.218  0.00  0.00    +0.198 C 
ATOM      6  O   UNL     1      -3.249  -2.974   1.183  0.00  0.00    -0.444 OA
ENDROOT
BRANCH   3   7
ATOM      7  C   UNL     1      -5.511  -1.707  -1.419  0.00  0.00    -0.012 A 
ATOM      8  C   UNL     1      -5.356  -0.668  -0.520  0.00  0.00    +0.055 A 
ATOM      9  C   UNL     1      -6.010   0.534  -0.730  0.00  0.00    +0.167 A 
ATOM     10  C   UNL     1      -6.824   0.694  -1.849  0.00  0.00    +0.168 A 
ATOM     11  C   UNL     1      -6.975  -0.350  -2.746  0.00  0.00    +0.069 A 
ATOM     12  C   UNL     1      -6.315  -1.547  -2.532  0.00  0.00    +0.049 A 
ATOM     13 CL   UNL     1      -6.501  -2.853  -3.662  0.00  0.00    -0.083 Cl
ATOM     14  O   UNL     1      -7.350   1.954  -1.829  0.00  0.00    -0.453 OA
ATOM     15  C   UNL     1      -7.176   2.422  -0.478  0.00  0.00    +0.466 C 
ATOM     16  O   UNL     1      -6.025   1.694  -0.010  0.00  0.00    -0.453 OA
ENDBRANCH   3   7
BRANCH   5  17
ATOM     17  N   UNL     1      -4.911  -4.100   2.394  0.00  0.00    -0.328 N 
ATOM     18  H   UNL     1      -5.784  -4.521   2.432  0.00  0.00    +0.145 HD
ATOM     19  H   UNL     1      -4.354  -4.066   3.188  0.00  0.00    +0.145 HD
ENDBRANCH   5  17
BRANCH   4  20
ATOM     20  C   UNL     1      -6.537  -4.235   0.201  0.00  0.00    +0.101 C 
ATOM     21  N   UNL     1      -7.556  -4.734   0.266  0.00  0.00    -0.191 NA
ENDBRANCH   4  20
BRANCH   2  22
ATOM     22  C   UNL     1      -2.615  -2.553  -2.365  0.00  0.00    +0.339 C 
ATOM     23  O   UNL     1      -2.317  -3.495  -3.075  0.00  0.00    -0.245 OA
BRANCH  22  24
ATOM     24  O   UNL     1      -2.282  -1.298  -2.732  0.00  0.00    -0.465 OA
ATOM     25  C   UNL     1      -1.579  -1.149  -3.967  0.00  0.00    +0.280 C 
ENDBRANCH  22  24
ENDBRANCH   2  22
BRANCH   1  26
ATOM     26  C   UNL     1      -1.153  -2.519  -0.015  0.00  0.00    +0.195 C 
BRANCH  26  27
ATOM     27  C   UNL     1      -0.883  -1.055   0.222  0.00  0.00    +0.314 C 
ATOM     28  O   UNL     1      -1.803  -0.290   0.390  0.00  0.00    -0.250 OA
BRANCH  27  30
ATOM     29  C   UNL     1       0.562   0.797   0.475  0.00  0.00    +0.280 C 
ATOM     30  O   UNL     1       0.380  -0.601   0.246  0.00  0.00    -0.468 OA
ENDBRANCH  27  30
ENDBRANCH  26  27
ENDBRANCH   1  26
TORSDOF 8
