REMARK  Name = ZINC13500694
REMARK  13 active torsions:
REMARK  status: ('A' for Active; 'I' for Inactive)
REMARK    1  A    between atoms: C_1  and  C_2
REMARK    2  A    between atoms: C_2  and  C_3
REMARK    3  A    between atoms: C_3  and  C_4
REMARK    4  A    between atoms: C_3  and  C_5
REMARK    5  A    between atoms: C_3  and  N_6
REMARK    6  A    between atoms: C_7  and  C_11
REMARK    7  A    between atoms: C_11  and  C_13
REMARK    8  A    between atoms: C_11  and  N_74
REMARK    9  A    between atoms: C_13  and  C_14
REMARK   10  A    between atoms: C_13  and  C_15
REMARK   11  A    between atoms: C_16  and  C_17
REMARK   12  A    between atoms: C_16  and  N_74
REMARK   13  A    between atoms: C_32  and  N_74
REMARK                            x       y       z     vdW  Elec       q    Type
REMARK                         _______ _______ _______ _____ _____    ______ ____
ROOT
ATOM      1  N   UNL     1      -1.305  -0.888   2.274  0.00  0.00    +0.391 N 
ATOM      2  H   UNL     1      -1.061  -1.543   3.027  0.00  0.00    -0.080 HD
ENDROOT
BRANCH   1   3
ATOM      3  C   UNL     1      -0.717  -1.373   1.008  0.00  0.00    -0.067 C 
ATOM      4  C   UNL     1       0.786  -1.576   1.206  0.00  0.00    -0.015 C 
ATOM      5  C   UNL     1       1.405  -2.100  -0.092  0.00  0.00    -0.002 C 
ATOM      6  C   UNL     1       1.171  -1.087  -1.214  0.00  0.00    -0.000 C 
ATOM      7  C   UNL     1      -0.332  -0.883  -1.412  0.00  0.00    -0.002 C 
ATOM      8  C   UNL     1      -0.951  -0.360  -0.115  0.00  0.00    -0.015 C 
ENDBRANCH   1   3
BRANCH   1   9
ATOM      9  C   UNL     1      -0.762   0.446   2.605  0.00  0.00    +0.006 C 
BRANCH   9  11
ATOM     10  N   UNL     1      -1.136   2.698   1.467  0.00  0.00    -0.225 N 
ATOM     11  C   UNL     1      -1.586   1.526   1.951  0.00  0.00    +0.139 A 
ATOM     12  N   UNL     1      -2.881   1.507   1.748  0.00  0.00    -0.115 NA
ATOM     13  N   UNL     1      -3.208   2.608   1.165  0.00  0.00    -0.023 NA
ATOM     14  N   UNL     1      -2.156   3.329   0.991  0.00  0.00    -0.043 NA
BRANCH  10  15
ATOM     15  C   UNL     1       0.251   3.168   1.476  0.00  0.00    +0.061 C 
ATOM     16  C   UNL     1       0.800   3.110   2.903  0.00  0.00    +0.036 C 
ATOM     17  C   UNL     1       1.098   2.275   0.568  0.00  0.00    +0.036 C 
BRANCH  15  19
ATOM     18  C   UNL     1       1.754   5.101   0.977  0.00  0.00    +0.006 C 
ATOM     19  C   UNL     1       0.305   4.610   0.968  0.00  0.00    +0.026 C 
ENDBRANCH  15  19
ENDBRANCH  10  15
ENDBRANCH   9  11
BRANCH   9  20
ATOM     20  C   UNL     1      -0.800   0.625   4.124  0.00  0.00    -0.024 C 
ATOM     21  C   UNL     1       0.143  -0.385   4.780  0.00  0.00    +0.006 C 
ATOM     22  C   UNL     1      -2.226   0.396   4.629  0.00  0.00    +0.006 C 
ENDBRANCH   9  20
ENDBRANCH   1   9
BRANCH   1  23
ATOM     23  C   UNL     1      -2.776  -0.820   2.155  0.00  0.00    -0.036 C 
BRANCH  23  24
ATOM     24  C   UNL     1      -3.334  -2.217   2.245  0.00  0.00    +0.001 A 
ATOM     25  C   UNL     1      -3.738  -2.708   3.444  0.00  0.00    +0.017 A 
ATOM     26  C   UNL     1      -4.280  -4.065   3.498  0.00  0.00    +0.002 A 
ATOM     27  C   UNL     1      -4.715  -4.622   4.707  0.00  0.00    +0.059 A 
ATOM     28  C   UNL     1      -5.218  -5.904   4.727  0.00  0.00    +0.167 A 
ATOM     29  C   UNL     1      -5.295  -6.650   3.544  0.00  0.00    +0.168 A 
ATOM     30  C   UNL     1      -4.865  -6.109   2.346  0.00  0.00    +0.075 A 
ATOM     31  C   UNL     1      -4.355  -4.817   2.310  0.00  0.00    +0.053 A 
ATOM     32  N   UNL     1      -3.922  -4.261   1.123  0.00  0.00    -0.322 N 
ATOM     33  H   UNL     1      -3.973  -4.780   0.305  0.00  0.00    +0.169 HD
ATOM     34  C   UNL     1      -3.429  -3.011   1.084  0.00  0.00    +0.251 A 
ATOM     35  O   UNL     1      -3.055  -2.553   0.018  0.00  0.00    -0.268 OA
ATOM     36  O   UNL     1      -5.826  -7.872   3.838  0.00  0.00    -0.453 OA
ATOM     37  C   UNL     1      -6.452  -7.722   5.125  0.00  0.00    +0.466 C 
ATOM     38  O   UNL     1      -5.702  -6.665   5.752  0.00  0.00    -0.453 OA
ENDBRANCH  23  24
ENDBRANCH   1  23
TORSDOF 8
