REMARK  Name = ZINC06142832
REMARK  13 active torsions:
REMARK  status: ('A' for Active; 'I' for Inactive)
REMARK    1  A    between atoms: C_1  and  C_2
REMARK    2  A    between atoms: C_2  and  C_3
REMARK    3  A    between atoms: C_2  and  O_4
REMARK    4  A    between atoms: O_4  and  C_5
REMARK    5  A    between atoms: C_5  and  C_7
REMARK    6  A    between atoms: C_7  and  C_9
REMARK    7  A    between atoms: C_7  and  C_31
REMARK    8  A    between atoms: C_11  and  N_16
REMARK    9  A    between atoms: C_14  and  O_15
REMARK   10  A    between atoms: N_16  and  S_17
REMARK   11  A    between atoms: S_17  and  C_20
REMARK   12  A    between atoms: N_29  and  C_30
REMARK   13  A    between atoms: C_31  and  C_33
REMARK                            x       y       z     vdW  Elec       q    Type
REMARK                         _______ _______ _______ _____ _____    ______ ____
ROOT
ATOM      1  C   UNL     1       2.398   8.910   3.692  0.00  0.00    +0.017 A 
ATOM      2  C   UNL     1       1.221   8.560   4.326  0.00  0.00    +0.033 A 
ATOM      3  C   UNL     1       0.443   7.526   3.823  0.00  0.00    +0.049 A 
ATOM      4  C   UNL     1       0.851   6.840   2.686  0.00  0.00    +0.028 A 
ATOM      5  C   UNL     1       2.024   7.195   2.050  0.00  0.00    +0.047 A 
ATOM      6  C   UNL     1       2.801   8.228   2.553  0.00  0.00    +0.121 A 
ENDROOT
BRANCH   6   7
ATOM      7  O   UNL     1       3.960   8.573   1.929  0.00  0.00    -0.506 OA
ATOM      8  H   UNL     1       4.737   8.096   2.251  0.00  0.00    +0.292 HD
ENDBRANCH   6   7
BRANCH   3   9
ATOM      9  N   UNL     1      -0.749   7.172   4.465  0.00  0.00    -0.216 N 
ATOM     10  H   UNL     1      -0.722   6.679   5.300  0.00  0.00    +0.174 HD
BRANCH   9  11
ATOM     11  S   UNL     1      -2.205   7.593   3.799  0.00  0.00    +0.072 S 
ATOM     12  O   UNL     1      -3.208   7.167   4.711  0.00  0.00    -0.150 OA
ATOM     13  O   UNL     1      -2.173   7.160   2.446  0.00  0.00    -0.150 OA
BRANCH  11  14
ATOM     14  C   UNL     1      -2.272   9.354   3.763  0.00  0.00    +0.112 A 
ATOM     15  C   UNL     1      -2.687  10.050   4.884  0.00  0.00    +0.031 A 
ATOM     16  C   UNL     1      -2.742  11.430   4.864  0.00  0.00    +0.031 A 
ATOM     17  C   UNL     1      -2.374  12.118   3.719  0.00  0.00    +0.090 A 
ATOM     18  C   UNL     1      -1.961  11.417   2.586  0.00  0.00    +0.159 A 
ATOM     19  C   UNL     1      -1.909  10.032   2.616  0.00  0.00    +0.077 A 
ATOM     20  O   UNL     1      -1.674  12.332   1.628  0.00  0.00    -0.407 OA
ATOM     21  C   UNL     1      -1.895  13.563   2.114  0.00  0.00    +0.421 A 
ATOM     22  O   UNL     1      -1.732  14.601   1.501  0.00  0.00    -0.223 OA
ATOM     23  N   UNL     1      -2.327  13.472   3.388  0.00  0.00    -0.277 N 
ATOM     24  C   UNL     1      -2.678  14.591   4.266  0.00  0.00    +0.156 C 
ENDBRANCH  11  14
ENDBRANCH   9  11
ENDBRANCH   3   9
BRANCH   1  25
ATOM     25  C   UNL     1       3.243  10.031   4.237  0.00  0.00    +0.206 C 
BRANCH  25  26
ATOM     26  C   UNL     1       2.441  11.307   4.245  0.00  0.00    +0.323 C 
ATOM     27  O   UNL     1       1.300  11.305   3.848  0.00  0.00    -0.250 OA
BRANCH  26  28
ATOM     28  O   UNL     1       2.994  12.445   4.693  0.00  0.00    -0.461 OA
BRANCH  28  30
ATOM     29  C   UNL     1       1.407  13.754   5.997  0.00  0.00    +0.052 C 
ATOM     30  C   UNL     1       2.162  13.635   4.671  0.00  0.00    +0.170 C 
ATOM     31  C   UNL     1       3.044  14.870   4.474  0.00  0.00    +0.052 C 
ENDBRANCH  28  30
ENDBRANCH  26  28
ENDBRANCH  25  26
BRANCH  25  32
ATOM     32  C   UNL     1       3.672   9.699   5.643  0.00  0.00    +0.254 C 
ATOM     33  O   UNL     1       3.012   8.941   6.312  0.00  0.00    -0.287 OA
BRANCH  32  34
ATOM     34  C   UNL     1       4.924  10.313   6.214  0.00  0.00    +0.452 C 
ATOM     35  F   UNL     1       5.824   9.300   6.562  0.00  0.00    -0.163 F 
ATOM     36  F   UNL     1       5.511  11.150   5.258  0.00  0.00    -0.163 F 
ATOM     37  F   UNL     1       4.601  11.061   7.351  0.00  0.00    -0.163 F 
ENDBRANCH  32  34
ENDBRANCH  25  32
ENDBRANCH   1  25
TORSDOF 10
