REMARK  Name = ZINC42187733
REMARK  3 active torsions:
REMARK  status: ('A' for Active; 'I' for Inactive)
REMARK    1  A    between atoms: C_1  and  C_2
REMARK    2  A    between atoms: C_2  and  N_7
REMARK    3  A    between atoms: N_12  and  C_13
REMARK                            x       y       z     vdW  Elec       q    Type
REMARK                         _______ _______ _______ _____ _____    ______ ____
ROOT
ATOM      1  N   UNL     1      -1.367  -0.524  -0.021  0.00  0.00    -0.307 N 
ATOM      2  C   UNL     1      -2.216  -0.192  -1.062  0.00  0.00    +0.240 A 
ATOM      3  N   UNL     1      -1.927   0.571  -2.093  0.00  0.00    -0.092 NA
ATOM      4  N   UNL     1      -2.940   0.676  -2.874  0.00  0.00    -0.021 NA
ATOM      5  N   UNL     1      -3.936   0.001  -2.411  0.00  0.00    -0.038 NA
ATOM      6  N   UNL     1      -3.501  -0.596  -1.215  0.00  0.00    -0.181 N 
ATOM      7  H   UNL     1      -1.679  -1.101   0.693  0.00  0.00    +0.149 HD
ENDROOT
BRANCH   1   9
ATOM      8  C   UNL     1      -0.019   1.526   0.010  0.00  0.00    +0.031 C 
ATOM      9  C   UNL     1       0.002  -0.004   0.002  0.00  0.00    +0.032 C 
ATOM     10  C   UNL     1       0.781  -0.514  -1.223  0.00  0.00    +0.025 C 
ATOM     11  C   UNL     1       1.971  -1.331  -0.679  0.00  0.00    +0.002 C 
ATOM     12  C   UNL     1       1.516  -1.771   0.734  0.00  0.00    +0.002 C 
ATOM     13  C   UNL     1       0.746  -0.529   1.247  0.00  0.00    +0.025 C 
ENDBRANCH   1   9
BRANCH   6  14
ATOM     14  C   UNL     1      -4.239  -1.429  -0.361  0.00  0.00    +0.071 A 
ATOM     15  C   UNL     1      -3.610  -2.468   0.312  0.00  0.00    +0.028 A 
ATOM     16  C   UNL     1      -4.339  -3.287   1.152  0.00  0.00    +0.002 A 
ATOM     17  C   UNL     1      -5.695  -3.073   1.323  0.00  0.00    +0.000 A 
ATOM     18  C   UNL     1      -6.324  -2.039   0.654  0.00  0.00    +0.002 A 
ATOM     19  C   UNL     1      -5.599  -1.213  -0.183  0.00  0.00    +0.028 A 
ENDBRANCH   6  14
TORSDOF 2
