REMARK  Name = ZINC36265655
REMARK  4 active torsions:
REMARK  status: ('A' for Active; 'I' for Inactive)
REMARK    1  A    between atoms: C_1  and  C_2
REMARK    2  A    between atoms: C_5  and  N_21
REMARK    3  A    between atoms: C_7  and  S_8
REMARK    4  A    between atoms: S_8  and  N_11
REMARK                            x       y       z     vdW  Elec       q    Type
REMARK                         _______ _______ _______ _____ _____    ______ ____
ROOT
ATOM      1  S   UNL     1       0.141   0.377   2.758  0.00  0.00    +0.061 S 
ATOM      2  O   UNL     1       0.381  -1.023   2.698  0.00  0.00    -0.153 OA
ATOM      3  O   UNL     1      -0.481   1.089   1.698  0.00  0.00    -0.153 OA
ENDROOT
BRANCH   1   4
ATOM      4  N   UNL     1       1.608   1.098   3.017  0.00  0.00    -0.175 NA
ATOM      5  C   UNL     1       2.827   0.417   3.488  0.00  0.00    +0.110 C 
ATOM      6  C   UNL     1       3.995   1.288   2.962  0.00  0.00    +0.020 C 
ATOM      7  C   UNL     1       3.420   2.719   3.115  0.00  0.00    -0.010 C 
ATOM      8  C   UNL     1       1.910   2.520   2.809  0.00  0.00    +0.064 C 
ATOM      9  C   UNL     1       1.812   2.838   1.297  0.00  0.00    -0.062 C 
ATOM     10  N   UNL     1       2.797   3.931   1.104  0.00  0.00    +0.380 N 
ATOM     11  C   UNL     1       3.963   3.596   1.974  0.00  0.00    -0.078 C 
ATOM     12  H   UNL     1       3.081   3.977   0.137  0.00  0.00    -0.086 HD
ATOM     13  H   UNL     1       2.402   4.812   1.395  0.00  0.00    -0.086 HD
ENDBRANCH   1   4
BRANCH   1  20
ATOM     14  C   UNL     1       0.776  -0.747   5.494  0.00  0.00    +0.046 C 
ATOM     15  C   UNL     1      -0.467   0.101   5.405  0.00  0.00    -0.024 A 
ATOM     16  C   UNL     1      -1.232   0.326   6.534  0.00  0.00    +0.007 A 
ATOM     17  C   UNL     1      -2.372   1.103   6.453  0.00  0.00    +0.033 A 
ATOM     18  C   UNL     1      -2.747   1.656   5.242  0.00  0.00    +0.128 A 
ATOM     19  C   UNL     1      -1.982   1.431   4.114  0.00  0.00    +0.061 A 
ATOM     20  C   UNL     1      -0.839   0.657   4.196  0.00  0.00    +0.111 A 
BRANCH  18  21
ATOM     21  N   UNL     1      -3.969   2.487   5.155  0.00  0.00    +0.056 N 
ATOM     22  O   UNL     1      -4.638   2.683   6.142  0.00  0.00    -0.126 OA
ATOM     23  O   UNL     1      -4.296   2.970   4.096  0.00  0.00    -0.126 OA
ENDBRANCH  18  21
ENDBRANCH   1  20
TORSDOF 3
