REMARK  Name = ZINC01767771
REMARK  6 active torsions:
REMARK  status: ('A' for Active; 'I' for Inactive)
REMARK    1  A    between atoms: C_3  and  C_29
REMARK    2  A    between atoms: C_5  and  N_7
REMARK    3  A    between atoms: C_8  and  C_10
REMARK    4  A    between atoms: C_10  and  C_11
REMARK    5  A    between atoms: C_11  and  N_12
REMARK    6  A    between atoms: C_16  and  C_17
REMARK                            x       y       z     vdW  Elec       q    Type
REMARK                         _______ _______ _______ _____ _____    ______ ____
ROOT
ATOM      1  N   UNL     1      -2.110  -6.266   0.268  0.00  0.00    -0.255 N 
ATOM      2  C   UNL     1      -1.824  -7.000  -0.795  0.00  0.00    +0.258 C 
ATOM      3  O   UNL     1      -1.699  -6.503  -1.899  0.00  0.00    -0.269 OA
ATOM      4  C   UNL     1      -1.665  -8.451  -0.574  0.00  0.00    +0.077 C 
ATOM      5  C   UNL     1      -1.375  -9.435  -1.463  0.00  0.00    +0.028 C 
ATOM      6  S   UNL     1      -1.957  -8.556   1.186  0.00  0.00    -0.061 S 
ATOM      7  C   UNL     1      -2.242  -6.819   1.491  0.00  0.00    +0.121 C 
ATOM      8  S   UNL     1      -2.599  -6.045   2.975  0.00  0.00    -0.027 S 
ENDROOT
BRANCH   5   9
ATOM      9  C   UNL     1      -1.449 -10.842  -1.051  0.00  0.00    -0.020 A 
ATOM     10  C   UNL     1      -2.002 -11.182   0.190  0.00  0.00    +0.012 A 
ATOM     11  C   UNL     1      -2.070 -12.504   0.573  0.00  0.00    +0.050 A 
ATOM     12  C   UNL     1      -1.593 -13.502  -0.267  0.00  0.00    +0.166 A 
ATOM     13  C   UNL     1      -1.040 -13.170  -1.505  0.00  0.00    +0.167 A 
ATOM     14  C   UNL     1      -0.973 -11.849  -1.900  0.00  0.00    +0.057 A 
ATOM     15  O   UNL     1      -0.651 -14.320  -2.130  0.00  0.00    -0.453 OA
ATOM     16  C   UNL     1      -0.595 -15.319  -1.095  0.00  0.00    +0.466 C 
ATOM     17  O   UNL     1      -1.548 -14.857  -0.120  0.00  0.00    -0.453 OA
ENDBRANCH   5   9
BRANCH   1  18
ATOM     18  C   UNL     1      -2.280  -4.819   0.115  0.00  0.00    +0.124 C 
BRANCH  18  19
ATOM     19  C   UNL     1      -0.929  -4.124   0.301  0.00  0.00    +0.115 C 
BRANCH  19  21
ATOM     20  N   UNL     1      -0.042  -1.816   0.267  0.00  0.00    -0.285 N 
ATOM     21  C   UNL     1      -1.105  -2.636   0.143  0.00  0.00    +0.219 C 
ATOM     22  O   UNL     1      -2.201  -2.176  -0.095  0.00  0.00    -0.275 OA
ATOM     23  H   UNL     1       0.847  -2.187   0.376  0.00  0.00    +0.155 HD
BRANCH  20  28
ATOM     24  C   UNL     1       0.620   1.766  -0.271  0.00  0.00    +0.003 A 
ATOM     25  C   UNL     1      -0.561   2.328   0.170  0.00  0.00    +0.015 A 
ATOM     26  C   UNL     1      -1.587   1.511   0.651  0.00  0.00    +0.065 A 
ATOM     27  C   UNL     1      -1.412   0.126   0.683  0.00  0.00    +0.038 A 
ATOM     28  C   UNL     1      -0.223  -0.428   0.237  0.00  0.00    +0.034 A 
ATOM     29  C   UNL     1       0.792   0.395  -0.239  0.00  0.00    +0.023 A 
BRANCH  26  30
ATOM     30  C   UNL     1      -2.850   2.109   1.124  0.00  0.00    +0.387 C 
ATOM     31  O   UNL     1      -3.000   3.322   1.096  0.00  0.00    -0.241 OA
ATOM     32  O   UNL     1      -3.746   1.391   1.545  0.00  0.00    -0.241 OA
ENDBRANCH  26  30
ENDBRANCH  20  28
ENDBRANCH  19  21
ENDBRANCH  18  19
ENDBRANCH   1  18
TORSDOF 6
