REMARK  Name = ZINC13272748
REMARK  9 active torsions:
REMARK  status: ('A' for Active; 'I' for Inactive)
REMARK    1  A    between atoms: C_4  and  C_29
REMARK    2  A    between atoms: C_5  and  C_7
REMARK    3  A    between atoms: C_7  and  N_8
REMARK    4  A    between atoms: N_8  and  C_9
REMARK    5  A    between atoms: C_12  and  S_18
REMARK    6  A    between atoms: C_14  and  N_15
REMARK    7  A    between atoms: S_18  and  N_21
REMARK    8  A    between atoms: C_24  and  C_27
REMARK    9  A    between atoms: C_29  and  N_30
REMARK                            x       y       z     vdW  Elec       q    Type
REMARK                         _______ _______ _______ _____ _____    ______ ____
ROOT
ATOM      1  C   UNL     1       4.739   3.999   2.470  0.00  0.00    +0.058 A 
ATOM      2  C   UNL     1       3.625   4.752   2.817  0.00  0.00    +0.027 A 
ATOM      3  C   UNL     1       3.532   5.302   4.081  0.00  0.00    +0.030 A 
ATOM      4  C   UNL     1       4.546   5.103   4.999  0.00  0.00    +0.108 A 
ATOM      5  C   UNL     1       5.657   4.354   4.657  0.00  0.00    +0.063 A 
ATOM      6  C   UNL     1       5.753   3.797   3.396  0.00  0.00    +0.149 A 
ENDROOT
BRANCH   6   7
ATOM      7  N   UNL     1       6.940   2.990   3.032  0.00  0.00    +0.058 N 
ATOM      8  O   UNL     1       7.777   2.723   3.876  0.00  0.00    -0.126 OA
ATOM      9  O   UNL     1       7.078   2.592   1.889  0.00  0.00    -0.126 OA
ENDBRANCH   6   7
BRANCH   4  10
ATOM     10  S   UNL     1       4.423   5.806   6.611  0.00  0.00    +0.061 S 
ATOM     11  O   UNL     1       5.751   5.931   7.101  0.00  0.00    -0.153 OA
ATOM     12  O   UNL     1       3.543   6.916   6.503  0.00  0.00    -0.153 OA
BRANCH  10  13
ATOM     13  N   UNL     1       3.666   4.692   7.574  0.00  0.00    -0.177 NA
ATOM     14  C   UNL     1       2.203   4.692   7.711  0.00  0.00    +0.110 C 
ATOM     15  C   UNL     1       1.842   4.747   9.194  0.00  0.00    +0.032 C 
ATOM     16  C   UNL     1       2.542   3.602   9.930  0.00  0.00    +0.105 C 
ATOM     17  C   UNL     1       4.059   3.758   9.794  0.00  0.00    +0.032 C 
ATOM     18  C   UNL     1       4.444   3.688   8.313  0.00  0.00    +0.110 C 
BRANCH  16  19
ATOM     19  C   UNL     1       2.163   3.635  11.388  0.00  0.00    +0.359 C 
ATOM     20  O   UNL     1       3.017   3.770  12.231  0.00  0.00    -0.246 OA
ATOM     21  O   UNL     1       0.876   3.515  11.749  0.00  0.00    -0.246 OA
ENDBRANCH  16  19
ENDBRANCH  10  13
ENDBRANCH   4  10
BRANCH   1  22
ATOM     22  N   UNL     1       4.836   3.442   1.192  0.00  0.00    -0.338 N 
ATOM     23  H   UNL     1       5.649   2.987   0.922  0.00  0.00    +0.146 HD
BRANCH  22  24
ATOM     24  C   UNL     1       3.711   3.544   0.261  0.00  0.00    +0.137 C 
BRANCH  24  29
ATOM     25  C   UNL     1       4.807   3.002  -3.311  0.00  0.00    +0.000 A 
ATOM     26  C   UNL     1       4.722   1.626  -3.420  0.00  0.00    +0.000 A 
ATOM     27  C   UNL     1       4.312   0.871  -2.337  0.00  0.00    +0.006 A 
ATOM     28  C   UNL     1       3.988   1.492  -1.145  0.00  0.00    -0.021 A 
ATOM     29  C   UNL     1       4.069   2.868  -1.037  0.00  0.00    -0.025 A 
ATOM     30  C   UNL     1       4.483   3.622  -2.119  0.00  0.00    +0.005 A 
BRANCH  28  31
ATOM     31  C   UNL     1       3.541   0.669   0.036  0.00  0.00    +0.178 C 
BRANCH  31  32
ATOM     32  N   UNL     1       2.077   0.618   0.070  0.00  0.00    -0.267 N 
ATOM     33  C   UNL     1       1.323  -0.501   0.095  0.00  0.00    +0.108 A 
ATOM     34  C   UNL     1       0.024  -0.121   0.122  0.00  0.00    +0.041 A 
ATOM     35  C   UNL     1      -0.016   1.277   0.112  0.00  0.00    +0.134 A 
ATOM     36  N   UNL     1       1.214   1.721   0.081  0.00  0.00    -0.179 NA
ENDBRANCH  31  32
ENDBRANCH  28  31
ENDBRANCH  24  29
ENDBRANCH  22  24
ENDBRANCH   1  22
TORSDOF 9
