REMARK  Name = ZINC03273572
REMARK  6 active torsions:
REMARK  status: ('A' for Active; 'I' for Inactive)
REMARK    1  A    between atoms: C_7  and  C_13
REMARK    2  A    between atoms: C_13  and  O_15
REMARK    3  A    between atoms: O_15  and  C_16
REMARK    4  A    between atoms: C_16  and  C_17
REMARK    5  A    between atoms: C_20  and  C_32
REMARK    6  A    between atoms: C_23  and  C_25
REMARK                            x       y       z     vdW  Elec       q    Type
REMARK                         _______ _______ _______ _____ _____    ______ ____
ROOT
ATOM      1  C   UNL     1      -3.796   3.365   0.271  0.00  0.00    +0.270 C 
ATOM      2  O   UNL     1      -2.695   3.868   0.348  0.00  0.00    -0.270 OA
ATOM      3  N   UNL     1      -4.896   4.144   0.301  0.00  0.00    -0.205 N 
ATOM      4  C   UNL     1      -4.939   5.610   0.427  0.00  0.00    +0.187 C 
ATOM      5  C   UNL     1      -6.412   5.954   0.404  0.00  0.00    +0.030 C 
ATOM      6  C   UNL     1      -7.085   4.813   0.288  0.00  0.00    +0.050 C 
ATOM      7  N   UNL     1      -6.230   3.721   0.224  0.00  0.00    -0.261 N 
ATOM      8  H   UNL     1      -6.515   2.798   0.138  0.00  0.00    +0.170 HD
ENDROOT
BRANCH   6   9
ATOM      9  C   UNL     1      -8.562   4.718   0.235  0.00  0.00    -0.003 A 
ATOM     10  C   UNL     1      -9.341   5.873   0.312  0.00  0.00    +0.011 A 
ATOM     11  C   UNL     1     -10.716   5.779   0.257  0.00  0.00    +0.020 A 
ATOM     12  C   UNL     1     -11.324   4.541   0.135  0.00  0.00    +0.041 A 
ATOM     13  C   UNL     1     -10.556   3.392   0.063  0.00  0.00    +0.020 A 
ATOM     14  C   UNL     1      -9.180   3.474   0.112  0.00  0.00    +0.011 A 
ATOM     15 CL   UNL     1     -13.056   4.431   0.073  0.00  0.00    -0.084 Cl
ENDBRANCH   6   9
BRANCH   4  16
ATOM     16  C   UNL     1      -4.233   6.258  -0.736  0.00  0.00    +0.131 A 
ATOM     17  C   UNL     1      -3.438   7.341  -0.669  0.00  0.00    +0.047 A 
ATOM     18  C   UNL     1      -2.988   7.601  -1.984  0.00  0.00    +0.041 A 
ATOM     19  C   UNL     1      -3.542   6.666  -2.777  0.00  0.00    +0.195 A 
ATOM     20  O   UNL     1      -4.295   5.855  -2.016  0.00  0.00    -0.466 OA
ENDBRANCH   4  16
BRANCH   1  21
ATOM     21  C   UNL     1      -3.935   1.870   0.143  0.00  0.00    +0.329 C 
BRANCH  21  22
ATOM     22  O   UNL     1      -2.617   1.261   0.134  0.00  0.00    -0.452 OA
BRANCH  22  23
ATOM     23  C   UNL     1      -2.564  -0.081   0.025  0.00  0.00    +0.340 C 
ATOM     24  O   UNL     1      -3.590  -0.724  -0.061  0.00  0.00    -0.245 OA
BRANCH  23  31
ATOM     25  C   UNL     1       1.158   2.089  -0.062  0.00  0.00    +0.001 A 
ATOM     26  C   UNL     1       2.374   1.419  -0.076  0.00  0.00    +0.002 A 
ATOM     27  C   UNL     1       2.417   0.042  -0.063  0.00  0.00    +0.026 A 
ATOM     28  C   UNL     1       1.230  -0.688  -0.035  0.00  0.00    +0.050 A 
ATOM     29  C   UNL     1       0.002  -0.004  -0.020  0.00  0.00    +0.012 A 
ATOM     30  C   UNL     1      -0.018   1.394  -0.034  0.00  0.00    +0.011 A 
ATOM     31  C   UNL     1      -1.253  -0.772   0.009  0.00  0.00    +0.073 A 
ATOM     32  C   UNL     1      -1.182  -2.136   0.022  0.00  0.00    +0.085 A 
ATOM     33  C   UNL     1       0.125  -2.788   0.005  0.00  0.00    +0.250 A 
ATOM     34  O   UNL     1       0.189  -4.004   0.016  0.00  0.00    -0.268 OA
ATOM     35  N   UNL     1       1.259  -2.066  -0.022  0.00  0.00    -0.322 N 
ATOM     36  H   UNL     1       2.114  -2.523  -0.033  0.00  0.00    +0.169 HD
ENDBRANCH  23  31
ENDBRANCH  22  23
ENDBRANCH  21  22
ENDBRANCH   1  21
TORSDOF 6
