REMARK  Name = ZINC20106603
REMARK  6 active torsions:
REMARK  status: ('A' for Active; 'I' for Inactive)
REMARK    1  A    between atoms: C_1  and  C_2
REMARK    2  A    between atoms: C_5  and  N_9
REMARK    3  A    between atoms: C_10  and  C_12
REMARK    4  A    between atoms: N_23  and  C_35
REMARK    5  A    between atoms: C_24  and  C_26
REMARK    6  A    between atoms: N_28  and  C_29
REMARK                            x       y       z     vdW  Elec       q    Type
REMARK                         _______ _______ _______ _____ _____    ______ ____
ROOT
ATOM      1  C   UNL     1       1.290   1.882  -0.040  0.00  0.00    +0.123 C 
ATOM      2  C   UNL     1       1.864   0.430   0.028  0.00  0.00    +0.155 C 
ATOM      3  C   UNL     1       1.473  -0.140   1.396  0.00  0.00    +0.004 C 
ATOM      4  C   UNL     1       0.160  -0.396   1.360  0.00  0.00    +0.009 C 
ATOM      5  C   UNL     1      -0.250   0.051   0.003  0.00  0.00    +0.127 C 
ATOM      6  C   UNL     1      -0.227   1.624   0.003  0.00  0.00    +0.128 C 
ATOM      7  C   UNL     1      -0.955   1.920  -1.278  0.00  0.00    +0.224 C 
ATOM      8  O   UNL     1      -0.830   2.928  -1.940  0.00  0.00    -0.275 OA
ATOM      9  N   UNL     1      -1.776   0.881  -1.577  0.00  0.00    -0.283 N 
ATOM     10  C   UNL     1      -1.577  -0.238  -0.625  0.00  0.00    +0.199 C 
ATOM     11  O   UNL     1       0.894  -0.267  -0.836  0.00  0.00    -0.358 OA
ENDROOT
BRANCH   9  12
ATOM     12  C   UNL     1      -2.730   0.868  -2.689  0.00  0.00    +0.077 C 
ATOM     13  C   UNL     1      -1.977   1.050  -4.008  0.00  0.00    +0.022 C 
ATOM     14  C   UNL     1      -2.973   1.036  -5.170  0.00  0.00    +0.002 C 
ATOM     15  C   UNL     1      -3.977   2.177  -4.994  0.00  0.00    +0.000 C 
ATOM     16  C   UNL     1      -4.730   1.995  -3.675  0.00  0.00    +0.002 C 
ATOM     17  C   UNL     1      -3.734   2.009  -2.513  0.00  0.00    +0.022 C 
ENDBRANCH   9  12
BRANCH   1  19
ATOM     18  N   UNL     1       1.772   3.903  -1.383  0.00  0.00    -0.285 N 
ATOM     19  C   UNL     1       1.685   2.559  -1.327  0.00  0.00    +0.224 C 
ATOM     20  O   UNL     1       1.926   1.895  -2.312  0.00  0.00    -0.275 OA
ATOM     21  H   UNL     1       1.629   4.502  -0.471  0.00  0.00    +0.155 HD
BRANCH  18  26
ATOM     22  C   UNL     1       2.877   6.471  -6.320  0.00  0.00    +0.045 C 
ATOM     23  C   UNL     1       2.583   5.789  -5.008  0.00  0.00    -0.032 A 
ATOM     24  C   UNL     1       3.166   4.569  -4.719  0.00  0.00    +0.006 A 
ATOM     25  C   UNL     1       2.903   3.944  -3.516  0.00  0.00    +0.023 A 
ATOM     26  C   UNL     1       2.044   4.537  -2.600  0.00  0.00    +0.035 A 
ATOM     27  C   UNL     1       1.460   5.762  -2.892  0.00  0.00    +0.043 A 
ATOM     28  C   UNL     1       1.731   6.385  -4.096  0.00  0.00    +0.046 A 
ATOM     29 CL   UNL     1       1.002   7.918  -4.463  0.00  0.00    -0.083 Cl
ENDBRANCH  18  26
ENDBRANCH   1  19
BRANCH  10  30
ATOM     30  C   UNL     1      -2.664  -0.248   0.419  0.00  0.00    +0.237 C 
ATOM     31  O   UNL     1      -3.376   0.724   0.562  0.00  0.00    -0.274 OA
ATOM     32  N   UNL     1      -2.845  -1.336   1.193  0.00  0.00    -0.311 N 
ATOM     33  H   UNL     1      -2.200  -2.217   1.063  0.00  0.00    +0.149 HD
BRANCH  32  34
ATOM     34  C   UNL     1      -3.902  -1.345   2.208  0.00  0.00    +0.073 C 
ATOM     35  C   UNL     1      -3.381  -0.698   3.493  0.00  0.00    +0.022 C 
ATOM     36  C   UNL     1      -4.484  -0.708   4.553  0.00  0.00    +0.002 C 
ATOM     37  C   UNL     1      -4.902  -2.151   4.841  0.00  0.00    +0.000 C 
ATOM     38  C   UNL     1      -5.423  -2.798   3.556  0.00  0.00    +0.002 C 
ATOM     39  C   UNL     1      -4.320  -2.788   2.497  0.00  0.00    +0.022 C 
ENDBRANCH  32  34
ENDBRANCH  10  30
TORSDOF 5
