REMARK  Name = ZINC04413526
REMARK  4 active torsions:
REMARK  status: ('A' for Active; 'I' for Inactive)
REMARK    1  A    between atoms: C_6  and  N_11
REMARK    2  A    between atoms: C_12  and  S_14
REMARK    3  A    between atoms: S_14  and  C_15
REMARK    4  A    between atoms: N_20  and  C_23
REMARK                            x       y       z     vdW  Elec       q    Type
REMARK                         _______ _______ _______ _____ _____    ______ ____
ROOT
ATOM      1  N   UNL     1       4.956  -2.326  -0.772  0.00  0.00    -0.227 NA
ATOM      2  C   UNL     1       4.942  -3.212   0.199  0.00  0.00    +0.153 C 
ATOM      3  N   UNL     1       3.787  -3.438   0.906  0.00  0.00    -0.338 N 
ATOM      4  H   UNL     1       2.957  -3.019   0.627  0.00  0.00    +0.144 HD
ATOM      5  H   UNL     1       3.800  -4.015   1.685  0.00  0.00    +0.144 HD
ENDROOT
BRANCH   1  11
ATOM      6  C   UNL     1      -0.067   0.885  -2.916  0.00  0.00    +0.001 A 
ATOM      7  C   UNL     1       0.473   0.141  -3.964  0.00  0.00    +0.001 A 
ATOM      8  C   UNL     1       1.567  -0.645  -3.773  0.00  0.00    +0.008 A 
ATOM      9  C   UNL     1       2.164  -0.710  -2.501  0.00  0.00    -0.016 A 
ATOM     10  C   UNL     1       3.294  -1.510  -2.271  0.00  0.00    +0.036 A 
ATOM     11  C   UNL     1       3.854  -1.548  -1.004  0.00  0.00    +0.067 A 
ATOM     12  C   UNL     1       3.299  -0.793   0.045  0.00  0.00    +0.028 A 
ATOM     13  C   UNL     1       2.207  -0.015  -0.160  0.00  0.00    +0.010 A 
ATOM     14  C   UNL     1       1.615   0.046  -1.435  0.00  0.00    -0.018 A 
ATOM     15  C   UNL     1       0.484   0.846  -1.672  0.00  0.00    +0.008 A 
ENDBRANCH   1  11
BRANCH   2  16
ATOM     16  S   UNL     1       6.405  -4.111   0.592  0.00  0.00    -0.078 S 
BRANCH  16  17
ATOM     17  C   UNL     1       7.635  -3.483  -0.584  0.00  0.00    +0.149 C 
ATOM     18  C   UNL     1       8.975  -4.229  -0.418  0.00  0.00    +0.120 C 
ATOM     19  C   UNL     1       9.944  -3.134  -0.026  0.00  0.00    +0.228 C 
ATOM     20  O   UNL     1      11.124  -3.290   0.203  0.00  0.00    -0.275 OA
ATOM     21  N   UNL     1       9.291  -1.967   0.026  0.00  0.00    -0.209 N 
ATOM     22  C   UNL     1       7.985  -2.045  -0.272  0.00  0.00    +0.240 C 
ATOM     23  O   UNL     1       7.208  -1.114  -0.288  0.00  0.00    -0.274 OA
BRANCH  21  24
ATOM     24  C   UNL     1       9.921  -0.760   0.362  0.00  0.00    +0.045 A 
ATOM     25  C   UNL     1      10.861  -0.204  -0.495  0.00  0.00    +0.024 A 
ATOM     26  C   UNL     1      11.480   0.985  -0.162  0.00  0.00    +0.003 A 
ATOM     27  C   UNL     1      11.164   1.622   1.024  0.00  0.00    +0.020 A 
ATOM     28  C   UNL     1      10.228   1.071   1.881  0.00  0.00    +0.043 A 
ATOM     29  C   UNL     1       9.602  -0.117   1.550  0.00  0.00    +0.044 A 
ATOM     30 CL   UNL     1       9.835   1.873   3.369  0.00  0.00    -0.083 Cl
ENDBRANCH  21  24
ENDBRANCH  16  17
ENDBRANCH   2  16
TORSDOF 4
