REMARK  Name = ZINC63806832
REMARK  10 active torsions:
REMARK  status: ('A' for Active; 'I' for Inactive)
REMARK    1  A    between atoms: C_4  and  C_7
REMARK    2  A    between atoms: C_7  and  C_9
REMARK    3  A    between atoms: C_7  and  C_24
REMARK    4  A    between atoms: C_9  and  N_10
REMARK    5  A    between atoms: N_10  and  C_11
REMARK    6  A    between atoms: C_11  and  C_12
REMARK    7  A    between atoms: C_12  and  C_14
REMARK    8  A    between atoms: C_12  and  O_23
REMARK    9  A    between atoms: C_14  and  O_15
REMARK   10  A    between atoms: O_15  and  C_16
REMARK                            x       y       z     vdW  Elec       q    Type
REMARK                         _______ _______ _______ _____ _____    ______ ____
ROOT
ATOM      1  C   UNL     1       3.711  -0.707  -0.038  0.00  0.00    +0.030 C 
ENDROOT
BRANCH   1   2
ATOM      2  C   UNL     1       3.790  -1.566  -1.273  0.00  0.00    -0.036 C 
ATOM      3  C   UNL     1       4.716  -1.494  -2.256  0.00  0.00    -0.001 A 
ATOM      4  C   UNL     1       5.883  -0.628  -2.461  0.00  0.00    +0.010 A 
ATOM      5  C   UNL     1       6.640  -0.798  -3.569  0.00  0.00    +0.001 A 
ATOM      6  C   UNL     1       6.338  -1.778  -4.524  0.00  0.00    +0.002 A 
ATOM      7  C   UNL     1       5.284  -2.612  -4.405  0.00  0.00    +0.026 A 
ATOM      8  C   UNL     1       4.420  -2.522  -3.279  0.00  0.00    +0.043 A 
ATOM      9  N   UNL     1       3.352  -3.203  -2.942  0.00  0.00    -0.380 N 
ATOM     10  C   UNL     1       2.853  -2.687  -1.662  0.00  0.00    +0.145 C 
ATOM     11  H   UNL     1       2.959  -3.929  -3.451  0.00  0.00    +0.160 HD
ENDBRANCH   1   2
BRANCH   1  15
ATOM     12  C   UNL     1      -0.017   1.378   0.010  0.00  0.00    +0.000 A 
ATOM     13  C   UNL     1       1.171   2.086   0.002  0.00  0.00    +0.000 A 
ATOM     14  C   UNL     1       2.377   1.411  -0.013  0.00  0.00    +0.004 A 
ATOM     15  C   UNL     1       2.396   0.029  -0.020  0.00  0.00    -0.042 A 
ATOM     16  C   UNL     1       1.208  -0.679  -0.012  0.00  0.00    +0.004 A 
ATOM     17  C   UNL     1       0.002  -0.004   0.002  0.00  0.00    +0.000 A 
ENDBRANCH   1  15
BRANCH   1  18
ATOM     18  C   UNL     1       3.817  -1.592   1.206  0.00  0.00    -0.070 C 
BRANCH  18  19
ATOM     19  N   UNL     1       3.861  -0.746   2.406  0.00  0.00    +0.381 N 
ATOM     20  H   UNL     1       4.663  -0.135   2.359  0.00  0.00    -0.086 HD
ATOM     21  H   UNL     1       3.019  -0.192   2.458  0.00  0.00    -0.086 HD
BRANCH  19  22
ATOM     22  C   UNL     1       3.963  -1.595   3.601  0.00  0.00    -0.047 C 
BRANCH  22  23
ATOM     23  C   UNL     1       4.008  -0.714   4.851  0.00  0.00    +0.135 C 
BRANCH  23  24
ATOM     24  O   UNL     1       2.769  -0.017   4.987  0.00  0.00    -0.390 OA
ATOM     25  H   UNL     1       1.999  -0.596   5.074  0.00  0.00    +0.210 HD
ENDBRANCH  23  24
BRANCH  23  26
ATOM     26  C   UNL     1       4.239  -1.590   6.084  0.00  0.00    +0.258 C 
BRANCH  26  27
ATOM     27  O   UNL     1       4.398  -0.759   7.235  0.00  0.00    -0.487 OA
BRANCH  27  28
ATOM     28  C   UNL     1       4.613  -1.385   8.423  0.00  0.00    +0.156 A 
ATOM     29  C   UNL     1       4.676  -2.769   8.478  0.00  0.00    +0.048 A 
ATOM     30  C   UNL     1       4.895  -3.403   9.686  0.00  0.00    +0.004 A 
ATOM     31  C   UNL     1       5.051  -2.659  10.841  0.00  0.00    +0.003 A 
ATOM     32  C   UNL     1       4.989  -1.279  10.791  0.00  0.00    +0.042 A 
ATOM     33  C   UNL     1       4.776  -0.638   9.583  0.00  0.00    +0.165 A 
ATOM     34  F   UNL     1       4.722   0.711   9.533  0.00  0.00    -0.202 F 
ENDBRANCH  27  28
ENDBRANCH  26  27
ENDBRANCH  23  26
ENDBRANCH  22  23
ENDBRANCH  19  22
ENDBRANCH  18  19
ENDBRANCH   1  18
TORSDOF 10
