REMARK  Name = ZINC34389353
REMARK  8 active torsions:
REMARK  status: ('A' for Active; 'I' for Inactive)
REMARK    1  A    between atoms: C_1  and  O_2
REMARK    2  A    between atoms: O_2  and  C_3
REMARK    3  A    between atoms: C_3  and  C_5
REMARK    4  A    between atoms: C_11  and  C_12
REMARK    5  A    between atoms: C_18  and  N_36
REMARK    6  A    between atoms: C_19  and  S_27
REMARK    7  A    between atoms: C_20  and  C_22
REMARK    8  A    between atoms: S_27  and  C_30
REMARK                            x       y       z     vdW  Elec       q    Type
REMARK                         _______ _______ _______ _____ _____    ______ ____
ROOT
ATOM      1  C   UNL     1       0.467  -1.905  -1.226  0.00  0.00    +0.083 C 
ATOM      2  C   UNL     1       1.473  -2.570  -1.881  0.00  0.00    +0.101 A 
ATOM      3  N   UNL     1       1.641  -3.938  -1.847  0.00  0.00    -0.256 N 
ATOM      4  C   UNL     1       2.675  -4.457  -2.538  0.00  0.00    +0.271 A 
ATOM      5  O   UNL     1       2.876  -5.658  -2.547  0.00  0.00    -0.266 OA
ATOM      6  C   UNL     1       3.551  -3.546  -3.276  0.00  0.00    +0.082 A 
ATOM      7  C   UNL     1       4.646  -3.826  -4.039  0.00  0.00    +0.066 C 
ATOM      8  S   UNL     1       2.797  -1.970  -2.909  0.00  0.00    -0.065 S 
ATOM      9  C   UNL     1       0.733  -4.718  -1.099  0.00  0.00    +0.127 C 
ATOM     10  C   UNL     1      -0.282  -4.224  -0.418  0.00  0.00    +0.124 C 
ATOM     11  C   UNL     1      -0.514  -2.728  -0.413  0.00  0.00    +0.146 C 
ENDROOT
BRANCH   7  12
ATOM     12  C   UNL     1       5.169  -5.140  -4.070  0.00  0.00    +0.129 A 
ATOM     13  C   UNL     1       6.320  -5.542  -4.718  0.00  0.00    +0.049 A 
ATOM     14  C   UNL     1       6.450  -6.919  -4.481  0.00  0.00    +0.042 A 
ATOM     15  C   UNL     1       5.400  -7.295  -3.718  0.00  0.00    +0.195 A 
ATOM     16  O   UNL     1       4.635  -6.223  -3.468  0.00  0.00    -0.463 OA
ENDBRANCH   7  12
BRANCH  11  17
ATOM     17  C   UNL     1      -0.466  -2.244   1.013  0.00  0.00    +0.118 A 
ATOM     18  C   UNL     1      -1.501  -1.740   1.708  0.00  0.00    +0.045 A 
ATOM     19  C   UNL     1      -1.012  -1.417   2.995  0.00  0.00    +0.041 A 
ATOM     20  C   UNL     1       0.292  -1.744   3.009  0.00  0.00    +0.195 A 
ATOM     21  O   UNL     1       0.616  -2.250   1.808  0.00  0.00    -0.467 OA
ENDBRANCH  11  17
BRANCH  10  22
ATOM     22  S   UNL     1      -1.354  -5.295   0.481  0.00  0.00    +0.025 S 
ATOM     23  O   UNL     1      -2.636  -4.681   0.479  0.00  0.00    -0.164 OA
ATOM     24  O   UNL     1      -1.137  -6.605  -0.023  0.00  0.00    -0.164 OA
BRANCH  22  25
ATOM     25  C   UNL     1      -0.801  -5.300   2.154  0.00  0.00    +0.093 A 
ATOM     26  C   UNL     1       0.141  -6.224   2.567  0.00  0.00    +0.027 A 
ATOM     27  C   UNL     1       0.575  -6.228   3.880  0.00  0.00    +0.002 A 
ATOM     28  C   UNL     1       0.068  -5.309   4.779  0.00  0.00    +0.000 A 
ATOM     29  C   UNL     1      -0.874  -4.385   4.365  0.00  0.00    +0.002 A 
ATOM     30  C   UNL     1      -1.304  -4.378   3.052  0.00  0.00    +0.027 A 
ENDBRANCH  22  25
ENDBRANCH  10  22
BRANCH   9  31
ATOM     31  N   UNL     1       0.921  -6.095  -1.080  0.00  0.00    -0.343 N 
ATOM     32  H   UNL     1       1.795  -6.462  -0.872  0.00  0.00    +0.144 HD
ATOM     33  H   UNL     1       0.179  -6.689  -1.274  0.00  0.00    +0.144 HD
ENDBRANCH   9  31
BRANCH   1  34
ATOM     34  C   UNL     1       0.353  -0.512  -1.302  0.00  0.00    +0.338 C 
ATOM     35  O   UNL     1       1.152   0.130  -1.961  0.00  0.00    -0.245 OA
BRANCH  34  37
ATOM     36  C   UNL     1      -0.700   1.544  -0.766  0.00  0.00    +0.280 C 
ATOM     37  O   UNL     1      -0.644   0.121  -0.645  0.00  0.00    -0.465 OA
ENDBRANCH  34  37
ENDBRANCH   1  34
TORSDOF 7
