REMARK  Name = ZINC12428971
REMARK  3 active torsions:
REMARK  status: ('A' for Active; 'I' for Inactive)
REMARK    1  A    between atoms: C_3  and  N_15
REMARK    2  A    between atoms: C_6  and  N_7
REMARK    3  A    between atoms: C_8  and  C_9
REMARK                            x       y       z     vdW  Elec       q    Type
REMARK                         _______ _______ _______ _____ _____    ______ ____
ROOT
ATOM      1  C   UNL     1       0.273   1.082   0.293  0.00  0.00    +0.030 A 
ATOM      2  C   UNL     1       1.507   1.689   0.188  0.00  0.00    +0.035 A 
ATOM      3  C   UNL     1       2.562   1.021  -0.408  0.00  0.00    +0.126 A 
ATOM      4  C   UNL     1       2.387  -0.259  -0.905  0.00  0.00    +0.035 A 
ATOM      5  C   UNL     1       1.159  -0.878  -0.808  0.00  0.00    +0.030 A 
ATOM      6  C   UNL     1       0.089  -0.210  -0.206  0.00  0.00    +0.064 A 
ENDROOT
BRANCH   3   7
ATOM      7  N   UNL     1       3.884   1.679  -0.517  0.00  0.00    +0.056 N 
ATOM      8  O   UNL     1       4.040   2.797  -0.085  0.00  0.00    -0.126 OA
ATOM      9  O   UNL     1       4.807   1.098  -1.038  0.00  0.00    -0.126 OA
ENDBRANCH   3   7
BRANCH   6  10
ATOM     10  N   UNL     1      -1.131  -0.818  -0.106  0.00  0.00    -0.252 NA
ATOM     11  C   UNL     1      -2.151  -0.352  -0.780  0.00  0.00    +0.157 C 
BRANCH  11  12
ATOM     12  C   UNL     1      -1.963   0.693  -1.718  0.00  0.00    +0.147 A 
ATOM     13  C   UNL     1      -2.932   1.236  -2.534  0.00  0.00    +0.052 A 
ATOM     14  C   UNL     1      -2.302   2.235  -3.292  0.00  0.00    +0.057 A 
ATOM     15  C   UNL     1      -1.003   2.263  -2.917  0.00  0.00    +0.171 A 
ATOM     16  O   UNL     1      -0.804   1.339  -1.966  0.00  0.00    -0.447 OA
ATOM     17 BR   UNL     1       0.317   3.423  -3.615  0.00  0.00    -0.008 Br
ENDBRANCH  11  12
ENDBRANCH   6  10
TORSDOF 3
