REMARK  Name = ZINC39466092
REMARK  15 active torsions:
REMARK  status: ('A' for Active; 'I' for Inactive)
REMARK    1  A    between atoms: C_1  and  C_2
REMARK    2  A    between atoms: C_4  and  C_9
REMARK    3  A    between atoms: C_5  and  C_8
REMARK    4  A    between atoms: C_9  and  C_10
REMARK    5  A    between atoms: C_10  and  N_11
REMARK    6  A    between atoms: N_11  and  C_12
REMARK    7  A    between atoms: C_12  and  C_13
REMARK    8  A    between atoms: C_18  and  O_19
REMARK    9  A    between atoms: O_19  and  C_20
REMARK   10  A    between atoms: C_20  and  C_21
REMARK   11  A    between atoms: C_21  and  C_23
REMARK   12  A    between atoms: C_21  and  O_32
REMARK   13  A    between atoms: C_23  and  N_24
REMARK   14  A    between atoms: N_24  and  C_25
REMARK   15  A    between atoms: N_24  and  C_26
REMARK                            x       y       z     vdW  Elec       q    Type
REMARK                         _______ _______ _______ _____ _____    ______ ____
ROOT
ATOM      1  C   UNL     1      -6.186   2.568  -2.261  0.00  0.00    -0.023 A 
ATOM      2  C   UNL     1      -6.019   3.408  -3.346  0.00  0.00    +0.005 A 
ATOM      3  C   UNL     1      -7.050   3.582  -4.251  0.00  0.00    +0.000 A 
ATOM      4  C   UNL     1      -8.249   2.917  -4.074  0.00  0.00    +0.004 A 
ATOM      5  C   UNL     1      -8.421   2.076  -2.991  0.00  0.00    +0.046 A 
ATOM      6  C   UNL     1      -7.386   1.895  -2.084  0.00  0.00    +0.122 A 
ENDROOT
BRANCH   1   7
ATOM      7  C   UNL     1      -5.063   2.378  -1.275  0.00  0.00    -0.043 C 
BRANCH   7   8
ATOM      8  N   UNL     1      -4.360   1.122  -1.569  0.00  0.00    +0.382 N 
ATOM      9  H   UNL     1      -3.983   1.159  -2.505  0.00  0.00    -0.085 HD
ATOM     10  H   UNL     1      -5.005   0.350  -1.496  0.00  0.00    -0.085 HD
BRANCH   8  11
ATOM     11  C   UNL     1      -3.265   0.937  -0.608  0.00  0.00    -0.078 C 
BRANCH  11  12
ATOM     12  C   UNL     1      -2.532  -0.371  -0.914  0.00  0.00    +0.016 C 
BRANCH  12  15
ATOM     13  C   UNL     1      -0.019   1.526   0.010  0.00  0.00    +0.039 C 
ATOM     14  C   UNL     1       0.002  -0.004   0.002  0.00  0.00    +0.153 C 
ATOM     15  C   UNL     1      -1.409  -0.561   0.072  0.00  0.00    -0.023 C 
ATOM     16  C   UNL     1      -1.423  -1.257   1.211  0.00  0.00    +0.061 C 
ATOM     17  N   UNL     1      -0.222  -1.193   1.828  0.00  0.00    -0.159 NA
ATOM     18  N   UNL     1       0.629  -0.523   1.230  0.00  0.00    -0.180 NA
ATOM     19  C   UNL     1      -2.617  -2.011   1.738  0.00  0.00    +0.067 C 
ENDBRANCH  12  15
ENDBRANCH  11  12
ENDBRANCH   8  11
ENDBRANCH   7   8
ENDBRANCH   1   7
BRANCH   6  20
ATOM     20  O   UNL     1      -7.550   1.064  -1.022  0.00  0.00    -0.489 OA
BRANCH  20  21
ATOM     21  C   UNL     1      -8.812   0.404  -0.903  0.00  0.00    +0.258 C 
BRANCH  21  22
ATOM     22  C   UNL     1      -8.809  -0.482   0.344  0.00  0.00    +0.135 C 
BRANCH  22  23
ATOM     23  O   UNL     1      -7.850  -1.529   0.182  0.00  0.00    -0.390 OA
ATOM     24  H   UNL     1      -8.019  -2.104  -0.577  0.00  0.00    +0.210 HD
ENDBRANCH  22  23
BRANCH  22  25
ATOM     25  C   UNL     1     -10.199  -1.091   0.540  0.00  0.00    -0.044 C 
BRANCH  25  26
ATOM     26  N   UNL     1     -10.230  -1.845   1.801  0.00  0.00    +0.381 N 
ATOM     27  C   UNL     1     -10.047  -0.921   2.929  0.00  0.00    -0.096 C 
ATOM     28  H   UNL     1      -9.488  -2.528   1.802  0.00  0.00    -0.082 HD
BRANCH  26  29
ATOM     29  C   UNL     1     -11.524  -2.527   1.932  0.00  0.00    -0.069 C 
ATOM     30  C   UNL     1     -11.556  -3.312   3.245  0.00  0.00    -0.015 C 
ATOM     31  C   UNL     1     -12.904  -4.023   3.381  0.00  0.00    -0.002 C 
ATOM     32  C   UNL     1     -13.095  -4.985   2.207  0.00  0.00    -0.000 C 
ATOM     33  C   UNL     1     -13.063  -4.200   0.894  0.00  0.00    -0.002 C 
ATOM     34  C   UNL     1     -11.715  -3.489   0.758  0.00  0.00    -0.015 C 
ENDBRANCH  26  29
ENDBRANCH  25  26
ENDBRANCH  22  25
ENDBRANCH  21  22
ENDBRANCH  20  21
ENDBRANCH   6  20
TORSDOF 12
