REMARK  Name = ZINC34789995
REMARK  7 active torsions:
REMARK  status: ('A' for Active; 'I' for Inactive)
REMARK    1  A    between atoms: C_1  and  C_2
REMARK    2  A    between atoms: C_2  and  C_3
REMARK    3  A    between atoms: C_2  and  N_4
REMARK    4  A    between atoms: C_10  and  C_12
REMARK    5  A    between atoms: C_22  and  C_24
REMARK    6  A    between atoms: C_24  and  C_25
REMARK    7  A    between atoms: C_25  and  C_26
REMARK                            x       y       z     vdW  Elec       q    Type
REMARK                         _______ _______ _______ _____ _____    ______ ____
ROOT
ATOM      1  C   UNL     1       0.862  -4.113   4.570  0.00  0.00    +0.152 A 
ATOM      2  C   UNL     1       0.500  -5.048   5.552  0.00  0.00    +0.023 A 
ATOM      3  C   UNL     1       0.771  -6.269   5.027  0.00  0.00    +0.043 A 
ATOM      4  N   UNL     1       1.273  -6.066   3.797  0.00  0.00    -0.280 N 
ATOM      5  H   UNL     1       1.557  -6.768   3.190  0.00  0.00    +0.189 HD
ATOM      6  N   UNL     1       1.314  -4.805   3.538  0.00  0.00    -0.169 NA
ATOM      7  C   UNL     1       0.527  -7.572   5.742  0.00  0.00    +0.074 C 
ATOM      8  C   UNL     1       0.376  -7.293   7.242  0.00  0.00    +0.114 C 
ATOM      9  N   UNL     1      -0.512  -6.136   7.434  0.00  0.00    -0.297 N 
ATOM     10  C   UNL     1      -0.071  -4.823   6.927  0.00  0.00    +0.147 C 
ATOM     11  C   UNL     1      -1.699  -6.272   8.058  0.00  0.00    +0.216 C 
ATOM     12  O   UNL     1      -2.419  -5.308   8.208  0.00  0.00    -0.276 OA
ENDROOT
BRANCH   1  19
ATOM     13  N   UNL     1       0.668  -0.486   1.196  0.00  0.00    +0.383 N 
ATOM     14  C   UNL     1       0.010   0.001   2.415  0.00  0.00    -0.059 C 
ATOM     15  C   UNL     1       0.832  -0.417   3.639  0.00  0.00    +0.089 C 
ATOM     16  N   UNL     1       1.027  -1.874   3.595  0.00  0.00    -0.300 N 
ATOM     17  C   UNL     1       1.531  -2.469   2.347  0.00  0.00    +0.089 C 
ATOM     18  C   UNL     1       0.676  -1.954   1.184  0.00  0.00    -0.059 C 
ATOM     19  C   UNL     1       0.752  -2.643   4.667  0.00  0.00    +0.267 C 
ATOM     20  O   UNL     1       0.414  -2.127   5.715  0.00  0.00    -0.268 OA
ATOM     21  H   UNL     1       1.617  -0.145   1.170  0.00  0.00    -0.081 HD
BRANCH  13  23
ATOM     22  C   UNL     1      -0.070   1.537   0.029  0.00  0.00    -0.014 C 
ATOM     23  C   UNL     1      -0.060   0.007   0.019  0.00  0.00    -0.075 C 
ATOM     24  C   UNL     1       0.631  -0.490  -1.253  0.00  0.00    -0.014 C 
ENDBRANCH  13  23
ENDBRANCH   1  19
BRANCH  11  25
ATOM     25  C   UNL     1      -2.131  -7.622   8.569  0.00  0.00    +0.096 C 
BRANCH  25  26
ATOM     26  C   UNL     1      -3.506  -7.502   9.230  0.00  0.00    +0.013 C 
BRANCH  26  27
ATOM     27  C   UNL     1      -3.944  -8.873   9.749  0.00  0.00    -0.011 C 
ATOM     28  C   UNL     1      -3.082  -9.294  10.964  0.00  0.00    +0.003 C 
ATOM     29  C   UNL     1      -3.996 -10.307  11.697  0.00  0.00    +0.000 C 
ATOM     30  C   UNL     1      -5.413  -9.716  11.547  0.00  0.00    +0.000 C 
ATOM     31  C   UNL     1      -5.380  -8.804  10.309  0.00  0.00    +0.003 C 
ENDBRANCH  26  27
ENDBRANCH  25  26
ENDBRANCH  11  25
TORSDOF 5
