REMARK  Name = ZINC40346737
REMARK  6 active torsions:
REMARK  status: ('A' for Active; 'I' for Inactive)
REMARK    1  A    between atoms: C_1  and  C_2
REMARK    2  A    between atoms: C_2  and  N_3
REMARK    3  A    between atoms: N_3  and  C_4
REMARK    4  A    between atoms: N_3  and  S_11
REMARK    5  A    between atoms: C_4  and  C_5
REMARK    6  A    between atoms: S_11  and  C_14
REMARK                            x       y       z     vdW  Elec       q    Type
REMARK                         _______ _______ _______ _____ _____    ______ ____
ROOT
ATOM      1  S   UNL     1      -1.953  -0.429   1.094  0.00  0.00    +0.066 S 
ATOM      2  O   UNL     1      -3.274  -0.754   0.682  0.00  0.00    -0.153 OA
ATOM      3  O   UNL     1      -1.082  -1.385   1.683  0.00  0.00    -0.153 OA
ENDROOT
BRANCH   1   4
ATOM      4  C   UNL     1      -2.097   0.898   2.244  0.00  0.00    +0.164 A 
ATOM      5  C   UNL     1      -3.247   1.497   2.629  0.00  0.00    +0.135 A 
ATOM      6  N   UNL     1      -2.933   2.463   3.518  0.00  0.00    -0.281 N 
ATOM      7  H   UNL     1      -3.560   3.055   3.961  0.00  0.00    +0.188 HD
ATOM      8  N   UNL     1      -1.543   2.461   3.688  0.00  0.00    -0.157 NA
ATOM      9  C   UNL     1      -1.039   1.517   2.929  0.00  0.00    +0.164 A 
ATOM     10  N   UNL     1       0.317   1.187   2.817  0.00  0.00    -0.340 N 
ATOM     11  H   UNL     1       0.585   0.397   2.323  0.00  0.00    +0.144 HD
ATOM     12  H   UNL     1       0.989   1.749   3.235  0.00  0.00    +0.144 HD
ENDBRANCH   1   4
BRANCH   1  13
ATOM     13  N   UNL     1      -1.173   0.163  -0.241  0.00  0.00    -0.172 NA
BRANCH  13  15
ATOM     14  C   UNL     1       0.858   1.521  -0.340  0.00  0.00    +0.022 C 
ATOM     15  C   UNL     1       0.288   0.101  -0.323  0.00  0.00    +0.106 C 
ENDBRANCH  13  15
BRANCH  13  16
ATOM     16  C   UNL     1      -1.944   0.748  -1.341  0.00  0.00    +0.151 C 
BRANCH  16  17
ATOM     17  C   UNL     1      -2.192  -0.301  -2.395  0.00  0.00    +0.007 A 
ATOM     18  C   UNL     1      -3.229  -1.165  -2.512  0.00  0.00    +0.013 A 
ATOM     19  C   UNL     1      -3.248  -2.050  -3.574  0.00  0.00    +0.023 A 
ATOM     20  C   UNL     1      -2.226  -2.029  -4.466  0.00  0.00    +0.055 A 
ATOM     21  S   UNL     1      -1.197  -0.723  -3.816  0.00  0.00    -0.085 S 
ATOM     22 BR   UNL     1      -1.964  -3.099  -6.003  0.00  0.00    -0.043 Br
ENDBRANCH  16  17
ENDBRANCH  13  16
ENDBRANCH   1  13
TORSDOF 5
