REMARK  Name = ZINC05346376
REMARK  8 active torsions:
REMARK  status: ('A' for Active; 'I' for Inactive)
REMARK    1  A    between atoms: C_1  and  C_2
REMARK    2  A    between atoms: C_2  and  C_3
REMARK    3  A    between atoms: C_2  and  C_4
REMARK    4  A    between atoms: C_4  and  C_5
REMARK    5  A    between atoms: N_13  and  C_16
REMARK    6  A    between atoms: C_16  and  C_17
REMARK    7  A    between atoms: C_17  and  O_18
REMARK    8  A    between atoms: O_18  and  C_19
REMARK                            x       y       z     vdW  Elec       q    Type
REMARK                         _______ _______ _______ _____ _____    ______ ____
ROOT
ATOM      1  C   UNL     1       4.150   1.732  -0.817  0.00  0.00    -0.057 C 
ATOM      2  C   UNL     1       4.434   1.418   0.667  0.00  0.00    +0.073 C 
ATOM      3  C   UNL     1       3.117   0.787   1.200  0.00  0.00    +0.088 C 
ATOM      4  C   UNL     1       2.632   1.831   2.205  0.00  0.00    +0.225 C 
ATOM      5  O   UNL     1       1.616   1.749   2.861  0.00  0.00    -0.275 OA
ATOM      6  N   UNL     1       3.505   2.844   2.255  0.00  0.00    -0.240 N 
ATOM      7  C   UNL     1       4.554   2.715   1.435  0.00  0.00    +0.224 C 
ATOM      8  O   UNL     1       5.459   3.514   1.324  0.00  0.00    -0.275 OA
ATOM      9  C   UNL     1       2.183   0.759  -0.015  0.00  0.00    +0.050 C 
ATOM     10  C   UNL     1       1.314  -0.467  -0.013  0.00  0.00    -0.026 A 
ATOM     11  C   UNL     1       1.581  -1.818  -0.023  0.00  0.00    +0.004 A 
ATOM     12  C   UNL     1       0.540  -2.731  -0.018  0.00  0.00    +0.002 A 
ATOM     13  C   UNL     1      -0.768  -2.282  -0.003  0.00  0.00    +0.022 A 
ATOM     14  C   UNL     1      -1.041  -0.929   0.007  0.00  0.00    +0.062 A 
ATOM     15  C   UNL     1       0.002  -0.004   0.002  0.00  0.00    +0.054 A 
ATOM     16  N   UNL     1      -0.017   1.393   0.010  0.00  0.00    -0.285 N 
ATOM     17  C   UNL     1       1.224   1.918   0.001  0.00  0.00    +0.211 C 
ATOM     18  O   UNL     1       1.512   3.096   0.004  0.00  0.00    -0.277 OA
ATOM     19 CL   UNL     1      -2.687  -0.378   0.025  0.00  0.00    -0.082 Cl
ATOM     20  H   UNL     1      -0.829   1.923   0.017  0.00  0.00    +0.155 HD
ATOM     21  N   UNL     1       3.062   0.817  -1.170  0.00  0.00    +0.394 N 
ATOM     22  H   UNL     1       3.436  -0.116  -1.378  0.00  0.00    -0.083 HD
ATOM     23  H   UNL     1       2.551   1.172  -1.987  0.00  0.00    -0.083 HD
ENDROOT
BRANCH   1  24
ATOM     24  C   UNL     1       5.396   1.471  -1.665  0.00  0.00    -0.012 C 
BRANCH  24  26
ATOM     25  C   UNL     1       4.849   3.337  -3.234  0.00  0.00    +0.007 C 
ATOM     26  C   UNL     1       5.106   1.833  -3.123  0.00  0.00    -0.019 C 
ATOM     27  C   UNL     1       6.308   1.456  -3.991  0.00  0.00    +0.007 C 
ENDBRANCH  24  26
ENDBRANCH   1  24
BRANCH   6  28
ATOM     28  C   UNL     1       3.326   4.001   3.136  0.00  0.00    +0.144 C 
BRANCH  28  29
ATOM     29  C   UNL     1       2.533   5.084   2.402  0.00  0.00    +0.179 C 
BRANCH  29  30
ATOM     30  O   UNL     1       1.214   4.608   2.132  0.00  0.00    -0.381 OA
ATOM     31  C   UNL     1       0.386   5.548   1.445  0.00  0.00    +0.194 C 
ENDBRANCH  29  30
ENDBRANCH  28  29
ENDBRANCH   6  28
TORSDOF 5
