REMARK  Name = ZINC66250833
REMARK  4 active torsions:
REMARK  status: ('A' for Active; 'I' for Inactive)
REMARK    1  A    between atoms: C_6  and  S_7
REMARK    2  A    between atoms: S_7  and  N_10
REMARK    3  A    between atoms: C_13  and  C_16
REMARK    4  A    between atoms: C_16  and  N_17
REMARK                            x       y       z     vdW  Elec       q    Type
REMARK                         _______ _______ _______ _____ _____    ______ ____
ROOT
ATOM      1  N   UNL     1      -1.951  -1.152  -1.560  0.00  0.00    -0.103 NA
ATOM      2  C   UNL     1      -3.052  -1.806  -1.839  0.00  0.00    +0.191 A 
ATOM      3  N   UNL     1      -3.594  -2.121  -3.066  0.00  0.00    -0.338 N 
ATOM      4  C   UNL     1      -4.765  -2.820  -3.100  0.00  0.00    +0.008 A 
ATOM      5  C   UNL     1      -5.362  -3.184  -1.966  0.00  0.00    +0.068 A 
ATOM      6  S   UNL     1      -4.247  -2.537  -0.730  0.00  0.00    -0.057 S 
ATOM      7  H   UNL     1      -3.153  -1.851  -3.887  0.00  0.00    +0.167 HD
ENDROOT
BRANCH   1   8
ATOM      8  S   UNL     1      -1.510  -0.909   0.018  0.00  0.00    +0.101 S 
ATOM      9  O   UNL     1      -1.212  -2.189   0.558  0.00  0.00    -0.146 OA
ATOM     10  O   UNL     1      -2.490  -0.052   0.586  0.00  0.00    -0.146 OA
BRANCH   8  16
ATOM     11  C   UNL     1      -0.017   1.378   0.010  0.00  0.00    +0.032 A 
ATOM     12  C   UNL     1       1.164   2.091   0.002  0.00  0.00    +0.048 A 
ATOM     13  C   UNL     1       2.386   1.424  -0.015  0.00  0.00    +0.124 A 
ATOM     14  C   UNL     1       2.392   0.035  -0.030  0.00  0.00    -0.001 A 
ATOM     15  C   UNL     1       1.212  -0.675  -0.018  0.00  0.00    +0.036 A 
ATOM     16  C   UNL     1       0.002  -0.004   0.002  0.00  0.00    +0.113 A 
ATOM     17  C   UNL     1       3.844  -0.403  -0.071  0.00  0.00    +0.080 C 
ATOM     18  C   UNL     1       4.562   0.907  -0.473  0.00  0.00    +0.234 C 
ATOM     19  O   UNL     1       3.653   1.923  -0.013  0.00  0.00    -0.491 OA
ENDBRANCH   8  16
ENDBRANCH   1   8
BRANCH   4  20
ATOM     20  C   UNL     1      -5.386  -3.180  -4.425  0.00  0.00    -0.024 C 
BRANCH  20  21
ATOM     21  N   UNL     1      -5.790  -1.954  -5.127  0.00  0.00    +0.383 N 
ATOM     22  C   UNL     1      -6.792  -1.248  -4.306  0.00  0.00    -0.078 C 
ATOM     23  C   UNL     1      -6.758   0.215  -4.672  0.00  0.00    -0.019 C 
ATOM     24  C   UNL     1      -7.837   0.560  -5.715  0.00  0.00    -0.002 C 
ATOM     25  C   UNL     1      -7.958  -0.533  -6.797  0.00  0.00    -0.002 C 
ATOM     26  C   UNL     1      -6.614  -1.055  -7.238  0.00  0.00    -0.019 C 
ATOM     27  C   UNL     1      -6.257  -2.298  -6.397  0.00  0.00    -0.078 C 
ATOM     28  H   UNL     1      -4.981  -1.360  -5.230  0.00  0.00    -0.081 HD
ENDBRANCH  20  21
ENDBRANCH   4  20
TORSDOF 4
