REMARK  Name = ZINC02396136
REMARK  5 active torsions:
REMARK  status: ('A' for Active; 'I' for Inactive)
REMARK    1  A    between atoms: C_9  and  C_25
REMARK    2  A    between atoms: C_10  and  N_24
REMARK    3  A    between atoms: N_11  and  C_14
REMARK    4  A    between atoms: N_27  and  C_28
REMARK    5  A    between atoms: C_28  and  C_29
REMARK                            x       y       z     vdW  Elec       q    Type
REMARK                         _______ _______ _______ _____ _____    ______ ____
ROOT
ATOM      1  C   UNL     1      -3.590   3.227  -5.505  0.00  0.00    +0.002 A 
ATOM      2  C   UNL     1      -4.721   3.859  -4.991  0.00  0.00    +0.002 A 
ATOM      3  C   UNL     1      -4.915   3.964  -3.648  0.00  0.00    +0.030 A 
ATOM      4  C   UNL     1      -3.964   3.430  -2.759  0.00  0.00    +0.092 A 
ATOM      5  C   UNL     1      -2.814   2.787  -3.282  0.00  0.00    +0.090 A 
ATOM      6  C   UNL     1      -2.649   2.698  -4.677  0.00  0.00    +0.030 A 
ATOM      7  N   UNL     1      -1.894   2.270  -2.459  0.00  0.00    -0.241 NA
ATOM      8  C   UNL     1      -2.061   2.368  -1.155  0.00  0.00    +0.123 A 
ATOM      9  C   UNL     1      -1.290   1.927   0.019  0.00  0.00    +0.104 A 
ATOM     10  C   UNL     1      -2.010   2.327   1.139  0.00  0.00    +0.117 A 
ATOM     11  N   UNL     1      -3.153   2.968   0.765  0.00  0.00    -0.280 N 
ATOM     12  C   UNL     1      -3.252   3.026  -0.612  0.00  0.00    +0.166 A 
ATOM     13  N   UNL     1      -4.147   3.529  -1.437  0.00  0.00    -0.225 NA
ENDROOT
BRANCH  11  14
ATOM     14  C   UNL     1      -4.100   3.495   1.655  0.00  0.00    +0.053 A 
ATOM     15  C   UNL     1      -4.317   4.866   1.706  0.00  0.00    +0.030 A 
ATOM     16  C   UNL     1      -5.249   5.386   2.583  0.00  0.00    +0.051 A 
ATOM     17  C   UNL     1      -5.969   4.543   3.416  0.00  0.00    +0.162 A 
ATOM     18  C   UNL     1      -5.755   3.170   3.366  0.00  0.00    +0.164 A 
ATOM     19  C   UNL     1      -4.823   2.648   2.482  0.00  0.00    +0.075 A 
ATOM     20  O   UNL     1      -6.455   2.326   4.172  0.00  0.00    -0.485 OA
ATOM     21  C   UNL     1      -7.109   2.911   5.304  0.00  0.00    +0.270 C 
ATOM     22  C   UNL     1      -7.843   4.174   4.833  0.00  0.00    +0.270 C 
ATOM     23  O   UNL     1      -6.878   5.074   4.280  0.00  0.00    -0.485 OA
ENDBRANCH  11  14
BRANCH   9  24
ATOM     24  C   UNL     1      -0.014   1.214   0.009  0.00  0.00    +0.250 C 
ATOM     25  O   UNL     1       0.002  -0.004   0.002  0.00  0.00    -0.270 OA
ATOM     26  N   UNL     1       1.143   1.903   0.001  0.00  0.00    -0.307 N 
ATOM     27  H   UNL     1       1.130   2.873   0.007  0.00  0.00    +0.149 HD
BRANCH  26  28
ATOM     28  C   UNL     1       2.422   1.188  -0.015  0.00  0.00    +0.147 C 
BRANCH  28  29
ATOM     29  C   UNL     1       3.554   2.183  -0.020  0.00  0.00    +0.007 A 
ATOM     30  C   UNL     1       4.202   2.745   1.030  0.00  0.00    +0.013 A 
ATOM     31  C   UNL     1       5.225   3.641   0.784  0.00  0.00    +0.008 A 
ATOM     32  C   UNL     1       5.544   3.939  -0.499  0.00  0.00    +0.045 A 
ATOM     33  S   UNL     1       4.385   2.933  -1.411  0.00  0.00    -0.100 S 
ENDBRANCH  28  29
ENDBRANCH  26  28
ENDBRANCH   9  24
BRANCH  10  34
ATOM     34  N   UNL     1      -1.625   2.108   2.436  0.00  0.00    -0.343 N 
ATOM     35  H   UNL     1      -0.795   1.643   2.623  0.00  0.00    +0.144 HD
ATOM     36  H   UNL     1      -2.183   2.418   3.166  0.00  0.00    +0.144 HD
ENDBRANCH  10  34
TORSDOF 5
