REMARK  Name = ZINC65503275
REMARK  4 active torsions:
REMARK  status: ('A' for Active; 'I' for Inactive)
REMARK    1  A    between atoms: C_1  and  C_2
REMARK    2  A    between atoms: N_5  and  C_7
REMARK    3  A    between atoms: C_17  and  C_19
REMARK    4  A    between atoms: C_22  and  N_25
REMARK                            x       y       z     vdW  Elec       q    Type
REMARK                         _______ _______ _______ _____ _____    ______ ____
ROOT
ATOM      1  C   UNL     1      -0.018   1.503   0.010  0.00  0.00    +0.068 C 
ATOM      2  C   UNL     1       0.002  -0.004   0.002  0.00  0.00    +0.065 A 
ATOM      3  C   UNL     1       0.008  -0.812  -1.125  0.00  0.00    +0.019 A 
ATOM      4  C   UNL     1       0.033  -2.117  -0.710  0.00  0.00    +0.127 A 
ATOM      5  N   UNL     1       0.033  -2.117   0.631  0.00  0.00    -0.247 N 
ATOM      6  N   UNL     1       0.023  -0.780   1.060  0.00  0.00    -0.174 NA
ATOM      7  N   UNL     1       0.065  -3.178  -1.615  0.00  0.00    -0.270 N 
ATOM      8  C   UNL     1       0.275  -2.895  -2.918  0.00  0.00    +0.219 C 
ATOM      9  O   UNL     1       0.120  -3.772  -3.741  0.00  0.00    -0.275 OA
ATOM     10  C   UNL     1       0.695  -1.529  -3.381  0.00  0.00    +0.104 C 
ATOM     11  C   UNL     1      -0.014  -0.430  -2.583  0.00  0.00    +0.036 C 
ATOM     12  H   UNL     1      -0.060  -4.092  -1.316  0.00  0.00    +0.156 HD
ENDROOT
BRANCH   5  13
ATOM     13  C   UNL     1       0.046  -3.301   1.494  0.00  0.00    +0.109 C 
ATOM     14  C   UNL     1      -1.203  -3.302   2.378  0.00  0.00    +0.027 C 
ATOM     15  C   UNL     1      -1.189  -4.538   3.279  0.00  0.00    +0.002 C 
ATOM     16  C   UNL     1       0.060  -4.512   4.162  0.00  0.00    +0.000 C 
ATOM     17  C   UNL     1       1.309  -4.511   3.279  0.00  0.00    +0.002 C 
ATOM     18  C   UNL     1       1.296  -3.275   2.377  0.00  0.00    +0.027 C 
ENDBRANCH   5  13
BRANCH  11  19
ATOM     19  C   UNL     1      -1.462  -0.299  -3.060  0.00  0.00    -0.003 C 
ATOM     20  C   UNL     1      -1.478   0.089  -4.540  0.00  0.00    +0.002 C 
ATOM     21  C   UNL     1      -2.926   0.219  -5.017  0.00  0.00    -0.016 C 
ATOM     22  C   UNL     1      -3.638   1.299  -4.199  0.00  0.00    -0.075 C 
ATOM     23  C   UNL     1      -3.621   0.911  -2.719  0.00  0.00    -0.016 C 
ATOM     24  C   UNL     1      -2.173   0.781  -2.242  0.00  0.00    +0.002 C 
BRANCH  22  25
ATOM     25  N   UNL     1      -5.028   1.424  -4.657  0.00  0.00    +0.380 N 
ATOM     26  H   UNL     1      -5.503   0.542  -4.535  0.00  0.00    -0.090 HD
ATOM     27  H   UNL     1      -5.497   2.136  -4.117  0.00  0.00    -0.090 HD
ATOM     28  H   UNL     1      -5.038   1.680  -5.633  0.00  0.00    -0.090 HD
ENDBRANCH  22  25
ENDBRANCH  11  19
TORSDOF 3
