REMARK  Name = ZINC41545543
REMARK  5 active torsions:
REMARK  status: ('A' for Active; 'I' for Inactive)
REMARK    1  A    between atoms: C_1  and  C_2
REMARK    2  A    between atoms: C_9  and  N_14
REMARK    3  A    between atoms: C_10  and  C_11
REMARK    4  A    between atoms: C_15  and  C_17
REMARK    5  A    between atoms: C_17  and  C_28
REMARK                            x       y       z     vdW  Elec       q    Type
REMARK                         _______ _______ _______ _____ _____    ______ ____
ROOT
ATOM      1  N   UNL     1       1.942  -5.826   1.699  0.00  0.00    -0.276 N 
ATOM      2  C   UNL     1       2.253  -6.086   2.984  0.00  0.00    +0.270 C 
ATOM      3  O   UNL     1       2.232  -5.193   3.805  0.00  0.00    -0.271 OA
ATOM      4  H   UNL     1       1.959  -6.540   1.042  0.00  0.00    +0.155 HD
ENDROOT
BRANCH   2   5
ATOM      5  C   UNL     1       2.626  -7.485   3.402  0.00  0.00    +0.258 C 
ATOM      6  C   UNL     1       3.482  -7.427   4.642  0.00  0.00    +0.270 C 
ATOM      7  O   UNL     1       3.379  -6.495   5.410  0.00  0.00    -0.271 OA
ATOM      8  N   UNL     1       4.363  -8.418   4.893  0.00  0.00    -0.279 N 
ATOM      9  C   UNL     1       4.558  -9.420   3.932  0.00  0.00    +0.076 A 
ATOM     10  C   UNL     1       5.274 -10.565   4.243  0.00  0.00    +0.027 A 
ATOM     11  C   UNL     1       5.446 -11.550   3.288  0.00  0.00    +0.002 A 
ATOM     12  C   UNL     1       4.905 -11.396   2.026  0.00  0.00    +0.004 A 
ATOM     13  C   UNL     1       4.193 -10.254   1.707  0.00  0.00    +0.047 A 
ATOM     14  C   UNL     1       4.021  -9.261   2.656  0.00  0.00    +0.144 A 
ATOM     15  O   UNL     1       3.350  -8.119   2.346  0.00  0.00    -0.465 OA
ATOM     16  C   UNL     1       1.355  -8.283   3.699  0.00  0.00    +0.076 C 
ATOM     17  H   UNL     1       4.856  -8.436   5.728  0.00  0.00    +0.155 HD
ENDBRANCH   2   5
BRANCH   1  25
ATOM     18  C   UNL     1      -0.019   1.526   0.010  0.00  0.00    +0.008 C 
ATOM     19  C   UNL     1       0.002  -0.004   0.002  0.00  0.00    -0.009 C 
ATOM     20  C   UNL     1       0.724  -0.500  -1.254  0.00  0.00    +0.008 C 
ATOM     21  C   UNL     1       0.537  -2.012  -1.399  0.00  0.00    +0.037 C 
ATOM     22  C   UNL     1       0.935  -2.680  -0.091  0.00  0.00    -0.023 A 
ATOM     23  C   UNL     1       1.019  -1.977   1.059  0.00  0.00    -0.004 A 
ATOM     24  S   UNL     1       1.508  -3.164   2.276  0.00  0.00    -0.077 S 
ATOM     25  C   UNL     1       1.599  -4.539   1.315  0.00  0.00    +0.085 A 
ATOM     26  C   UNL     1       1.254  -4.090   0.050  0.00  0.00    +0.068 A 
ATOM     27  C   UNL     1       0.750  -0.515   1.242  0.00  0.00    +0.046 C 
BRANCH  26  28
ATOM     28  C   UNL     1       1.212  -5.001  -1.099  0.00  0.00    +0.244 C 
ATOM     29  O   UNL     1       2.208  -5.170  -1.778  0.00  0.00    -0.270 OA
ATOM     30  N   UNL     1       0.071  -5.651  -1.402  0.00  0.00    -0.325 N 
ATOM     31  H   UNL     1      -0.722  -5.516  -0.860  0.00  0.00    +0.145 HD
ATOM     32  H   UNL     1       0.043  -6.254  -2.161  0.00  0.00    +0.145 HD
ENDBRANCH  26  28
ENDBRANCH   1  25
TORSDOF 3
