REMARK  Name = ZINC11880302
REMARK  12 active torsions:
REMARK  status: ('A' for Active; 'I' for Inactive)
REMARK    1  A    between atoms: C_1  and  O_2
REMARK    2  A    between atoms: O_2  and  C_3
REMARK    3  A    between atoms: C_3  and  C_4
REMARK    4  A    between atoms: C_4  and  N_5
REMARK    5  A    between atoms: C_8  and  C_12
REMARK    6  A    between atoms: C_8  and  C_20
REMARK    7  A    between atoms: C_12  and  C_13
REMARK    8  A    between atoms: C_25  and  C_26
REMARK    9  A    between atoms: C_25  and  N_67
REMARK   10  A    between atoms: C_29  and  O_33
REMARK   11  A    between atoms: C_31  and  O_32
REMARK   12  A    between atoms: O_33  and  C_34
REMARK                            x       y       z     vdW  Elec       q    Type
REMARK                         _______ _______ _______ _____ _____    ______ ____
ROOT
ATOM      1  N   UNL     1       0.512   4.582  -3.198  0.00  0.00    -0.222 N 
ATOM      2  C   UNL     1       1.067   5.295  -2.198  0.00  0.00    +0.247 C 
ATOM      3  O   UNL     1       2.249   5.449  -1.976  0.00  0.00    -0.273 OA
ATOM      4  C   UNL     1      -0.095   5.866  -1.409  0.00  0.00    +0.119 C 
ATOM      5  N   UNL     1      -1.280   5.361  -2.123  0.00  0.00    -0.284 N 
ATOM      6  C   UNL     1      -0.824   4.623  -3.151  0.00  0.00    +0.309 C 
ATOM      7  O   UNL     1      -1.546   4.056  -3.948  0.00  0.00    -0.252 OA
ATOM      8  H   UNL     1      -2.208   5.527  -1.896  0.00  0.00    +0.151 HD
ENDROOT
BRANCH   4   9
ATOM      9  C   UNL     1      -0.065   7.395  -1.430  0.00  0.00    +0.018 C 
ATOM     10  C   UNL     1      -1.289   7.942  -0.691  0.00  0.00    -0.013 C 
ATOM     11  C   UNL     1      -1.286   9.470  -0.769  0.00  0.00    -0.078 C 
ATOM     12  C   UNL     1      -0.121   9.418  -2.893  0.00  0.00    -0.078 C 
ATOM     13  C   UNL     1      -0.090   7.888  -2.880  0.00  0.00    -0.013 C 
ATOM     14  N   UNL     1      -1.337   9.879  -2.189  0.00  0.00    +0.382 N 
ATOM     15  H   UNL     1      -2.160   9.452  -2.630  0.00  0.00    -0.081 HD
BRANCH  14  16
ATOM     16  C   UNL     1      -1.449  11.349  -2.287  0.00  0.00    -0.039 C 
BRANCH  16  17
ATOM     17  C   UNL     1      -2.796  11.769  -1.757  0.00  0.00    -0.022 A 
ATOM     18  C   UNL     1      -3.831  12.034  -2.634  0.00  0.00    +0.009 A 
ATOM     19  C   UNL     1      -5.066  12.419  -2.151  0.00  0.00    +0.046 A 
ATOM     20  C   UNL     1      -5.271  12.540  -0.783  0.00  0.00    +0.124 A 
ATOM     21  C   UNL     1      -4.235  12.275   0.098  0.00  0.00    +0.091 A 
ATOM     22  C   UNL     1      -2.997  11.883  -0.389  0.00  0.00    +0.122 A 
BRANCH  22  23
ATOM     23  O   UNL     1      -1.981  11.617   0.473  0.00  0.00    -0.506 OA
ATOM     24  H   UNL     1      -1.436  12.386   0.688  0.00  0.00    +0.292 HD
ENDBRANCH  22  23
BRANCH  20  25
ATOM     25  O   UNL     1      -6.487  12.919  -0.309  0.00  0.00    -0.495 OA
ATOM     26  C   UNL     1      -7.509  13.176  -1.274  0.00  0.00    +0.277 C 
ENDBRANCH  20  25
ENDBRANCH  16  17
ENDBRANCH  14  16
ENDBRANCH   4   9
BRANCH   1  27
ATOM     27  C   UNL     1       1.279   3.854  -4.212  0.00  0.00    +0.146 C 
BRANCH  27  28
ATOM     28  C   UNL     1       1.551   4.774  -5.404  0.00  0.00    +0.179 C 
BRANCH  28  30
ATOM     29  C   UNL     1       2.714   6.772  -6.036  0.00  0.00    +0.194 C 
ATOM     30  O   UNL     1       2.396   5.850  -4.992  0.00  0.00    -0.381 OA
ENDBRANCH  28  30
ENDBRANCH  27  28
ENDBRANCH   1  27
BRANCH   4  31
ATOM     31  C   UNL     1      -0.073   5.349   0.031  0.00  0.00    +0.070 C 
BRANCH  31  32
ATOM     32  C   UNL     1      -0.051   3.842   0.023  0.00  0.00    -0.042 A 
ATOM     33  C   UNL     1      -1.238   3.133   0.031  0.00  0.00    +0.004 A 
ATOM     34  C   UNL     1      -1.219   1.751   0.017  0.00  0.00    +0.003 A 
ATOM     35  C   UNL     1      -0.013   1.076   0.008  0.00  0.00    +0.038 A 
ATOM     36  C   UNL     1       1.177   1.784   0.000  0.00  0.00    +0.124 A 
ATOM     37  C   UNL     1       1.156   3.169   0.008  0.00  0.00    +0.042 A 
ATOM     38  F   UNL     1       2.356   1.126  -0.015  0.00  0.00    -0.205 F 
ENDBRANCH  31  32
ENDBRANCH   4  31
TORSDOF 10
