REMARK  Name = ZINC15529974
REMARK  5 active torsions:
REMARK  status: ('A' for Active; 'I' for Inactive)
REMARK    1  A    between atoms: C_10  and  C_13
REMARK    2  A    between atoms: C_13  and  C_14
REMARK    3  A    between atoms: N_16  and  N_17
REMARK    4  A    between atoms: C_18  and  C_20
REMARK    5  A    between atoms: C_20  and  C_21
REMARK                            x       y       z     vdW  Elec       q    Type
REMARK                         _______ _______ _______ _____ _____    ______ ____
ROOT
ATOM      1  C   UNL     1      -0.513   1.424  -4.808  0.00  0.00    +0.231 C 
ATOM      2  O   UNL     1       0.481   0.741  -4.933  0.00  0.00    -0.274 OA
ATOM      3  N   UNL     1      -0.966   1.736  -3.578  0.00  0.00    -0.234 N 
ATOM      4  H   UNL     1      -1.761   2.283  -3.479  0.00  0.00    +0.173 HD
ENDROOT
BRANCH   3   5
ATOM      5  N   UNL     1      -0.288   1.272  -2.443  0.00  0.00    -0.234 N 
ATOM      6  C   UNL     1      -0.742   1.585  -1.213  0.00  0.00    +0.233 C 
ATOM      7  O   UNL     1      -1.736   2.268  -1.088  0.00  0.00    -0.274 OA
ATOM      8  H   UNL     1       0.507   0.726  -2.543  0.00  0.00    +0.173 HD
BRANCH   6   9
ATOM      9  C   UNL     1      -0.013   1.086   0.008  0.00  0.00    +0.132 C 
BRANCH   9  10
ATOM     10  C   UNL     1      -0.718   1.572   1.248  0.00  0.00    -0.038 A 
ATOM     11  C   UNL     1      -0.360   2.779   1.818  0.00  0.00    +0.005 A 
ATOM     12  C   UNL     1      -1.010   3.228   2.952  0.00  0.00    +0.020 A 
ATOM     13  C   UNL     1      -2.012   2.464   3.523  0.00  0.00    +0.041 A 
ATOM     14  C   UNL     1      -2.367   1.253   2.955  0.00  0.00    +0.020 A 
ATOM     15  C   UNL     1      -1.719   0.808   1.817  0.00  0.00    +0.005 A 
ATOM     16 CL   UNL     1      -2.825   3.024   4.951  0.00  0.00    -0.084 Cl
ENDBRANCH   9  10
ENDBRANCH   6   9
ENDBRANCH   3   5
BRANCH   1  17
ATOM     17  C   UNL     1      -1.242   1.923  -6.029  0.00  0.00    +0.121 C 
BRANCH  17  27
ATOM     18  C   UNL     1      -4.920  -1.001  -8.776  0.00  0.00    +0.002 A 
ATOM     19  C   UNL     1      -4.309  -1.958  -7.986  0.00  0.00    +0.001 A 
ATOM     20  C   UNL     1      -3.009  -1.767  -7.556  0.00  0.00    +0.016 A 
ATOM     21  C   UNL     1      -2.325  -0.617  -7.914  0.00  0.00    +0.030 A 
ATOM     22  C   UNL     1      -2.942   0.363  -8.692  0.00  0.00    +0.047 A 
ATOM     23  C   UNL     1      -4.244   0.149  -9.132  0.00  0.00    +0.024 A 
ATOM     24  N   UNL     1      -2.282   1.532  -9.058  0.00  0.00    -0.284 N 
ATOM     25  C   UNL     1      -1.177   2.026  -8.509  0.00  0.00    +0.231 C 
ATOM     26  O   UNL     1      -0.669   3.004  -9.015  0.00  0.00    -0.274 OA
ATOM     27  C   UNL     1      -0.526   1.429  -7.288  0.00  0.00    +0.146 C 
ATOM     28  S   UNL     1      -0.653  -0.382  -7.395  0.00  0.00    -0.110 S 
ATOM     29  H   UNL     1      -2.668   2.039  -9.789  0.00  0.00    +0.155 HD
ENDBRANCH  17  27
ENDBRANCH   1  17
TORSDOF 5
