REMARK  Name = ZINC35870794
REMARK  4 active torsions:
REMARK  status: ('A' for Active; 'I' for Inactive)
REMARK    1  A    between atoms: C_3  and  C_8
REMARK    2  A    between atoms: C_8  and  N_9
REMARK    3  A    between atoms: C_10  and  C_12
REMARK    4  A    between atoms: C_17  and  N_28
REMARK                            x       y       z     vdW  Elec       q    Type
REMARK                         _______ _______ _______ _____ _____    ______ ____
ROOT
ATOM      1  C   UNL     1       5.688   3.358   3.014  0.00  0.00    +0.102 C 
ATOM      2  C   UNL     1       4.618   4.163   3.749  0.00  0.00    +0.051 C 
ATOM      3  C   UNL     1       4.508   5.533   3.131  0.00  0.00    -0.023 A 
ATOM      4  C   UNL     1       3.317   6.229   3.236  0.00  0.00    +0.038 A 
ATOM      5  C   UNL     1       3.194   7.484   2.672  0.00  0.00    +0.127 A 
ATOM      6  C   UNL     1       4.262   8.050   1.999  0.00  0.00    +0.034 A 
ATOM      7  C   UNL     1       5.454   7.361   1.893  0.00  0.00    +0.025 A 
ATOM      8  C   UNL     1       5.580   6.098   2.463  0.00  0.00    +0.033 A 
ATOM      9  N   UNL     1       6.809   5.428   2.350  0.00  0.00    -0.322 N 
ATOM     10  C   UNL     1       7.004   4.144   3.006  0.00  0.00    +0.111 C 
ATOM     11  C   UNL     1       8.082   3.292   2.352  0.00  0.00    +0.183 C 
ATOM     12  O   UNL     1       9.160   4.086   1.868  0.00  0.00    -0.376 OA
ATOM     13  C   UNL     1       8.754   5.052   0.893  0.00  0.00    +0.178 C 
ATOM     14  C   UNL     1       7.870   6.088   1.585  0.00  0.00    +0.133 C 
ENDROOT
BRANCH   1  16
ATOM     15  N   UNL     1       4.104   2.429   1.357  0.00  0.00    -0.311 N 
ATOM     16  C   UNL     1       5.244   3.107   1.596  0.00  0.00    +0.219 C 
ATOM     17  O   UNL     1       5.911   3.517   0.670  0.00  0.00    -0.275 OA
ATOM     18  H   UNL     1       3.570   2.102   2.098  0.00  0.00    +0.149 HD
BRANCH  15  19
ATOM     19  C   UNL     1       3.672   2.186  -0.021  0.00  0.00    +0.139 C 
BRANCH  19  22
ATOM     20  C   UNL     1      -0.017   1.377   0.010  0.00  0.00    +0.003 A 
ATOM     21  C   UNL     1       1.171   2.086   0.002  0.00  0.00    +0.005 A 
ATOM     22  C   UNL     1       2.378   1.413  -0.013  0.00  0.00    -0.028 A 
ATOM     23  C   UNL     1       2.399   0.030  -0.021  0.00  0.00    +0.043 A 
ATOM     24  C   UNL     1       1.211  -0.679  -0.013  0.00  0.00    +0.124 A 
ATOM     25  C   UNL     1       0.002  -0.004   0.002  0.00  0.00    +0.038 A 
ATOM     26  F   UNL     1       1.230  -2.030  -0.022  0.00  0.00    -0.205 F 
ENDBRANCH  19  22
ENDBRANCH  15  19
ENDBRANCH   1  16
BRANCH   5  27
ATOM     27  N   UNL     1       1.918   8.225   2.787  0.00  0.00    +0.056 N 
ATOM     28  O   UNL     1       0.984   7.731   3.374  0.00  0.00    -0.126 OA
ATOM     29  O   UNL     1       1.810   9.324   2.294  0.00  0.00    -0.126 OA
ENDBRANCH   5  27
TORSDOF 4
