REMARK  Name = ZINC64173357
REMARK  4 active torsions:
REMARK  status: ('A' for Active; 'I' for Inactive)
REMARK    1  A    between atoms: C_9  and  O_15
REMARK    2  A    between atoms: O_15  and  C_16
REMARK    3  A    between atoms: C_16  and  C_17
REMARK    4  A    between atoms: N_19  and  C_20
REMARK                            x       y       z     vdW  Elec       q    Type
REMARK                         _______ _______ _______ _____ _____    ______ ____
ROOT
ATOM      1  O   UNL     1       3.393  -5.128  -1.920  0.00  0.00    -0.483 OA
ENDROOT
BRANCH   1   9
ATOM      2  C   UNL     1      -0.032   1.375  -0.067  0.00  0.00    +0.001 A 
ATOM      3  C   UNL     1       1.147   2.123  -0.075  0.00  0.00    +0.002 A 
ATOM      4  C   UNL     1       2.367   1.532  -0.077  0.00  0.00    +0.026 A 
ATOM      5  C   UNL     1       2.469   0.119  -0.069  0.00  0.00    +0.044 A 
ATOM      6  N   UNL     1       3.523  -0.685  -0.110  0.00  0.00    -0.374 N 
ATOM      7  C   UNL     1       3.061  -2.042   0.081  0.00  0.00    +0.137 C 
ATOM      8  C   UNL     1       3.623  -3.097  -0.809  0.00  0.00    +0.047 C 
ATOM      9  C   UNL     1       2.842  -4.132  -1.176  0.00  0.00    +0.120 C 
ATOM     10  C   UNL     1       1.476  -4.229  -0.824  0.00  0.00    +0.046 C 
ATOM     11  C   UNL     1       0.795  -3.137  -0.348  0.00  0.00    +0.010 C 
ATOM     12  C   UNL     1       1.560  -2.013  -0.089  0.00  0.00    -0.012 C 
ATOM     13  C   UNL     1       1.219  -0.669  -0.073  0.00  0.00    +0.003 A 
ATOM     14  C   UNL     1      -0.013   0.018  -0.065  0.00  0.00    +0.010 A 
ATOM     15  H   UNL     1       4.443  -0.411  -0.245  0.00  0.00    +0.161 HD
ENDBRANCH   1   9
BRANCH   1  16
ATOM     16  C   UNL     1       4.775  -4.997  -2.258  0.00  0.00    +0.324 C 
BRANCH  16  17
ATOM     17  C   UNL     1       5.207  -6.185  -3.078  0.00  0.00    +0.255 C 
ATOM     18  O   UNL     1       4.409  -7.059  -3.346  0.00  0.00    -0.272 OA
ATOM     19  N   UNL     1       6.479  -6.277  -3.513  0.00  0.00    -0.281 N 
ATOM     20  H   UNL     1       7.100  -5.549  -3.354  0.00  0.00    +0.155 HD
BRANCH  19  21
ATOM     21  C   UNL     1       6.905  -7.426  -4.194  0.00  0.00    +0.056 A 
ATOM     22  C   UNL     1       6.029  -8.099  -5.035  0.00  0.00    +0.074 A 
ATOM     23  C   UNL     1       6.451  -9.233  -5.708  0.00  0.00    +0.168 A 
ATOM     24  C   UNL     1       7.753  -9.697  -5.540  0.00  0.00    +0.168 A 
ATOM     25  C   UNL     1       8.624  -9.024  -4.699  0.00  0.00    +0.071 A 
ATOM     26  C   UNL     1       8.205  -7.887  -4.032  0.00  0.00    +0.066 A 
ATOM     27 CL   UNL     1       9.302  -7.042  -2.985  0.00  0.00    -0.082 Cl
ATOM     28  O   UNL     1       7.918 -10.818  -6.303  0.00  0.00    -0.453 OA
ATOM     29  C   UNL     1       6.588 -11.267  -6.620  0.00  0.00    +0.466 C 
ATOM     30  O   UNL     1       5.801 -10.062  -6.577  0.00  0.00    -0.453 OA
ENDBRANCH  19  21
ENDBRANCH  16  17
ENDBRANCH   1  16
TORSDOF 4
