REMARK  Name = ZINC03978336
REMARK  12 active torsions:
REMARK  status: ('A' for Active; 'I' for Inactive)
REMARK    1  A    between atoms: C_1  and  C_2
REMARK    2  A    between atoms: C_2  and  O_4
REMARK    3  A    between atoms: O_4  and  C_5
REMARK    4  A    between atoms: C_9  and  C_44
REMARK    5  A    between atoms: C_14  and  C_43
REMARK    6  A    between atoms: C_15  and  C_38
REMARK    7  A    between atoms: C_23  and  C_36
REMARK    8  A    between atoms: C_24  and  O_32
REMARK    9  A    between atoms: C_29  and  C_30
REMARK   10  A    between atoms: C_29  and  C_31
REMARK   11  A    between atoms: O_32  and  C_33
REMARK   12  A    between atoms: C_33  and  C_35
REMARK                            x       y       z     vdW  Elec       q    Type
REMARK                         _______ _______ _______ _____ _____    ______ ____
ROOT
ATOM      1  C   UNL     1      -2.149  -1.189  -3.080  0.00  0.00    +0.182 C 
ATOM      2  C   UNL     1      -2.100   0.223  -2.517  0.00  0.00    +0.046 C 
ATOM      3  C   UNL     1      -0.904   0.390  -1.585  0.00  0.00    +0.011 C 
ATOM      4  C   UNL     1      -1.057  -0.566  -0.384  0.00  0.00    -0.025 C 
ATOM      5  C   UNL     1       0.198  -0.453   0.470  0.00  0.00    +0.008 C 
ATOM      6  C   UNL     1       0.488   0.927   1.031  0.00  0.00    +0.005 C 
ATOM      7  C   UNL     1       2.002   1.047   1.254  0.00  0.00    +0.014 C 
ATOM      8  C   UNL     1       2.634  -0.246   1.730  0.00  0.00    +0.042 C 
ATOM      9  C   UNL     1       3.744   0.032   2.743  0.00  0.00    +0.218 C 
ATOM     10  O   UNL     1       4.389  -1.165   3.205  0.00  0.00    -0.454 OA
ATOM     11  C   UNL     1       3.724  -2.295   3.442  0.00  0.00    +0.340 C 
ATOM     12  O   UNL     1       4.304  -3.271   3.860  0.00  0.00    -0.248 OA
ATOM     13  C   UNL     1       2.229  -2.355   3.189  0.00  0.00    +0.260 C 
ATOM     14  C   UNL     1       1.652  -1.249   2.306  0.00  0.00    +0.125 C 
ATOM     15  C   UNL     1       0.323  -1.489   1.575  0.00  0.00    +0.041 C 
ATOM     16  C   UNL     1       0.212  -2.896   1.004  0.00  0.00    +0.186 C 
ATOM     17  C   UNL     1      -1.091  -3.015   0.195  0.00  0.00    +0.050 C 
ATOM     18  C   UNL     1      -1.087  -1.992  -0.935  0.00  0.00    +0.008 C 
ATOM     19  C   UNL     1      -2.136  -2.260  -1.990  0.00  0.00    +0.006 C 
ATOM     20  C   UNL     1      -3.538  -2.429  -1.405  0.00  0.00    +0.015 C 
ATOM     21  C   UNL     1      -1.779  -3.591  -2.698  0.00  0.00    +0.015 C 
ATOM     22  C   UNL     1      -0.755  -1.337   2.666  0.00  0.00    +0.018 C 
ATOM     23  O   UNL     1       1.502  -1.249   3.744  0.00  0.00    -0.352 OA
ATOM     24  C   UNL     1       3.355  -0.889   0.541  0.00  0.00    +0.018 C 
ATOM     25  C   UNL     1      -2.312  -0.167   0.378  0.00  0.00    +0.012 C 
ENDROOT
BRANCH   9  26
ATOM     26  C   UNL     1       4.775   0.910   2.082  0.00  0.00    +0.031 A 
ATOM     27  C   UNL     1       4.873   2.317   2.182  0.00  0.00    +0.048 A 
ATOM     28  C   UNL     1       5.934   2.687   1.443  0.00  0.00    +0.195 A 
ATOM     29  O   UNL     1       6.475   1.587   0.896  0.00  0.00    -0.471 OA
ATOM     30  C   UNL     1       5.777   0.506   1.280  0.00  0.00    +0.202 A 
ENDBRANCH   9  26
BRANCH   1  31
ATOM     31  O   UNL     1      -3.356  -1.345  -3.881  0.00  0.00    -0.461 OA
BRANCH  31  33
ATOM     32  C   UNL     1      -4.474  -1.181  -6.076  0.00  0.00    +0.136 C 
ATOM     33  C   UNL     1      -3.266  -1.044  -5.186  0.00  0.00    +0.304 C 
ATOM     34  O   UNL     1      -2.215  -0.664  -5.646  0.00  0.00    -0.251 OA
ENDBRANCH  31  33
ENDBRANCH   1  31
BRANCH  16  35
ATOM     35  O   UNL     1       1.345  -3.189   0.146  0.00  0.00    -0.461 OA
BRANCH  35  36
ATOM     36  C   UNL     1       1.744  -4.468   0.079  0.00  0.00    +0.304 C 
ATOM     37  O   UNL     1       1.165  -5.316   0.716  0.00  0.00    -0.251 OA
ATOM     38  C   UNL     1       2.913  -4.848  -0.792  0.00  0.00    +0.136 C 
ENDBRANCH  35  36
ENDBRANCH  16  35
TORSDOF 5
