REMARK  Name = ZINC05313452
REMARK  4 active torsions:
REMARK  status: ('A' for Active; 'I' for Inactive)
REMARK    1  A    between atoms: C_7  and  C_13
REMARK    2  A    between atoms: C_13  and  N_14
REMARK    3  A    between atoms: C_15  and  C_17
REMARK    4  A    between atoms: N_22  and  C_24
REMARK                            x       y       z     vdW  Elec       q    Type
REMARK                         _______ _______ _______ _____ _____    ______ ____
ROOT
ATOM      1  N   UNL     1       0.370  -4.379  -0.038  0.00  0.00    -0.309 N 
ATOM      2  C   UNL     1      -0.608  -5.306  -0.037  0.00  0.00    +0.218 C 
ATOM      3  O   UNL     1      -1.771  -4.961  -0.038  0.00  0.00    -0.275 OA
ATOM      4  H   UNL     1       1.300  -4.655  -0.037  0.00  0.00    +0.149 HD
ENDROOT
BRANCH   2   5
ATOM      5  C   UNL     1      -0.258  -6.772  -0.036  0.00  0.00    +0.101 C 
ATOM      6  C   UNL     1       0.476  -7.166  -1.339  0.00  0.00    +0.110 C 
ATOM      7  C   UNL     1      -0.045  -8.551  -1.654  0.00  0.00    +0.221 C 
ATOM      8  O   UNL     1       0.472  -9.328  -2.428  0.00  0.00    -0.275 OA
ATOM      9  N   UNL     1      -1.165  -8.794  -0.952  0.00  0.00    -0.271 N 
ATOM     10  C   UNL     1      -1.530  -7.645  -0.114  0.00  0.00    +0.127 C 
BRANCH   9  11
ATOM     11  C   UNL     1      -1.890  -9.990  -1.010  0.00  0.00    +0.036 A 
ATOM     12  C   UNL     1      -1.528 -10.979  -1.916  0.00  0.00    +0.025 A 
ATOM     13  C   UNL     1      -2.245 -12.158  -1.971  0.00  0.00    +0.022 A 
ATOM     14  C   UNL     1      -3.323 -12.355  -1.125  0.00  0.00    +0.041 A 
ATOM     15  C   UNL     1      -3.685 -11.371  -0.222  0.00  0.00    +0.022 A 
ATOM     16  C   UNL     1      -2.968 -10.192  -0.158  0.00  0.00    +0.025 A 
ATOM     17 CL   UNL     1      -4.222 -13.838  -1.198  0.00  0.00    -0.084 Cl
ENDBRANCH   9  11
ENDBRANCH   2   5
BRANCH   1  18
ATOM     18  C   UNL     1       0.029  -2.954  -0.038  0.00  0.00    +0.162 C 
BRANCH  18  25
ATOM     19  C   UNL     1      -0.021   1.368  -0.042  0.00  0.00    +0.001 A 
ATOM     20  C   UNL     1       1.161   2.097  -0.042  0.00  0.00    +0.001 A 
ATOM     21  C   UNL     1       2.382   1.458  -0.041  0.00  0.00    +0.014 A 
ATOM     22  C   UNL     1       2.424   0.064  -0.040  0.00  0.00    +0.050 A 
ATOM     23  C   UNL     1       1.219  -0.674  -0.040  0.00  0.00    +0.012 A 
ATOM     24  C   UNL     1      -0.003   0.001  -0.041  0.00  0.00    +0.010 A 
ATOM     25  C   UNL     1       1.294  -2.135  -0.039  0.00  0.00    +0.086 A 
ATOM     26  N   UNL     1       2.451  -2.727  -0.038  0.00  0.00    -0.174 NA
ATOM     27  N   UNL     1       3.657  -2.024  -0.038  0.00  0.00    -0.242 N 
ATOM     28  H   UNL     1       4.491  -2.519  -0.037  0.00  0.00    +0.192 HD
ATOM     29  C   UNL     1       3.692  -0.675  -0.039  0.00  0.00    +0.272 A 
ATOM     30  O   UNL     1       4.757  -0.083  -0.040  0.00  0.00    -0.266 OA
ENDBRANCH  18  25
ENDBRANCH   1  18
TORSDOF 4
