REMARK  Name = ZINC40736123
REMARK  9 active torsions:
REMARK  status: ('A' for Active; 'I' for Inactive)
REMARK    1  A    between atoms: C_4  and  C_7
REMARK    2  A    between atoms: C_7  and  C_9
REMARK    3  A    between atoms: C_7  and  O_31
REMARK    4  A    between atoms: C_9  and  N_10
REMARK    5  A    between atoms: N_10  and  C_11
REMARK    6  A    between atoms: C_11  and  C_12
REMARK    7  A    between atoms: C_21  and  O_22
REMARK    8  A    between atoms: O_22  and  C_23
REMARK    9  A    between atoms: C_23  and  C_24
REMARK                            x       y       z     vdW  Elec       q    Type
REMARK                         _______ _______ _______ _____ _____    ______ ____
ROOT
ATOM      1  C   UNL     1       7.079  -2.876   2.747  0.00  0.00    -0.015 A 
ATOM      2  C   UNL     1       7.228  -4.250   2.499  0.00  0.00    -0.013 A 
ATOM      3  C   UNL     1       6.115  -5.069   2.241  0.00  0.00    +0.009 A 
ATOM      4  C   UNL     1       6.296  -6.397   2.005  0.00  0.00    +0.001 A 
ATOM      5  C   UNL     1       7.571  -6.960   2.014  0.00  0.00    +0.001 A 
ATOM      6  C   UNL     1       8.672  -6.198   2.260  0.00  0.00    +0.008 A 
ATOM      7  C   UNL     1       8.524  -4.823   2.508  0.00  0.00    -0.017 A 
ATOM      8  C   UNL     1       9.639  -4.005   2.765  0.00  0.00    +0.012 A 
ATOM      9  C   UNL     1       9.462  -2.678   3.001  0.00  0.00    +0.046 A 
ATOM     10  C   UNL     1       8.184  -2.110   2.988  0.00  0.00    +0.123 A 
ENDROOT
BRANCH   1  11
ATOM     11  C   UNL     1       5.709  -2.249   2.741  0.00  0.00    -0.042 C 
BRANCH  11  12
ATOM     12  N   UNL     1       5.385  -1.793   1.383  0.00  0.00    +0.384 N 
ATOM     13  H   UNL     1       5.397  -2.580   0.752  0.00  0.00    -0.085 HD
ATOM     14  H   UNL     1       6.067  -1.113   1.085  0.00  0.00    -0.085 HD
BRANCH  12  15
ATOM     15  C   UNL     1       4.049  -1.182   1.377  0.00  0.00    -0.046 C 
BRANCH  15  16
ATOM     16  C   UNL     1       3.711  -0.707  -0.038  0.00  0.00    +0.128 C 
BRANCH  16  20
ATOM     17  C   UNL     1      -0.017   1.378   0.010  0.00  0.00    +0.000 A 
ATOM     18  C   UNL     1       1.171   2.086   0.002  0.00  0.00    +0.000 A 
ATOM     19  C   UNL     1       2.377   1.411  -0.013  0.00  0.00    +0.006 A 
ATOM     20  C   UNL     1       2.396   0.029  -0.020  0.00  0.00    -0.021 A 
ATOM     21  C   UNL     1       1.208  -0.679  -0.012  0.00  0.00    +0.006 A 
ATOM     22  C   UNL     1       0.002  -0.004   0.002  0.00  0.00    +0.000 A 
ENDBRANCH  16  20
BRANCH  16  23
ATOM     23  O   UNL     1       3.614  -1.836  -0.908  0.00  0.00    -0.389 OA
ATOM     24  H   UNL     1       2.934  -2.474  -0.651  0.00  0.00    +0.210 HD
ENDBRANCH  16  23
ENDBRANCH  15  16
ENDBRANCH  12  15
ENDBRANCH  11  12
ENDBRANCH   1  11
BRANCH  10  25
ATOM     25  O   UNL     1       8.039  -0.779   3.222  0.00  0.00    -0.487 OA
BRANCH  25  26
ATOM     26  C   UNL     1       9.231  -0.030   3.468  0.00  0.00    +0.264 C 
BRANCH  26  27
ATOM     27  C   UNL     1       8.877   1.415   3.704  0.00  0.00    -0.009 A 
ATOM     28  C   UNL     1       8.813   2.295   2.639  0.00  0.00    +0.007 A 
ATOM     29  C   UNL     1       8.488   3.620   2.856  0.00  0.00    +0.002 A 
ATOM     30  C   UNL     1       8.226   4.068   4.137  0.00  0.00    +0.020 A 
ATOM     31  C   UNL     1       8.290   3.188   5.203  0.00  0.00    +0.041 A 
ATOM     32  C   UNL     1       8.609   1.860   4.985  0.00  0.00    +0.027 A 
ATOM     33 CL   UNL     1       7.961   3.750   6.813  0.00  0.00    -0.084 Cl
ENDBRANCH  26  27
ENDBRANCH  25  26
ENDBRANCH  10  25
TORSDOF 9
