REMARK  Name = ZINC22883031
REMARK  6 active torsions:
REMARK  status: ('A' for Active; 'I' for Inactive)
REMARK    1  A    between atoms: C_1  and  C_2
REMARK    2  A    between atoms: C_7  and  N_8
REMARK    3  A    between atoms: N_8  and  C_9
REMARK    4  A    between atoms: C_9  and  N_11
REMARK    5  A    between atoms: N_11  and  N_12
REMARK    6  A    between atoms: C_22  and  C_24
REMARK                            x       y       z     vdW  Elec       q    Type
REMARK                         _______ _______ _______ _____ _____    ______ ____
ROOT
ATOM      1  N   UNL     1      -0.175   1.374   4.750  0.00  0.00    -0.189 NA
ATOM      2  C   UNL     1      -0.269   2.008   5.858  0.00  0.00    +0.055 C 
ATOM      3  C   UNL     1      -0.360   1.332   7.222  0.00  0.00    +0.064 C 
ATOM      4  C   UNL     1      -1.746   1.704   7.778  0.00  0.00    +0.095 C 
ATOM      5  N   UNL     1      -1.831   3.138   7.912  0.00  0.00    -0.299 NA
ATOM      6  C   UNL     1      -1.308   3.721   9.120  0.00  0.00    +0.100 C 
ATOM      7  C   UNL     1       0.111   4.172   8.966  0.00  0.00    +0.100 C 
ATOM      8  N   UNL     1       0.911   3.340   8.099  0.00  0.00    -0.299 NA
ATOM      9  C   UNL     1       0.712   1.922   8.121  0.00  0.00    +0.095 C 
ATOM     10  C   UNL     1       0.949   3.930   6.750  0.00  0.00    +0.103 C 
ATOM     11  C   UNL     1      -0.298   3.529   5.969  0.00  0.00    +0.061 C 
ATOM     12  C   UNL     1      -1.581   3.915   6.707  0.00  0.00    +0.103 C 
ENDROOT
BRANCH  11  13
ATOM     13  C   UNL     1      -0.265   4.150   4.596  0.00  0.00    -0.033 A 
ATOM     14  C   UNL     1       0.773   4.992   4.243  0.00  0.00    +0.004 A 
ATOM     15  C   UNL     1       0.803   5.561   2.984  0.00  0.00    +0.000 A 
ATOM     16  C   UNL     1      -0.204   5.287   2.077  0.00  0.00    +0.000 A 
ATOM     17  C   UNL     1      -1.241   4.444   2.430  0.00  0.00    +0.000 A 
ATOM     18  C   UNL     1      -1.269   3.872   3.688  0.00  0.00    +0.004 A 
ENDBRANCH  11  13
BRANCH   1  19
ATOM     19  N   UNL     1      -0.156  -0.027   4.744  0.00  0.00    -0.218 N 
ATOM     20  H   UNL     1      -0.214  -0.516   5.580  0.00  0.00    +0.176 HD
BRANCH  19  21
ATOM     21  C   UNL     1      -0.056  -0.695   3.578  0.00  0.00    +0.154 C 
ATOM     22  S   UNL     1      -0.033  -2.407   3.571  0.00  0.00    -0.017 S 
BRANCH  21  23
ATOM     23  N   UNL     1       0.025  -0.015   2.417  0.00  0.00    -0.295 N 
ATOM     24  H   UNL     1       0.075   0.954   2.424  0.00  0.00    +0.154 HD
BRANCH  23  31
ATOM     25  C   UNL     1      -1.704   0.883   0.343  0.00  0.00    +0.045 C 
ATOM     26  C   UNL     1      -0.790  -0.302   0.162  0.00  0.00    -0.029 A 
ATOM     27  C   UNL     1      -0.772  -0.983  -1.039  0.00  0.00    +0.005 A 
ATOM     28  C   UNL     1       0.066  -2.070  -1.206  0.00  0.00    +0.000 A 
ATOM     29  C   UNL     1       0.888  -2.479  -0.172  0.00  0.00    +0.002 A 
ATOM     30  C   UNL     1       0.874  -1.802   1.032  0.00  0.00    +0.023 A 
ATOM     31  C   UNL     1       0.037  -0.706   1.201  0.00  0.00    +0.036 A 
ENDBRANCH  23  31
ENDBRANCH  21  23
ENDBRANCH  19  21
ENDBRANCH   1  19
TORSDOF 5
