REMARK  Name = ZINC09217658
REMARK  5 active torsions:
REMARK  status: ('A' for Active; 'I' for Inactive)
REMARK    1  A    between atoms: N_11  and  C_12
REMARK    2  A    between atoms: C_17  and  C_18
REMARK    3  A    between atoms: C_17  and  N_59
REMARK    4  A    between atoms: N_20  and  C_21
REMARK    5  A    between atoms: N_20  and  C_24
REMARK                            x       y       z     vdW  Elec       q    Type
REMARK                         _______ _______ _______ _____ _____    ______ ____
ROOT
ATOM      1  C   UNL     1      -2.941  -2.541  -1.100  0.00  0.00    +0.089 C 
ATOM      2  C   UNL     1      -1.894  -3.028  -0.094  0.00  0.00    +0.006 C 
ATOM      3  C   UNL     1      -0.597  -2.241  -0.294  0.00  0.00    -0.076 C 
ATOM      4  C   UNL     1      -1.824  -0.308  -1.088  0.00  0.00    -0.076 C 
ATOM      5  C   UNL     1      -3.158  -1.037  -0.911  0.00  0.00    +0.006 C 
ATOM      6  N   UNL     1      -0.868  -0.805  -0.075  0.00  0.00    +0.386 N 
ATOM      7  H   UNL     1      -1.278  -0.682   0.859  0.00  0.00    -0.081 HD
ENDROOT
BRANCH   1  18
ATOM      8  C   UNL     1      -6.598  -5.725  -3.170  0.00  0.00    +0.002 A 
ATOM      9  C   UNL     1      -5.454  -5.252  -3.791  0.00  0.00    +0.002 A 
ATOM     10  C   UNL     1      -4.586  -4.420  -3.112  0.00  0.00    +0.028 A 
ATOM     11  C   UNL     1      -4.862  -4.054  -1.803  0.00  0.00    +0.070 A 
ATOM     12  C   UNL     1      -6.016  -4.530  -1.177  0.00  0.00    +0.067 A 
ATOM     13  C   UNL     1      -6.881  -5.367  -1.866  0.00  0.00    +0.028 A 
ATOM     14  N   UNL     1      -6.021  -4.002   0.112  0.00  0.00    -0.306 N 
ATOM     15  H   UNL     1      -6.702  -4.157   0.786  0.00  0.00    +0.170 HD
ATOM     16  C   UNL     1      -4.920  -3.243   0.264  0.00  0.00    +0.328 A 
ATOM     17  O   UNL     1      -4.619  -2.640   1.277  0.00  0.00    -0.247 OA
ATOM     18  N   UNL     1      -4.203  -3.251  -0.876  0.00  0.00    -0.289 N 
ENDBRANCH   1  18
BRANCH   6  19
ATOM     19  C   UNL     1       0.391  -0.036  -0.150  0.00  0.00    +0.019 C 
BRANCH  19  20
ATOM     20  C   UNL     1       0.082   1.429   0.021  0.00  0.00    +0.203 C 
ATOM     21  O   UNL     1      -1.043   1.782   0.308  0.00  0.00    -0.277 OA
ATOM     22  N   UNL     1       1.053   2.348  -0.151  0.00  0.00    -0.274 N 
BRANCH  22  23
ATOM     23  C   UNL     1       0.792   3.692   0.100  0.00  0.00    +0.010 C 
ATOM     24  C   UNL     1       1.701   4.565  -0.234  0.00  0.00    -0.008 C 
ATOM     25  C   UNL     1       1.563   6.044  -0.016  0.00  0.00    +0.029 C 
ATOM     26  C   UNL     1       0.098   6.404   0.236  0.00  0.00    +0.004 C 
ATOM     27  C   UNL     1      -0.456   5.465   1.315  0.00  0.00    +0.006 C 
ATOM     28  C   UNL     1      -0.521   4.049   0.733  0.00  0.00    +0.051 C 
ENDBRANCH  22  23
BRANCH  22  29
ATOM     29  C   UNL     1       2.383   1.931  -0.602  0.00  0.00    +0.081 C 
ATOM     30  C   UNL     1       3.056   0.781   0.149  0.00  0.00    +0.025 C 
ATOM     31  C   UNL     1       3.565   2.214   0.327  0.00  0.00    +0.025 C 
ENDBRANCH  22  29
ENDBRANCH  19  20
ENDBRANCH   6  19
TORSDOF 5
