REMARK  Name = ZINC20091597
REMARK  7 active torsions:
REMARK  status: ('A' for Active; 'I' for Inactive)
REMARK    1  A    between atoms: C_1  and  C_2
REMARK    2  A    between atoms: C_2  and  C_3
REMARK    3  A    between atoms: C_2  and  C_4
REMARK    4  A    between atoms: C_4  and  S_5
REMARK    5  A    between atoms: S_5  and  C_6
REMARK    6  A    between atoms: C_11  and  C_21
REMARK    7  A    between atoms: C_24  and  N_27
REMARK                            x       y       z     vdW  Elec       q    Type
REMARK                         _______ _______ _______ _____ _____    ______ ____
ROOT
ATOM      1  C   UNL     1      -0.595   3.550   0.035  0.00  0.00    +0.210 A 
ATOM      2  N   UNL     1       0.744   3.469   0.022  0.00  0.00    -0.187 NA
ATOM      3  C   UNL     1       1.104   2.215   0.003  0.00  0.00    +0.219 A 
ATOM      4  N   UNL     1      -0.018   1.453   0.010  0.00  0.00    -0.220 N 
ATOM      5  N   UNL     1      -1.098   2.334   0.031  0.00  0.00    -0.141 NA
ATOM      6  C   UNL     1       0.002  -0.004   0.002  0.00  0.00    +0.175 C 
ATOM      7  C   UNL     1       1.386  -0.502  -0.352  0.00  0.00    +0.041 C 
ATOM      8  C   UNL     1       2.464   0.311  -0.347  0.00  0.00    +0.020 C 
ATOM      9  N   UNL     1       2.365   1.643  -0.024  0.00  0.00    -0.287 N 
ATOM     10  C   UNL     1       3.834  -0.214  -0.707  0.00  0.00    +0.052 C 
ATOM     11  C   UNL     1       3.944  -1.686  -0.304  0.00  0.00    +0.014 C 
ATOM     12  C   UNL     1       2.843  -2.467  -1.031  0.00  0.00    +0.080 C 
ATOM     13  C   UNL     1       1.510  -1.862  -0.690  0.00  0.00    +0.163 C 
ATOM     14  O   UNL     1       0.517  -2.563  -0.705  0.00  0.00    -0.292 OA
ATOM     15  H   UNL     1       3.251   2.253   0.209  0.00  0.00    +0.155 HD
ENDROOT
BRANCH   6  16
ATOM     16  C   UNL     1      -0.377  -0.517   1.367  0.00  0.00    -0.018 A 
ATOM     17  C   UNL     1       0.389  -0.182   2.469  0.00  0.00    +0.008 A 
ATOM     18  C   UNL     1       0.038  -0.648   3.722  0.00  0.00    +0.033 A 
ATOM     19  C   UNL     1      -1.072  -1.458   3.873  0.00  0.00    +0.126 A 
ATOM     20  C   UNL     1      -1.834  -1.797   2.771  0.00  0.00    +0.033 A 
ATOM     21  C   UNL     1      -1.487  -1.327   1.518  0.00  0.00    +0.008 A 
BRANCH  19  22
ATOM     22  N   UNL     1      -1.444  -1.961   5.214  0.00  0.00    +0.056 N 
ATOM     23  O   UNL     1      -2.422  -2.675   5.346  0.00  0.00    -0.126 OA
ATOM     24  O   UNL     1      -0.772  -1.662   6.185  0.00  0.00    -0.126 OA
ENDBRANCH  19  22
ENDBRANCH   6  16
BRANCH   1  25
ATOM     25  S   UNL     1      -1.529   5.044   0.061  0.00  0.00    -0.084 S 
BRANCH  25  26
ATOM     26  C   UNL     1      -0.269   6.349   0.062  0.00  0.00    +0.080 C 
BRANCH  26  28
ATOM     27  C   UNL     1       0.105   8.815   0.211  0.00  0.00    +0.008 C 
ATOM     28  C   UNL     1      -0.953   7.718   0.084  0.00  0.00    -0.007 C 
ATOM     29  C   UNL     1      -1.739   7.916  -1.214  0.00  0.00    +0.008 C 
ENDBRANCH  26  28
ENDBRANCH  25  26
ENDBRANCH   1  25
TORSDOF 5
