REMARK  Name = ZINC01951747
REMARK  6 active torsions:
REMARK  status: ('A' for Active; 'I' for Inactive)
REMARK    1  A    between atoms: C_1  and  C_2
REMARK    2  A    between atoms: C_2  and  C_3
REMARK    3  A    between atoms: C_3  and  O_5
REMARK    4  A    between atoms: O_5  and  C_6
REMARK    5  A    between atoms: C_11  and  C_22
REMARK    6  A    between atoms: C_16  and  C_17
REMARK                            x       y       z     vdW  Elec       q    Type
REMARK                         _______ _______ _______ _____ _____    ______ ____
ROOT
ATOM      1  C   UNL     1       3.460   2.456  -0.024  0.00  0.00    +0.224 A 
ATOM      2  C   UNL     1       4.819   2.062  -0.034  0.00  0.00    +0.235 A 
ATOM      3  O   UNL     1       5.718   2.887  -0.038  0.00  0.00    -0.283 OA
ATOM      4  C   UNL     1       5.107   0.614  -0.046  0.00  0.00    +0.068 A 
ATOM      5  C   UNL     1       6.418   0.140  -0.062  0.00  0.00    +0.018 A 
ATOM      6  C   UNL     1       6.651  -1.218  -0.073  0.00  0.00    -0.050 A 
ATOM      7  C   UNL     1       5.588  -2.109  -0.068  0.00  0.00    +0.007 A 
ATOM      8  C   UNL     1       4.287  -1.653  -0.051  0.00  0.00    +0.047 A 
ATOM      9  C   UNL     1       4.031  -0.287  -0.040  0.00  0.00    +0.140 A 
ATOM     10  O   UNL     1       2.763   0.175  -0.025  0.00  0.00    -0.448 OA
ATOM     11  C   UNL     1       2.477   1.488  -0.014  0.00  0.00    +0.216 A 
ATOM     12  C   UNL     1       8.066  -1.737  -0.091  0.00  0.00    +0.044 C 
ENDROOT
BRANCH  11  13
ATOM     13  C   UNL     1       1.073   1.907   0.002  0.00  0.00    +0.174 A 
ATOM     14  C   UNL     1      -0.013   1.076   0.008  0.00  0.00    +0.053 A 
ATOM     15  C   UNL     1      -1.151   1.899   0.017  0.00  0.00    +0.042 A 
ATOM     16  C   UNL     1      -0.717   3.178   0.026  0.00  0.00    +0.196 A 
ATOM     17  O   UNL     1       0.625   3.179   0.013  0.00  0.00    -0.460 OA
ENDBRANCH  11  13
BRANCH   1  18
ATOM     18  O   UNL     1       3.127   3.775  -0.018  0.00  0.00    -0.418 OA
BRANCH  18  19
ATOM     19  C   UNL     1       2.992   4.364   1.180  0.00  0.00    +0.312 C 
ATOM     20  O   UNL     1       3.165   3.722   2.193  0.00  0.00    -0.250 OA
BRANCH  19  22
ATOM     21  C   UNL     1       2.535   6.242   2.734  0.00  0.00    +0.015 C 
ATOM     22  C   UNL     1       2.624   5.823   1.265  0.00  0.00    +0.118 C 
ENDBRANCH  19  22
ENDBRANCH  18  19
ENDBRANCH   1  18
TORSDOF 4
