REMARK  Name = ZINC45342886
REMARK  6 active torsions:
REMARK  status: ('A' for Active; 'I' for Inactive)
REMARK    1  A    between atoms: C_1  and  C_2
REMARK    2  A    between atoms: C_4  and  C_7
REMARK    3  A    between atoms: C_7  and  N_8
REMARK    4  A    between atoms: N_11  and  C_12
REMARK    5  A    between atoms: C_12  and  C_14
REMARK    6  A    between atoms: C_12  and  C_15
REMARK                            x       y       z     vdW  Elec       q    Type
REMARK                         _______ _______ _______ _____ _____    ______ ____
ROOT
ATOM      1  C   UNL     1      -5.023  -5.244   3.151  0.00  0.00    +0.102 C 
ATOM      2  C   UNL     1      -6.335  -4.470   3.005  0.00  0.00    +0.033 C 
ENDROOT
BRANCH   1   3
ATOM      3  C   UNL     1      -4.913  -5.786   4.553  0.00  0.00    -0.027 A 
ATOM      4  C   UNL     1      -4.506  -4.957   5.583  0.00  0.00    +0.007 A 
ATOM      5  C   UNL     1      -4.404  -5.450   6.869  0.00  0.00    +0.024 A 
ATOM      6  C   UNL     1      -4.710  -6.780   7.127  0.00  0.00    +0.037 A 
ATOM      7  C   UNL     1      -5.118  -7.609   6.090  0.00  0.00    -0.025 A 
ATOM      8  C   UNL     1      -5.223  -7.109   4.807  0.00  0.00    +0.011 A 
ATOM      9  C   UNL     1      -5.452  -9.051   6.370  0.00  0.00    +0.046 C 
ATOM     10  C   UNL     1      -4.545  -9.578   7.484  0.00  0.00    +0.101 C 
ATOM     11  C   UNL     1      -4.537  -8.613   8.638  0.00  0.00    +0.218 C 
ATOM     12  O   UNL     1      -4.465  -9.035   9.772  0.00  0.00    -0.275 OA
ATOM     13  N   UNL     1      -4.609  -7.286   8.426  0.00  0.00    -0.285 N 
ATOM     14  H   UNL     1      -4.590  -6.676   9.180  0.00  0.00    +0.155 HD
ENDBRANCH   1   3
BRANCH   1  18
ATOM     15  N   UNL     1      -2.447  -3.317   1.371  0.00  0.00    -0.294 N 
ATOM     16  C   UNL     1      -3.484  -4.141   1.617  0.00  0.00    +0.300 C 
ATOM     17  O   UNL     1      -4.048  -4.700   0.696  0.00  0.00    -0.253 OA
ATOM     18  N   UNL     1      -3.896  -4.347   2.884  0.00  0.00    -0.293 N 
ATOM     19  H   UNL     1      -1.997  -2.871   2.106  0.00  0.00    +0.151 HD
ATOM     20  H   UNL     1      -3.446  -3.901   3.619  0.00  0.00    +0.151 HD
BRANCH  15  21
ATOM     21  C   UNL     1      -1.999  -3.093  -0.006  0.00  0.00    +0.161 C 
BRANCH  21  25
ATOM     22  C   UNL     1      -0.018   1.503   0.010  0.00  0.00    +0.073 C 
ATOM     23  C   UNL     1       0.002  -0.004   0.002  0.00  0.00    +0.076 A 
ATOM     24  N   UNL     1      -1.013  -0.832   0.002  0.00  0.00    -0.248 NA
ATOM     25  C   UNL     1      -0.834  -2.137  -0.006  0.00  0.00    +0.066 A 
ATOM     26  C   UNL     1       0.449  -2.582  -0.014  0.00  0.00    +0.071 A 
ATOM     27  S   UNL     1       1.335  -1.032  -0.017  0.00  0.00    -0.080 S 
ENDBRANCH  21  25
ENDBRANCH  15  21
ENDBRANCH   1  18
TORSDOF 4
