REMARK  Name = ZINC09984051
REMARK  4 active torsions:
REMARK  status: ('A' for Active; 'I' for Inactive)
REMARK    1  A    between atoms: C_4  and  C_7
REMARK    2  A    between atoms: C_17  and  C_19
REMARK    3  A    between atoms: C_25  and  C_27
REMARK    4  A    between atoms: C_27  and  N_28
REMARK                            x       y       z     vdW  Elec       q    Type
REMARK                         _______ _______ _______ _____ _____    ______ ____
ROOT
ATOM      1  C   UNL     1      -7.561  -0.236  -0.721  0.00  0.00    +0.013 C 
ATOM      2  C   UNL     1      -7.379  -0.466   0.595  0.00  0.00    -0.024 C 
ATOM      3  C   UNL     1      -8.398  -1.260   1.356  0.00  0.00    +0.037 C 
ATOM      4  C   UNL     1      -7.997  -1.580   2.782  0.00  0.00    +0.005 C 
ATOM      5  C   UNL     1      -7.154  -0.487   3.434  0.00  0.00    +0.012 C 
ATOM      6  C   UNL     1      -5.842  -0.367   2.656  0.00  0.00    +0.066 C 
ATOM      7  C   UNL     1      -6.227   0.046   1.241  0.00  0.00    +0.068 C 
ATOM      8  N   UNL     1      -5.413   0.965   0.847  0.00  0.00    -0.181 NA
ATOM      9  N   UNL     1      -4.534   1.397   1.847  0.00  0.00    -0.184 N 
ATOM     10  C   UNL     1      -5.005   0.832   3.132  0.00  0.00    +0.140 C 
ATOM     11  C   UNL     1      -3.457   2.188   1.672  0.00  0.00    +0.253 C 
ATOM     12  O   UNL     1      -2.772   2.499   2.624  0.00  0.00    -0.272 OA
ENDROOT
BRANCH   1  16
ATOM     13  C   UNL     1     -11.197  -1.374  -2.588  0.00  0.00    +0.000 A 
ATOM     14  C   UNL     1     -11.223  -0.754  -1.351  0.00  0.00    +0.001 A 
ATOM     15  C   UNL     1     -10.045  -0.381  -0.738  0.00  0.00    +0.008 A 
ATOM     16  C   UNL     1      -8.823  -0.631  -1.369  0.00  0.00    -0.025 A 
ATOM     17  C   UNL     1      -8.805  -1.252  -2.622  0.00  0.00    +0.008 A 
ATOM     18  C   UNL     1      -9.991  -1.624  -3.220  0.00  0.00    +0.001 A 
ENDBRANCH   1  16
BRANCH  10  19
ATOM     19  C   UNL     1      -5.859   1.825   3.878  0.00  0.00    -0.024 A 
ATOM     20  C   UNL     1      -6.740   2.636   3.186  0.00  0.00    +0.005 A 
ATOM     21  C   UNL     1      -7.527   3.543   3.870  0.00  0.00    +0.000 A 
ATOM     22  C   UNL     1      -7.426   3.647   5.245  0.00  0.00    +0.000 A 
ATOM     23  C   UNL     1      -6.542   2.840   5.936  0.00  0.00    +0.000 A 
ATOM     24  C   UNL     1      -5.758   1.929   5.252  0.00  0.00    +0.005 A 
ENDBRANCH  10  19
BRANCH  11  25
ATOM     25  C   UNL     1      -3.104   2.687   0.295  0.00  0.00    +0.215 C 
BRANCH  25  26
ATOM     26  N   UNL     1      -1.902   3.521   0.371  0.00  0.00    -0.216 N 
ATOM     27  C   UNL     1      -0.645   3.051   0.247  0.00  0.00    +0.241 C 
ATOM     28  O   UNL     1      -0.308   1.901   0.059  0.00  0.00    -0.273 OA
ATOM     29  C   UNL     1       0.260   4.259   0.385  0.00  0.00    +0.202 C 
ATOM     30  N   UNL     1      -0.680   5.373   0.595  0.00  0.00    -0.290 N 
ATOM     31  C   UNL     1      -1.916   4.843   0.574  0.00  0.00    +0.309 C 
ATOM     32  O   UNL     1      -2.933   5.493   0.719  0.00  0.00    -0.252 OA
ATOM     33  H   UNL     1      -0.452   6.307   0.724  0.00  0.00    +0.151 HD
ENDBRANCH  25  26
ENDBRANCH  11  25
TORSDOF 4
