REMARK  Name = ZINC16885196
REMARK  7 active torsions:
REMARK  status: ('A' for Active; 'I' for Inactive)
REMARK    1  A    between atoms: C_1  and  C_2
REMARK    2  A    between atoms: C_3  and  C_25
REMARK    3  A    between atoms: N_6  and  C_17
REMARK    4  A    between atoms: N_9  and  C_10
REMARK    5  A    between atoms: C_15  and  N_16
REMARK    6  A    between atoms: C_17  and  C_18
REMARK    7  A    between atoms: C_25  and  C_26
REMARK                            x       y       z     vdW  Elec       q    Type
REMARK                         _______ _______ _______ _____ _____    ______ ____
ROOT
ATOM      1  C   UNL     1       3.680   2.783   1.648  0.00  0.00    +0.066 C 
ATOM      2  C   UNL     1       2.418   3.257   2.321  0.00  0.00    +0.050 A 
ATOM      3  C   UNL     1       1.327   2.439   2.377  0.00  0.00    +0.042 A 
ATOM      4  C   UNL     1       0.159   2.906   3.004  0.00  0.00    +0.259 A 
ATOM      5  O   UNL     1      -0.836   2.202   3.068  0.00  0.00    -0.267 OA
ATOM      6  N   UNL     1       0.160   4.145   3.540  0.00  0.00    -0.276 N 
ATOM      7  C   UNL     1       1.278   4.917   3.453  0.00  0.00    +0.203 A 
ATOM      8  N   UNL     1       2.368   4.474   2.858  0.00  0.00    -0.220 NA
ATOM      9  N   UNL     1       1.270   6.176   3.993  0.00  0.00    -0.283 N 
ATOM     10  H   UNL     1       0.463   6.523   4.403  0.00  0.00    +0.155 HD
ENDROOT
BRANCH   9  11
ATOM     11  C   UNL     1       2.429   6.962   3.953  0.00  0.00    +0.054 A 
ATOM     12  C   UNL     1       3.352   6.791   2.932  0.00  0.00    +0.025 A 
ATOM     13  C   UNL     1       4.492   7.571   2.892  0.00  0.00    +0.002 A 
ATOM     14  C   UNL     1       4.722   8.517   3.874  0.00  0.00    +0.002 A 
ATOM     15  C   UNL     1       3.811   8.691   4.899  0.00  0.00    +0.024 A 
ATOM     16  C   UNL     1       2.661   7.916   4.944  0.00  0.00    +0.046 A 
BRANCH  16  17
ATOM     17  N   UNL     1       1.738   8.091   5.980  0.00  0.00    -0.357 N 
ATOM     18  H   UNL     1       0.975   7.496   6.055  0.00  0.00    +0.142 HD
ATOM     19  H   UNL     1       1.860   8.806   6.624  0.00  0.00    +0.142 HD
ENDBRANCH  16  17
ENDBRANCH   9  11
BRANCH   6  20
ATOM     20  C   UNL     1      -1.039   4.660   4.206  0.00  0.00    +0.164 C 
BRANCH  20  21
ATOM     21  C   UNL     1      -2.038   5.105   3.169  0.00  0.00    -0.009 A 
ATOM     22  C   UNL     1      -3.008   4.228   2.723  0.00  0.00    +0.007 A 
ATOM     23  C   UNL     1      -3.924   4.635   1.771  0.00  0.00    +0.000 A 
ATOM     24  C   UNL     1      -3.871   5.921   1.266  0.00  0.00    +0.001 A 
ATOM     25  C   UNL     1      -2.901   6.799   1.711  0.00  0.00    +0.020 A 
ATOM     26  C   UNL     1      -1.987   6.393   2.667  0.00  0.00    +0.046 A 
ATOM     27 CL   UNL     1      -0.773   7.498   3.232  0.00  0.00    -0.083 Cl
ENDBRANCH  20  21
ENDBRANCH   6  20
BRANCH   3  28
ATOM     28  C   UNL     1       1.373   1.059   1.771  0.00  0.00    +0.077 C 
BRANCH  28  29
ATOM     29  C   UNL     1       0.729   1.087   0.409  0.00  0.00    -0.043 A 
ATOM     30  C   UNL     1       1.485   1.397  -0.706  0.00  0.00    +0.005 A 
ATOM     31  C   UNL     1       0.895   1.422  -1.956  0.00  0.00    +0.020 A 
ATOM     32  C   UNL     1      -0.452   1.138  -2.091  0.00  0.00    +0.041 A 
ATOM     33  C   UNL     1      -1.208   0.828  -0.974  0.00  0.00    +0.020 A 
ATOM     34  C   UNL     1      -0.617   0.803   0.275  0.00  0.00    +0.005 A 
ATOM     35 CL   UNL     1      -1.194   1.170  -3.660  0.00  0.00    -0.084 Cl
ENDBRANCH  28  29
ENDBRANCH   3  28
TORSDOF 6
