REMARK  Name = ZINC62750892
REMARK  2 active torsions:
REMARK  status: ('A' for Active; 'I' for Inactive)
REMARK    1  A    between atoms: N_5  and  C_9
REMARK    2  A    between atoms: C_16  and  C_18
REMARK                            x       y       z     vdW  Elec       q    Type
REMARK                         _______ _______ _______ _____ _____    ______ ____
ROOT
ATOM      1  C   UNL     1       0.160  -0.383  -4.358  0.00  0.00    -0.055 C 
ATOM      2  C   UNL     1       0.627  -1.132  -5.620  0.00  0.00    -0.014 C 
ATOM      3  C   UNL     1       0.745  -0.213  -6.851  0.00  0.00    -0.002 C 
ATOM      4  C   UNL     1       1.362   1.118  -6.519  0.00  0.00    -0.000 C 
ATOM      5  C   UNL     1       0.229   2.125  -6.233  0.00  0.00    +0.001 C 
ATOM      6  C   UNL     1      -0.309   1.987  -4.888  0.00  0.00    +0.013 C 
ATOM      7  C   UNL     1      -0.942   0.600  -4.648  0.00  0.00    +0.089 C 
ENDROOT
BRANCH   1  12
ATOM      8  C   UNL     1      -0.878  -2.492  -0.744  0.00  0.00    -0.000 C 
ATOM      9  C   UNL     1      -0.036  -3.642  -1.301  0.00  0.00    -0.002 C 
ATOM     10  C   UNL     1      -0.297  -3.756  -2.807  0.00  0.00    -0.019 C 
ATOM     11  C   UNL     1       0.420  -2.620  -3.534  0.00  0.00    -0.078 C 
ATOM     12  N   UNL     1      -0.323  -1.362  -3.375  0.00  0.00    +0.382 N 
ATOM     13  C   UNL     1      -1.758  -1.598  -3.586  0.00  0.00    -0.078 C 
ATOM     14  C   UNL     1      -2.508  -1.371  -2.268  0.00  0.00    -0.019 C 
ATOM     15  C   UNL     1      -2.283  -2.565  -1.344  0.00  0.00    -0.002 C 
ATOM     16  H   UNL     1      -0.176  -1.002  -2.444  0.00  0.00    -0.081 HD
ENDBRANCH   1  12
BRANCH   7  17
ATOM     17  C   UNL     1      -1.882   0.668  -3.472  0.00  0.00    +0.357 C 
ATOM     18  O   UNL     1      -3.087   0.682  -3.655  0.00  0.00    -0.246 OA
ATOM     19  O   UNL     1      -1.437   0.711  -2.338  0.00  0.00    -0.246 OA
ENDBRANCH   7  17
TORSDOF 2
