REMARK  Name = ZINC15675664
REMARK  5 active torsions:
REMARK  status: ('A' for Active; 'I' for Inactive)
REMARK    1  A    between atoms: C_1  and  C_2
REMARK    2  A    between atoms: C_5  and  C_8
REMARK    3  A    between atoms: C_8  and  N_9
REMARK    4  A    between atoms: C_18  and  C_20
REMARK    5  A    between atoms: C_22  and  C_25
REMARK                            x       y       z     vdW  Elec       q    Type
REMARK                         _______ _______ _______ _____ _____    ______ ____
ROOT
ATOM      1  N   UNL     1      -9.072  -0.232  -0.897  0.00  0.00    -0.281 NA
ATOM      2  C   UNL     1     -10.509   0.004  -1.117  0.00  0.00    +0.140 C 
ATOM      3  C   UNL     1     -11.195   0.037   0.227  0.00  0.00    +0.051 A 
ATOM      4  C   UNL     1     -10.531   0.196   1.394  0.00  0.00    +0.040 A 
ATOM      5  N   UNL     1     -11.457   0.174   2.388  0.00  0.00    -0.349 N 
ATOM      6  H   UNL     1     -11.142   0.285   3.436  0.00  0.00    +0.166 HD
ATOM      7  C   UNL     1     -12.664   0.004   1.799  0.00  0.00    +0.171 A 
ATOM      8  N   UNL     1     -12.494  -0.077   0.505  0.00  0.00    -0.349 N 
ATOM      9  C   UNL     1      -9.036   0.361   1.485  0.00  0.00    +0.083 C 
ATOM     10  C   UNL     1      -8.515   0.710   0.084  0.00  0.00    +0.152 C 
ATOM     11  H   UNL     1     -13.221  -0.214  -0.310  0.00  0.00    +0.166 HD
ENDROOT
BRANCH  10  12
ATOM     12  C   UNL     1      -7.011   0.618   0.070  0.00  0.00    +0.245 A 
ATOM     13  N   UNL     1      -6.170   1.622   0.073  0.00  0.00    -0.190 NA
ATOM     14  C   UNL     1      -4.938   1.064   0.053  0.00  0.00    +0.202 A 
ATOM     15  N   UNL     1      -5.102  -0.233   0.048  0.00  0.00    -0.056 NA
ATOM     16  O   UNL     1      -6.285  -0.504   0.057  0.00  0.00    -0.336 OA
BRANCH  14  17
ATOM     17  C   UNL     1      -3.643   1.788   0.045  0.00  0.00    +0.023 A 
ATOM     18  C   UNL     1      -3.631   3.193   0.053  0.00  0.00    +0.012 A 
ATOM     19  C   UNL     1      -2.460   3.879   0.046  0.00  0.00    +0.009 A 
ATOM     20  C   UNL     1      -1.237   3.184   0.030  0.00  0.00    -0.018 A 
ATOM     21  C   UNL     1      -0.012   3.871   0.022  0.00  0.00    +0.008 A 
ATOM     22  C   UNL     1       1.155   3.169   0.008  0.00  0.00    +0.001 A 
ATOM     23  C   UNL     1       1.155   1.776   0.001  0.00  0.00    +0.001 A 
ATOM     24  C   UNL     1      -0.013   1.076   0.008  0.00  0.00    +0.008 A 
ATOM     25  C   UNL     1      -1.238   1.766   0.018  0.00  0.00    -0.017 A 
ATOM     26  C   UNL     1      -2.460   1.075   0.030  0.00  0.00    +0.020 A 
ENDBRANCH  14  17
ENDBRANCH  10  12
BRANCH   1  27
ATOM     27  C   UNL     1      -8.330  -0.174  -2.163  0.00  0.00    +0.120 C 
BRANCH  27  32
ATOM     28  C   UNL     1     -11.162  -3.189  -6.198  0.00  0.00    +0.044 C 
ATOM     29  C   UNL     1     -10.423  -2.403  -5.146  0.00  0.00    -0.050 A 
ATOM     30  C   UNL     1     -10.691  -1.058  -4.973  0.00  0.00    +0.003 A 
ATOM     31  C   UNL     1     -10.014  -0.336  -4.008  0.00  0.00    +0.005 A 
ATOM     32  C   UNL     1      -9.069  -0.960  -3.216  0.00  0.00    -0.033 A 
ATOM     33  C   UNL     1      -8.797  -2.304  -3.392  0.00  0.00    +0.005 A 
ATOM     34  C   UNL     1      -9.478  -3.026  -4.354  0.00  0.00    +0.003 A 
ENDBRANCH  27  32
ENDBRANCH   1  27
TORSDOF 4
