REMARK  Name = ZINC42897272
REMARK  5 active torsions:
REMARK  status: ('A' for Active; 'I' for Inactive)
REMARK    1  A    between atoms: C_1  and  C_2
REMARK    2  A    between atoms: C_6  and  O_8
REMARK    3  A    between atoms: O_8  and  C_9
REMARK    4  A    between atoms: C_9  and  C_10
REMARK    5  A    between atoms: C_10  and  N_11
REMARK                            x       y       z     vdW  Elec       q    Type
REMARK                         _______ _______ _______ _____ _____    ______ ____
ROOT
ATOM      1  N   UNL     1       0.102  -6.259   3.597  0.00  0.00    -0.309 N 
ATOM      2  C   UNL     1      -1.003  -7.093   3.547  0.00  0.00    +0.070 A 
ATOM      3  C   UNL     1      -2.373  -6.877   3.562  0.00  0.00    +0.029 A 
ATOM      4  C   UNL     1      -3.238  -7.950   3.499  0.00  0.00    +0.017 A 
ATOM      5  C   UNL     1      -2.747  -9.245   3.422  0.00  0.00    +0.020 A 
ATOM      6  C   UNL     1      -1.389  -9.478   3.407  0.00  0.00    +0.045 A 
ATOM      7  C   UNL     1      -0.500  -8.402   3.469  0.00  0.00    +0.092 A 
ATOM      8  N   UNL     1       0.856  -8.311   3.474  0.00  0.00    -0.215 NA
ATOM      9  C   UNL     1       1.212  -7.052   3.543  0.00  0.00    +0.194 A 
ATOM     10  N   UNL     1       2.513  -6.597   3.563  0.00  0.00    -0.329 N 
ATOM     11 BR   UNL     1      -3.950 -10.702   3.337  0.00  0.00    -0.050 Br
ATOM     12  H   UNL     1       2.693  -5.645   3.619  0.00  0.00    +0.145 HD
ATOM     13  H   UNL     1       3.248  -7.228   3.521  0.00  0.00    +0.145 HD
ENDROOT
BRANCH   1  14
ATOM     14  C   UNL     1       0.083  -4.796   3.683  0.00  0.00    +0.166 C 
BRANCH  14  15
ATOM     15  C   UNL     1       0.069  -4.202   2.274  0.00  0.00    +0.250 C 
BRANCH  15  16
ATOM     16  O   UNL     1       0.050  -2.776   2.358  0.00  0.00    -0.490 OA
BRANCH  16  22
ATOM     17  C   UNL     1      -0.018   1.503   0.010  0.00  0.00    +0.044 C 
ATOM     18  C   UNL     1       0.002  -0.004   0.002  0.00  0.00    -0.047 A 
ATOM     19  C   UNL     1       0.006  -0.688  -1.200  0.00  0.00    +0.003 A 
ATOM     20  C   UNL     1       0.024  -2.071  -1.211  0.00  0.00    +0.004 A 
ATOM     21  C   UNL     1       0.039  -2.772  -0.020  0.00  0.00    +0.045 A 
ATOM     22  C   UNL     1       0.035  -2.088   1.186  0.00  0.00    +0.121 A 
ATOM     23  C   UNL     1       0.023  -0.700   1.195  0.00  0.00    +0.049 A 
ENDBRANCH  16  22
ENDBRANCH  15  16
ENDBRANCH  14  15
ENDBRANCH   1  14
TORSDOF 4
