REMARK  Name = ZINC12293694
REMARK  9 active torsions:
REMARK  status: ('A' for Active; 'I' for Inactive)
REMARK    1  A    between atoms: C_1  and  C_2
REMARK    2  A    between atoms: C_2  and  O_3
REMARK    3  A    between atoms: O_3  and  C_4
REMARK    4  A    between atoms: C_7  and  C_10
REMARK    5  A    between atoms: C_10  and  C_12
REMARK    6  A    between atoms: C_10  and  O_30
REMARK    7  A    between atoms: C_12  and  N_60
REMARK    8  A    between atoms: C_19  and  O_29
REMARK    9  A    between atoms: C_23  and  C_28
REMARK                            x       y       z     vdW  Elec       q    Type
REMARK                         _______ _______ _______ _____ _____    ______ ____
ROOT
ATOM      1  C   UNL     1       2.458  -4.674   0.522  0.00  0.00    -0.075 C 
ATOM      2  C   UNL     1       2.433  -6.205   0.525  0.00  0.00    +0.029 C 
ATOM      3  C   UNL     1       2.757  -6.714   1.930  0.00  0.00    +0.110 C 
ATOM      4  C   UNL     1       1.755  -6.129   2.927  0.00  0.00    +0.029 C 
ATOM      5  C   UNL     1       1.799  -4.601   2.853  0.00  0.00    -0.075 C 
ATOM      6  C   UNL     1       2.668  -8.244   1.954  0.00  0.00    +0.084 C 
ATOM      7  C   UNL     1       3.599  -8.797   0.872  0.00  0.00    +0.152 C 
ATOM      8  C   UNL     1       4.949  -8.134   0.977  0.00  0.00    +0.023 A 
ATOM      9  C   UNL     1       6.035  -8.733   0.360  0.00  0.00    +0.013 A 
ATOM     10  C   UNL     1       7.285  -8.150   0.430  0.00  0.00    -0.050 A 
ATOM     11  C   UNL     1       7.457  -6.963   1.119  0.00  0.00    +0.007 A 
ATOM     12  C   UNL     1       6.379  -6.363   1.736  0.00  0.00    +0.046 A 
ATOM     13  C   UNL     1       5.118  -6.947   1.668  0.00  0.00    +0.127 A 
ATOM     14  O   UNL     1       4.082  -6.328   2.292  0.00  0.00    -0.485 OA
ATOM     15  C   UNL     1       8.462  -8.807  -0.244  0.00  0.00    +0.044 C 
ATOM     16  N   UNL     1       1.449  -4.177   1.481  0.00  0.00    +0.382 N 
ATOM     17  H   UNL     1       0.533  -4.570   1.234  0.00  0.00    -0.082 HD
ENDROOT
BRANCH   7  18
ATOM     18  O   UNL     1       3.747 -10.207   1.049  0.00  0.00    -0.387 OA
ATOM     19  H   UNL     1       4.323 -10.627   0.396  0.00  0.00    +0.210 HD
ENDBRANCH   7  18
BRANCH  16  20
ATOM     20  C   UNL     1       1.371  -2.703   1.412  0.00  0.00    -0.042 C 
BRANCH  20  21
ATOM     21  C   UNL     1       0.170  -2.234   2.236  0.00  0.00    +0.128 C 
BRANCH  21  25
ATOM     22  C   UNL     1      -0.159   2.019   1.980  0.00  0.00    +0.121 A 
ATOM     23  C   UNL     1       0.514   1.437   3.044  0.00  0.00    +0.046 A 
ATOM     24  C   UNL     1       0.619   0.062   3.125  0.00  0.00    +0.009 A 
ATOM     25  C   UNL     1       0.054  -0.734   2.146  0.00  0.00    -0.021 A 
ATOM     26  C   UNL     1      -0.617  -0.157   1.084  0.00  0.00    +0.009 A 
ATOM     27  C   UNL     1      -0.724   1.218   0.998  0.00  0.00    +0.046 A 
BRANCH  22  28
ATOM     28  O   UNL     1      -0.264   3.372   1.898  0.00  0.00    -0.492 OA
BRANCH  28  30
ATOM     29  C   UNL     1      -0.984   5.429   0.854  0.00  0.00    +0.048 C 
ATOM     30  C   UNL     1      -0.970   3.901   0.774  0.00  0.00    +0.225 C 
ENDBRANCH  28  30
ENDBRANCH  22  28
ENDBRANCH  21  25
BRANCH  21  31
ATOM     31  O   UNL     1      -1.021  -2.836   1.727  0.00  0.00    -0.389 OA
ATOM     32  H   UNL     1      -1.207  -2.619   0.803  0.00  0.00    +0.210 HD
ENDBRANCH  21  31
ENDBRANCH  20  21
ENDBRANCH  16  20
TORSDOF 7
