REMARK  Name = ZINC13523465
REMARK  2 active torsions:
REMARK  status: ('A' for Active; 'I' for Inactive)
REMARK    1  A    between atoms: C_12  and  C_14
REMARK    2  A    between atoms: C_14  and  N_15
REMARK                            x       y       z     vdW  Elec       q    Type
REMARK                         _______ _______ _______ _____ _____    ______ ____
ROOT
ATOM      1  C   UNL     1      -0.017   1.384   0.010  0.00  0.00    +0.017 A 
ATOM      2  C   UNL     1       1.142   2.116   0.003  0.00  0.00    +0.030 A 
ATOM      3  C   UNL     1       2.402   1.474  -0.013  0.00  0.00    +0.080 A 
ATOM      4  C   UNL     1       2.383   0.060  -0.021  0.00  0.00    +0.042 A 
ATOM      5  C   UNL     1       1.218  -0.665  -0.014  0.00  0.00    +0.032 A 
ATOM      6  C   UNL     1       0.002  -0.004   0.002  0.00  0.00    +0.019 A 
ATOM      7 BR   UNL     1      -1.617  -0.982   0.013  0.00  0.00    -0.050 Br
ATOM      8  S   UNL     1       4.113  -0.341  -0.040  0.00  0.00    -0.052 S 
ATOM      9  C   UNL     1       4.733   1.335  -0.036  0.00  0.00    +0.165 A 
ATOM     10  N   UNL     1       3.627   2.042  -0.022  0.00  0.00    -0.225 NA
ATOM     11  N   UNL     1       6.046   1.777  -0.047  0.00  0.00    -0.263 N 
ATOM     12  C   UNL     1       6.314   3.098  -0.042  0.00  0.00    +0.237 C 
ATOM     13  O   UNL     1       5.404   3.900  -0.029  0.00  0.00    -0.274 OA
ATOM     14  H   UNL     1       6.773   1.135  -0.057  0.00  0.00    +0.157 HD
ENDROOT
BRANCH  12  15
ATOM     15  C   UNL     1       7.742   3.577  -0.053  0.00  0.00    +0.212 C 
BRANCH  15  16
ATOM     16  N   UNL     1       7.765   5.042  -0.046  0.00  0.00    -0.233 N 
ATOM     17  C   UNL     1       7.760   5.795  -1.179  0.00  0.00    +0.226 C 
ATOM     18  O   UNL     1       7.525   5.415  -2.306  0.00  0.00    -0.275 OA
ATOM     19  C   UNL     1       8.105   7.186  -0.751  0.00  0.00    +0.087 C 
ATOM     20  C   UNL     1       7.499   8.362  -1.487  0.00  0.00    +0.013 C 
ATOM     21  C   UNL     1       8.020   9.628  -0.777  0.00  0.00    +0.001 C 
ATOM     22  C   UNL     1       7.664   9.635   0.705  0.00  0.00    +0.001 C 
ATOM     23  C   UNL     1       8.114   8.346   1.416  0.00  0.00    +0.013 C 
ATOM     24  C   UNL     1       7.495   7.188   0.682  0.00  0.00    +0.087 C 
ATOM     25  C   UNL     1       7.788   5.783   1.095  0.00  0.00    +0.226 C 
ATOM     26  O   UNL     1       8.005   5.384   2.220  0.00  0.00    -0.275 OA
ENDBRANCH  15  16
ENDBRANCH  12  15
TORSDOF 2
