REMARK  Name = ZINC09358225
REMARK  5 active torsions:
REMARK  status: ('A' for Active; 'I' for Inactive)
REMARK    1  A    between atoms: C_1  and  C_2
REMARK    2  A    between atoms: C_4  and  C_28
REMARK    3  A    between atoms: C_8  and  C_27
REMARK    4  A    between atoms: C_10  and  N_12
REMARK    5  A    between atoms: C_15  and  C_21
REMARK                            x       y       z     vdW  Elec       q    Type
REMARK                         _______ _______ _______ _____ _____    ______ ____
ROOT
ATOM      1  N   UNL     1       0.090  -6.130   1.077  0.00  0.00    -0.177 NA
ATOM      2  C   UNL     1       0.106  -6.809   2.210  0.00  0.00    +0.222 C 
ATOM      3  N   UNL     1       0.124  -8.187   2.189  0.00  0.00    -0.306 N 
ATOM      4  C   UNL     1       0.676  -8.880   3.367  0.00  0.00    +0.112 C 
ATOM      5  C   UNL     1       0.006  -8.281   4.611  0.00  0.00    +0.127 C 
ATOM      6  C   UNL     1       0.071  -6.779   4.529  0.00  0.00    +0.251 C 
ATOM      7  O   UNL     1       0.095  -6.062   5.666  0.00  0.00    -0.271 OA
ATOM      8  N   UNL     1       0.108  -6.157   3.389  0.00  0.00    -0.179 NA
ATOM      9  H   UNL     1      -0.214  -8.683   1.427  0.00  0.00    +0.150 HD
ENDROOT
BRANCH   1  19
ATOM     10  C   UNL     1      -0.018   1.503   0.010  0.00  0.00    +0.044 C 
ATOM     11  C   UNL     1       0.002  -0.004   0.002  0.00  0.00    -0.049 A 
ATOM     12  C   UNL     1       0.005  -0.684  -1.214  0.00  0.00    +0.008 A 
ATOM     13  C   UNL     1       0.023  -2.045  -1.258  0.00  0.00    -0.024 A 
ATOM     14  C   UNL     1       0.039  -2.777  -0.061  0.00  0.00    +0.079 A 
ATOM     15  C   UNL     1       0.036  -2.084   1.177  0.00  0.00    +0.022 A 
ATOM     16  C   UNL     1       0.022  -0.682   1.184  0.00  0.00    +0.015 A 
ATOM     17  C   UNL     1       0.052  -2.836   2.368  0.00  0.00    +0.051 A 
ATOM     18  N   UNL     1       0.070  -4.148   2.283  0.00  0.00    -0.215 NA
ATOM     19  C   UNL     1       0.072  -4.772   1.100  0.00  0.00    +0.254 A 
ATOM     20  N   UNL     1       0.057  -4.115  -0.051  0.00  0.00    -0.210 NA
ATOM     21  C   UNL     1       0.050  -2.151   3.710  0.00  0.00    +0.066 C 
ATOM     22  C   UNL     1       0.026  -2.761  -2.585  0.00  0.00    +0.046 C 
ENDBRANCH   1  19
BRANCH   4  23
ATOM     23  C   UNL     1       2.167  -8.666   3.434  0.00  0.00    -0.027 A 
ATOM     24  C   UNL     1       2.702  -7.429   3.129  0.00  0.00    +0.005 A 
ATOM     25  C   UNL     1       4.069  -7.233   3.190  0.00  0.00    +0.000 A 
ATOM     26  C   UNL     1       4.901  -8.275   3.557  0.00  0.00    +0.000 A 
ATOM     27  C   UNL     1       4.365  -9.512   3.862  0.00  0.00    +0.000 A 
ATOM     28  C   UNL     1       2.998  -9.707   3.805  0.00  0.00    +0.005 A 
ENDBRANCH   4  23
TORSDOF 2
