REMARK  Name = ZINC39393786
REMARK  9 active torsions:
REMARK  status: ('A' for Active; 'I' for Inactive)
REMARK    1  A    between atoms: C_1  and  O_2
REMARK    2  A    between atoms: O_2  and  C_3
REMARK    3  A    between atoms: C_3  and  C_5
REMARK    4  A    between atoms: N_11  and  C_30
REMARK    5  A    between atoms: C_18  and  O_20
REMARK    6  A    between atoms: O_20  and  C_21
REMARK    7  A    between atoms: C_21  and  C_22
REMARK    8  A    between atoms: C_22  and  C_23
REMARK    9  A    between atoms: C_30  and  C_31
REMARK                            x       y       z     vdW  Elec       q    Type
REMARK                         _______ _______ _______ _____ _____    ______ ____
ROOT
ATOM      1  C   UNL     1      -1.244  -2.135   0.003  0.00  0.00    +0.147 C 
ATOM      2  C   UNL     1      -2.701  -2.592   0.005  0.00  0.00    +0.090 C 
ATOM      3  C   UNL     1      -3.440  -2.005   1.186  0.00  0.00    +0.005 C 
ATOM      4  C   UNL     1      -4.584  -2.930   1.609  0.00  0.00    -0.076 C 
ATOM      5  N   UNL     1      -5.742  -2.774   0.829  0.00  0.00    +0.384 N 
ATOM      6  C   UNL     1      -5.534  -3.167  -0.577  0.00  0.00    -0.059 C 
ATOM      7  C   UNL     1      -4.833  -2.070  -1.340  0.00  0.00    +0.089 C 
ATOM      8  N   UNL     1      -3.368  -2.194  -1.246  0.00  0.00    -0.299 N 
ATOM      9  C   UNL     1      -2.674  -1.950  -2.367  0.00  0.00    +0.218 C 
ATOM     10  O   UNL     1      -3.304  -1.709  -3.375  0.00  0.00    -0.276 OA
ATOM     11  C   UNL     1      -1.181  -1.954  -2.469  0.00  0.00    +0.128 C 
ATOM     12  C   UNL     1      -0.562  -2.671  -1.263  0.00  0.00    +0.142 C 
ATOM     13  H   UNL     1      -6.028  -1.807   0.859  0.00  0.00    -0.081 HD
ENDROOT
BRANCH   1  14
ATOM     14  C   UNL     1      -1.185  -0.630   0.010  0.00  0.00    +0.314 C 
ATOM     15  O   UNL     1      -2.208   0.015   0.023  0.00  0.00    -0.250 OA
BRANCH  14  17
ATOM     16  C   UNL     1      -0.017   1.425   0.010  0.00  0.00    +0.280 C 
ATOM     17  O   UNL     1       0.002  -0.004   0.002  0.00  0.00    -0.468 OA
ENDBRANCH  14  17
ENDBRANCH   1  14
BRANCH  12  18
ATOM     18  O   UNL     1      -0.786  -4.078  -1.373  0.00  0.00    -0.375 OA
BRANCH  18  19
ATOM     19  C   UNL     1       0.265  -4.784  -2.036  0.00  0.00    +0.165 C 
BRANCH  19  20
ATOM     20  C   UNL     1      -0.080  -6.273  -2.097  0.00  0.00    +0.066 C 
BRANCH  20  21
ATOM     21  C   UNL     1       1.029  -7.017  -2.796  0.00  0.00    -0.010 A 
ATOM     22  C   UNL     1       0.941  -7.274  -4.152  0.00  0.00    +0.006 A 
ATOM     23  C   UNL     1       1.958  -7.956  -4.793  0.00  0.00    +0.000 A 
ATOM     24  C   UNL     1       3.063  -8.383  -4.080  0.00  0.00    +0.003 A 
ATOM     25  C   UNL     1       3.153  -8.127  -2.725  0.00  0.00    +0.038 A 
ATOM     26  C   UNL     1       2.137  -7.439  -2.083  0.00  0.00    +0.127 A 
ATOM     27  F   UNL     1       2.226  -7.184  -0.759  0.00  0.00    -0.205 F 
ENDBRANCH  20  21
ENDBRANCH  19  20
ENDBRANCH  18  19
ENDBRANCH  12  18
BRANCH   5  28
ATOM     28  C   UNL     1      -6.814  -3.600   1.400  0.00  0.00    -0.025 C 
BRANCH  28  29
ATOM     29  C   UNL     1      -8.096  -3.350   0.648  0.00  0.00    +0.000 A 
ATOM     30  H   UNL     1      -8.869  -1.673   1.612  0.00  0.00    +0.166 HD
ATOM     31  C   UNL     1      -8.546  -4.091  -0.376  0.00  0.00    +0.029 A 
ATOM     32  C   UNL     1      -9.816  -3.501  -0.807  0.00  0.00    -0.000 A 
ATOM     33  C   UNL     1     -10.743  -3.814  -1.803  0.00  0.00    +0.010 A 
ATOM     34  C   UNL     1     -11.862  -3.044  -1.953  0.00  0.00    +0.001 A 
ATOM     35  C   UNL     1     -12.085  -1.954  -1.124  0.00  0.00    +0.002 A 
ATOM     36  C   UNL     1     -11.183  -1.628  -0.134  0.00  0.00    +0.026 A 
ATOM     37  C   UNL     1     -10.037  -2.397   0.037  0.00  0.00    +0.047 A 
ATOM     38  N   UNL     1      -8.977  -2.337   0.913  0.00  0.00    -0.360 N 
ENDBRANCH  28  29
ENDBRANCH   5  28
TORSDOF 8
