REMARK  Name = ZINC22706072
REMARK  5 active torsions:
REMARK  status: ('A' for Active; 'I' for Inactive)
REMARK    1  A    between atoms: C_4  and  N_7
REMARK    2  A    between atoms: C_11  and  N_15
REMARK    3  A    between atoms: C_19  and  C_22
REMARK    4  A    between atoms: N_24  and  N_25
REMARK    5  A    between atoms: N_28  and  C_29
REMARK                            x       y       z     vdW  Elec       q    Type
REMARK                         _______ _______ _______ _____ _____    ______ ____
ROOT
ATOM      1  N   UNL     1       5.604  -3.111   1.216  0.00  0.00    -0.290 NA
ATOM      2  C   UNL     1       7.058  -3.303   1.293  0.00  0.00    +0.085 C 
ATOM      3  C   UNL     1       7.426  -3.887   2.659  0.00  0.00    +0.016 C 
ATOM      4  C   UNL     1       6.705  -5.224   2.848  0.00  0.00    +0.015 C 
ATOM      5  C   UNL     1       5.195  -5.005   2.715  0.00  0.00    +0.090 C 
ATOM      6  C   UNL     1       4.893  -4.389   1.347  0.00  0.00    +0.098 C 
ENDROOT
BRANCH   1  11
ATOM      7  N   UNL     1       3.691  -0.680  -0.085  0.00  0.00    -0.209 N 
ATOM      8  C   UNL     1       4.871  -0.056  -0.181  0.00  0.00    +0.228 C 
ATOM      9  O   UNL     1       5.027   1.142  -0.273  0.00  0.00    -0.275 OA
ATOM     10  C   UNL     1       5.981  -1.085  -0.156  0.00  0.00    +0.125 C 
ATOM     11  C   UNL     1       5.229  -2.425  -0.027  0.00  0.00    +0.153 C 
ATOM     12  C   UNL     1       3.773  -2.013   0.013  0.00  0.00    +0.244 C 
ATOM     13  O   UNL     1       2.832  -2.769   0.114  0.00  0.00    -0.273 OA
BRANCH   7  17
ATOM     14  C   UNL     1       0.057   1.362  -0.071  0.00  0.00    +0.000 A 
ATOM     15  C   UNL     1       0.373   0.511   0.971  0.00  0.00    +0.002 A 
ATOM     16  C   UNL     1       1.577  -0.167   0.969  0.00  0.00    +0.024 A 
ATOM     17  C   UNL     1       2.468   0.007  -0.081  0.00  0.00    +0.044 A 
ATOM     18  C   UNL     1       2.147   0.862  -1.126  0.00  0.00    +0.024 A 
ATOM     19  C   UNL     1       0.943   1.538  -1.118  0.00  0.00    +0.002 A 
ENDBRANCH   7  17
ENDBRANCH   1  11
BRANCH   5  20
ATOM     20  C   UNL     1       4.482  -6.327   2.841  0.00  0.00    +0.233 C 
ATOM     21  O   UNL     1       3.796  -6.735   1.929  0.00  0.00    -0.274 OA
ATOM     22  N   UNL     1       4.607  -7.055   3.969  0.00  0.00    -0.233 N 
ATOM     23  H   UNL     1       5.156  -6.728   4.699  0.00  0.00    +0.173 HD
BRANCH  22  24
ATOM     24  N   UNL     1       3.944  -8.283   4.087  0.00  0.00    -0.218 N 
ATOM     25  C   UNL     1       4.069  -9.011   5.214  0.00  0.00    +0.320 C 
ATOM     26  O   UNL     1       3.493 -10.078   5.316  0.00  0.00    -0.251 OA
ATOM     27  N   UNL     1       4.832  -8.557   6.228  0.00  0.00    -0.268 N 
ATOM     28  H   UNL     1       3.395  -8.610   3.357  0.00  0.00    +0.174 HD
ATOM     29  H   UNL     1       5.225  -7.672   6.181  0.00  0.00    +0.156 HD
BRANCH  27  30
ATOM     30  C   UNL     1       5.057  -9.364   7.350  0.00  0.00    +0.035 A 
ATOM     31  C   UNL     1       5.162  -8.789   8.610  0.00  0.00    +0.025 A 
ATOM     32  C   UNL     1       5.384  -9.587   9.715  0.00  0.00    +0.022 A 
ATOM     33  C   UNL     1       5.502 -10.958   9.568  0.00  0.00    +0.041 A 
ATOM     34  C   UNL     1       5.397 -11.533   8.313  0.00  0.00    +0.022 A 
ATOM     35  C   UNL     1       5.169 -10.740   7.206  0.00  0.00    +0.025 A 
ATOM     36 CL   UNL     1       5.781 -11.958  10.959  0.00  0.00    -0.084 Cl
ENDBRANCH  27  30
ENDBRANCH  22  24
ENDBRANCH   5  20
TORSDOF 5
