REMARK  Name = ZINC06149044
REMARK  15 active torsions:
REMARK  status: ('A' for Active; 'I' for Inactive)
REMARK    1  A    between atoms: C_1  and  C_2
REMARK    2  A    between atoms: C_2  and  C_3
REMARK    3  A    between atoms: C_3  and  C_4
REMARK    4  A    between atoms: C_3  and  C_5
REMARK    5  A    between atoms: C_3  and  N_6
REMARK    6  A    between atoms: C_7  and  C_11
REMARK    7  A    between atoms: C_11  and  C_13
REMARK    8  A    between atoms: C_11  and  N_78
REMARK    9  A    between atoms: C_16  and  C_26
REMARK   10  A    between atoms: C_19  and  C_25
REMARK   11  A    between atoms: C_27  and  C_28
REMARK   12  A    between atoms: C_27  and  N_78
REMARK   13  A    between atoms: C_28  and  C_29
REMARK   14  A    between atoms: C_35  and  C_36
REMARK   15  A    between atoms: C_35  and  N_78
REMARK                            x       y       z     vdW  Elec       q    Type
REMARK                         _______ _______ _______ _____ _____    ______ ____
ROOT
ATOM      1  C   UNL     1       3.238   1.880   4.206  0.00  0.00    +0.039 C 
ENDROOT
BRANCH   1   2
ATOM      2  C   UNL     1       1.918   2.549   4.487  0.00  0.00    +0.011 A 
ATOM      3  C   UNL     1       0.884   2.393   3.623  0.00  0.00    +0.018 A 
ATOM      4  C   UNL     1      -0.386   3.056   3.925  0.00  0.00    +0.002 A 
ATOM      5  C   UNL     1      -1.488   2.932   3.072  0.00  0.00    -0.041 A 
ATOM      6  C   UNL     1      -2.657   3.568   3.380  0.00  0.00    +0.004 A 
ATOM      7  C   UNL     1      -2.765   4.328   4.536  0.00  0.00    +0.005 A 
ATOM      8  C   UNL     1      -1.692   4.464   5.391  0.00  0.00    -0.026 A 
ATOM      9  C   UNL     1      -0.490   3.830   5.096  0.00  0.00    +0.052 A 
ATOM     10  N   UNL     1       0.599   3.950   5.933  0.00  0.00    -0.322 N 
ATOM     11  H   UNL     1       0.524   4.500   6.764  0.00  0.00    +0.169 HD
ATOM     12  C   UNL     1       1.761   3.336   5.647  0.00  0.00    +0.251 A 
ATOM     13  O   UNL     1       2.703   3.463   6.410  0.00  0.00    -0.268 OA
ATOM     14  C   UNL     1      -1.821   5.297   6.640  0.00  0.00    +0.046 C 
ATOM     15  C   UNL     1      -1.383   2.106   1.816  0.00  0.00    +0.044 C 
ENDBRANCH   1   2
BRANCH   1  17
ATOM     16  N   UNL     1       3.540  -0.494   5.090  0.00  0.00    -0.225 N 
ATOM     17  C   UNL     1       3.510   0.841   5.263  0.00  0.00    +0.143 A 
ATOM     18  N   UNL     1       3.757   1.061   6.531  0.00  0.00    -0.115 NA
ATOM     19  N   UNL     1       3.935  -0.078   7.106  0.00  0.00    -0.023 NA
ATOM     20  N   UNL     1       3.808  -1.020   6.237  0.00  0.00    -0.043 NA
BRANCH  16  21
ATOM     21  C   UNL     1       3.315  -1.213   3.834  0.00  0.00    +0.061 C 
ATOM     22  C   UNL     1       1.935  -0.853   3.280  0.00  0.00    +0.036 C 
ATOM     23  C   UNL     1       4.391  -0.818   2.820  0.00  0.00    +0.036 C 
BRANCH  21  25
ATOM     24  C   UNL     1       3.150  -3.472   2.778  0.00  0.00    +0.006 C 
ATOM     25  C   UNL     1       3.385  -2.720   4.090  0.00  0.00    +0.026 C 
ENDBRANCH  21  25
ENDBRANCH  16  21
ENDBRANCH   1  17
BRANCH   1  26
ATOM     26  N   UNL     1       4.308   2.898   4.245  0.00  0.00    +0.392 N 
ATOM     27  H   UNL     1       4.263   3.396   5.142  0.00  0.00    -0.080 HD
BRANCH  26  28
ATOM     28  C   UNL     1       5.630   2.248   4.123  0.00  0.00    -0.072 C 
BRANCH  28  29
ATOM     29  C   UNL     1       6.717   3.279   4.436  0.00  0.00    +0.016 C 
BRANCH  29  30
ATOM     30  C   UNL     1       8.071   2.622   4.351  0.00  0.00    -0.049 A 
ATOM     31  C   UNL     1       8.629   2.042   5.475  0.00  0.00    +0.003 A 
ATOM     32  C   UNL     1       9.869   1.435   5.397  0.00  0.00    +0.000 A 
ATOM     33  C   UNL     1      10.555   1.417   4.197  0.00  0.00    +0.000 A 
ATOM     34  C   UNL     1       9.999   2.002   3.074  0.00  0.00    +0.000 A 
ATOM     35  C   UNL     1       8.757   2.604   3.151  0.00  0.00    +0.003 A 
ENDBRANCH  29  30
ENDBRANCH  28  29
ENDBRANCH  26  28
BRANCH  26  36
ATOM     36  C   UNL     1       4.121   3.871   3.148  0.00  0.00    -0.042 C 
BRANCH  36  37
ATOM     37  C   UNL     1       4.291   3.197   1.810  0.00  0.00    -0.064 A 
ATOM     38  C   UNL     1       5.533   3.169   1.204  0.00  0.00    +0.002 A 
ATOM     39  C   UNL     1       5.691   2.547  -0.020  0.00  0.00    +0.000 A 
ATOM     40  C   UNL     1       4.604   1.962  -0.643  0.00  0.00    +0.000 A 
ATOM     41  C   UNL     1       3.361   1.995  -0.040  0.00  0.00    +0.000 A 
ATOM     42  C   UNL     1       3.205   2.613   1.187  0.00  0.00    +0.002 A 
ENDBRANCH  36  37
ENDBRANCH  26  36
ENDBRANCH   1  26
TORSDOF 10
