REMARK  Name = ZINC04222335
REMARK  15 active torsions:
REMARK  status: ('A' for Active; 'I' for Inactive)
REMARK    1  A    between atoms: C_1  and  C_2
REMARK    2  A    between atoms: C_5  and  O_42
REMARK    3  A    between atoms: C_7  and  C_39
REMARK    4  A    between atoms: C_7  and  C_40
REMARK    5  A    between atoms: C_17  and  C_19
REMARK    6  A    between atoms: C_22  and  C_25
REMARK    7  A    between atoms: C_25  and  C_26
REMARK    8  A    between atoms: C_25  and  C_27
REMARK    9  A    between atoms: C_25  and  C_28
REMARK   10  A    between atoms: C_29  and  C_31
REMARK   11  A    between atoms: C_31  and  C_32
REMARK   12  A    between atoms: N_34  and  C_35
REMARK   13  A    between atoms: N_34  and  C_36
REMARK   14  A    between atoms: C_36  and  C_37
REMARK   15  A    between atoms: C_40  and  O_41
REMARK                            x       y       z     vdW  Elec       q    Type
REMARK                         _______ _______ _______ _____ _____    ______ ____
ROOT
ATOM      1  C   UNL     1       2.441   3.877   2.235  0.00  0.00    +0.012 C 
ATOM      2  C   UNL     1       3.262   3.533   0.991  0.00  0.00    -0.019 C 
ATOM      3  C   UNL     1       3.536   2.026   0.958  0.00  0.00    +0.010 C 
ATOM      4  C   UNL     1       2.226   1.249   0.843  0.00  0.00    +0.032 C 
ATOM      5  C   UNL     1       1.529   1.651  -0.461  0.00  0.00    +0.123 C 
ATOM      6  C   UNL     1       1.212   3.144  -0.408  0.00  0.00    +0.021 C 
ATOM      7  C   UNL     1       2.502   3.958  -0.268  0.00  0.00    +0.011 C 
ATOM      8  C   UNL     1       2.094   5.438  -0.130  0.00  0.00    +0.049 C 
ATOM      9  C   UNL     1       3.264   6.220   0.353  0.00  0.00    +0.015 A 
ATOM     10  C   UNL     1       4.415   5.744   0.893  0.00  0.00    +0.058 A 
ATOM     11  N   UNL     1       5.314   6.659   1.252  0.00  0.00    -0.229 NA
ATOM     12  C   UNL     1       5.103   7.949   1.093  0.00  0.00    +0.165 A 
ATOM     13  S   UNL     1       3.517   7.974   0.380  0.00  0.00    -0.057 S 
ATOM     14  N   UNL     1       5.934   9.015   1.413  0.00  0.00    -0.261 N 
ATOM     15  C   UNL     1       5.532  10.279   1.170  0.00  0.00    +0.250 C 
ATOM     16  O   UNL     1       4.443  10.485   0.671  0.00  0.00    -0.270 OA
ATOM     17  C   UNL     1       4.619   4.246   1.057  0.00  0.00    +0.054 C 
ATOM     18  C   UNL     1       0.491   3.555  -1.694  0.00  0.00    +0.016 C 
ATOM     19  H   UNL     1       6.803   8.851   1.811  0.00  0.00    +0.157 HD
ENDROOT
BRANCH  15  20
ATOM     20  C   UNL     1       6.416  11.413   1.510  0.00  0.00    +0.037 A 
ATOM     21  C   UNL     1       7.665  11.180   2.089  0.00  0.00    +0.013 A 
ATOM     22  C   UNL     1       8.488  12.243   2.399  0.00  0.00    +0.005 A 
ATOM     23  C   UNL     1       8.072  13.539   2.148  0.00  0.00    -0.042 A 
ATOM     24  C   UNL     1       6.833  13.778   1.580  0.00  0.00    +0.005 A 
ATOM     25  C   UNL     1       6.003  12.723   1.260  0.00  0.00    +0.013 A 
BRANCH  23  26
ATOM     26  C   UNL     1       8.974  14.696   2.495  0.00  0.00    -0.013 C 
ATOM     27  C   UNL     1       8.271  15.605   3.504  0.00  0.00    +0.015 C 
ATOM     28  C   UNL     1      10.273  14.165   3.104  0.00  0.00    +0.015 C 
ATOM     29  C   UNL     1       9.293  15.492   1.227  0.00  0.00    +0.015 C 
ENDBRANCH  23  26
ENDBRANCH  15  20
BRANCH   5  30
ATOM     30  O   UNL     1       0.316   0.909  -0.603  0.00  0.00    -0.391 OA
ATOM     31  H   UNL     1       0.442  -0.050  -0.632  0.00  0.00    +0.210 HD
ENDBRANCH   5  30
BRANCH  17  32
ATOM     32  C   UNL     1       5.277   3.965   2.409  0.00  0.00    +0.106 C 
BRANCH  32  33
ATOM     33  C   UNL     1       6.688   4.495   2.400  0.00  0.00    +0.216 C 
ATOM     34  O   UNL     1       7.125   5.042   1.410  0.00  0.00    -0.276 OA
ATOM     35  N   UNL     1       7.466   4.359   3.493  0.00  0.00    -0.301 N 
ATOM     36  C   UNL     1       6.939   3.698   4.689  0.00  0.00    +0.132 C 
BRANCH  35  37
ATOM     37  C   UNL     1       8.837   4.874   3.485  0.00  0.00    +0.134 C 
BRANCH  37  38
ATOM     38  C   UNL     1       8.841   6.301   3.968  0.00  0.00    -0.016 C 
ATOM     39  C   UNL     1       9.605   6.650   4.974  0.00  0.00    +0.005 C 
ENDBRANCH  37  38
ENDBRANCH  35  37
ENDBRANCH  32  33
ENDBRANCH  17  32
BRANCH   6  40
ATOM     40  C   UNL     1       0.303   3.427   0.790  0.00  0.00    +0.165 C 
BRANCH  40  41
ATOM     41  O   UNL     1      -0.971   2.815   0.576  0.00  0.00    -0.394 OA
ATOM     42  H   UNL     1      -1.600   2.954   1.298  0.00  0.00    +0.209 HD
ENDBRANCH  40  41
ENDBRANCH   6  40
TORSDOF 9
