REMARK  Name = ZINC16638633
REMARK  7 active torsions:
REMARK  status: ('A' for Active; 'I' for Inactive)
REMARK    1  A    between atoms: C_1  and  C_2
REMARK    2  A    between atoms: C_2  and  C_3
REMARK    3  A    between atoms: C_3  and  C_4
REMARK    4  A    between atoms: C_4  and  C_5
REMARK    5  A    between atoms: C_5  and  S_6
REMARK    6  A    between atoms: S_6  and  C_9
REMARK    7  A    between atoms: N_22  and  O_23
REMARK                            x       y       z     vdW  Elec       q    Type
REMARK                         _______ _______ _______ _____ _____    ______ ____
ROOT
ATOM      1  C   UNL     1      -4.611  -4.706  -0.066  0.00  0.00    +0.178 C 
ATOM      2  C   UNL     1      -4.886  -6.199   0.124  0.00  0.00    +0.032 C 
ATOM      3  C   UNL     1      -3.561  -6.946   0.280  0.00  0.00    +0.002 C 
ATOM      4  C   UNL     1      -3.620  -7.836   1.523  0.00  0.00    +0.000 C 
ATOM      5  C   UNL     1      -2.418  -7.537   2.422  0.00  0.00    +0.000 C 
ATOM      6  C   UNL     1      -2.908  -7.195   3.831  0.00  0.00    +0.000 C 
ATOM      7  C   UNL     1      -2.294  -5.866   4.275  0.00  0.00    +0.000 C 
ATOM      8  C   UNL     1      -3.404  -4.921   4.740  0.00  0.00    +0.000 C 
ATOM      9  C   UNL     1      -3.317  -3.609   3.958  0.00  0.00    +0.000 C 
ATOM     10  C   UNL     1      -4.682  -3.290   3.343  0.00  0.00    +0.006 C 
ATOM     11  C   UNL     1      -4.507  -2.950   1.862  0.00  0.00    +0.056 C 
ATOM     12  C   UNL     1      -5.295  -3.926   1.026  0.00  0.00    +0.081 C 
ATOM     13  N   UNL     1      -6.545  -4.091   1.244  0.00  0.00    -0.095 NA
ENDROOT
BRANCH   1  14
ATOM     14  S   UNL     1      -2.823  -4.407   0.005  0.00  0.00    -0.023 S 
ATOM     15  O   UNL     1      -2.331  -4.917   1.237  0.00  0.00    -0.174 OA
ATOM     16  O   UNL     1      -2.582  -3.046  -0.325  0.00  0.00    -0.174 OA
BRANCH  14  17
ATOM     17  C   UNL     1      -2.189  -5.446  -1.340  0.00  0.00    +0.166 C 
BRANCH  17  18
ATOM     18  C   UNL     1      -0.693  -5.182  -1.525  0.00  0.00    +0.023 C 
BRANCH  18  19
ATOM     19  C   UNL     1      -0.158  -6.058  -2.660  0.00  0.00    +0.001 C 
BRANCH  19  21
ATOM     20  C   UNL     1       1.873  -6.671  -3.980  0.00  0.00    +0.004 C 
ATOM     21  C   UNL     1       1.337  -5.795  -2.846  0.00  0.00    -0.003 C 
ENDBRANCH  19  21
ENDBRANCH  18  19
ENDBRANCH  17  18
ENDBRANCH  14  17
ENDBRANCH   1  14
BRANCH  13  22
ATOM     22  O   UNL     1      -7.188  -3.358   2.271  0.00  0.00    -0.409 OA
ATOM     23  H   UNL     1      -8.132  -3.550   2.360  0.00  0.00    +0.328 HD
ENDBRANCH  13  22
TORSDOF 6
