REMARK  Name = ZINC15185117
REMARK  11 active torsions:
REMARK  status: ('A' for Active; 'I' for Inactive)
REMARK    1  A    between atoms: C_1  and  C_2
REMARK    2  A    between atoms: C_5  and  C_32
REMARK    3  A    between atoms: N_8  and  S_10
REMARK    4  A    between atoms: S_10  and  C_13
REMARK    5  A    between atoms: C_17  and  C_19
REMARK    6  A    between atoms: C_19  and  O_21
REMARK    7  A    between atoms: O_21  and  C_22
REMARK    8  A    between atoms: C_22  and  C_23
REMARK    9  A    between atoms: N_28  and  C_29
REMARK   10  A    between atoms: C_29  and  C_30
REMARK   11  A    between atoms: C_29  and  C_31
REMARK                            x       y       z     vdW  Elec       q    Type
REMARK                         _______ _______ _______ _____ _____    ______ ____
ROOT
ATOM      1  C   UNL     1       2.547  -3.268  -0.217  0.00  0.00    +0.106 A 
ATOM      2  C   UNL     1       2.078  -4.392  -0.874  0.00  0.00    +0.028 A 
ATOM      3  C   UNL     1       2.503  -4.678  -2.159  0.00  0.00    +0.003 A 
ATOM      4  C   UNL     1       3.399  -3.843  -2.795  0.00  0.00    +0.015 A 
ATOM      5  C   UNL     1       3.876  -2.707  -2.138  0.00  0.00    +0.061 A 
ATOM      6  C   UNL     1       3.438  -2.421  -0.843  0.00  0.00    +0.043 A 
ENDROOT
BRANCH   1   7
ATOM      7  S   UNL     1       1.999  -2.914   1.419  0.00  0.00    +0.061 S 
ATOM      8  O   UNL     1       2.998  -2.098   2.015  0.00  0.00    -0.153 OA
ATOM      9  O   UNL     1       1.587  -4.150   1.986  0.00  0.00    -0.153 OA
BRANCH   7  15
ATOM     10  C   UNL     1      -0.019   1.526   0.010  0.00  0.00    +0.009 C 
ATOM     11  C   UNL     1       0.002  -0.004   0.002  0.00  0.00    +0.002 C 
ATOM     12  C   UNL     1      -1.433  -0.534   0.015  0.00  0.00    +0.009 C 
ATOM     13  C   UNL     1      -1.414  -2.064  -0.027  0.00  0.00    +0.002 C 
ATOM     14  C   UNL     1      -0.692  -2.596   1.215  0.00  0.00    +0.112 C 
ATOM     15  N   UNL     1       0.639  -1.977   1.288  0.00  0.00    -0.176 NA
ATOM     16  C   UNL     1       0.742  -0.512   1.244  0.00  0.00    +0.112 C 
ATOM     17  C   UNL     1      -2.850  -2.592  -0.049  0.00  0.00    +0.009 C 
ENDBRANCH   7  15
ENDBRANCH   1   7
BRANCH   5  18
ATOM     18  C   UNL     1       4.836  -1.808  -2.811  0.00  0.00    +0.340 C 
ATOM     19  O   UNL     1       5.249  -0.821  -2.237  0.00  0.00    -0.245 OA
BRANCH  18  20
ATOM     20  O   UNL     1       5.252  -2.084  -4.062  0.00  0.00    -0.452 OA
BRANCH  20  21
ATOM     21  C   UNL     1       6.180  -1.171  -4.653  0.00  0.00    +0.328 C 
BRANCH  21  22
ATOM     22  C   UNL     1       6.529  -1.639  -6.042  0.00  0.00    +0.258 C 
ATOM     23  O   UNL     1       6.032  -2.653  -6.484  0.00  0.00    -0.272 OA
ATOM     24  N   UNL     1       7.394  -0.930  -6.795  0.00  0.00    -0.237 N 
ATOM     25  C   UNL     1       7.706  -1.348  -8.037  0.00  0.00    +0.306 C 
ATOM     26  O   UNL     1       7.208  -2.364  -8.480  0.00  0.00    -0.252 OA
ATOM     27  N   UNL     1       8.571  -0.639  -8.790  0.00  0.00    -0.297 N 
ATOM     28  H   UNL     1       7.792  -0.118  -6.442  0.00  0.00    +0.159 HD
ATOM     29  H   UNL     1       8.968   0.173  -8.437  0.00  0.00    +0.151 HD
BRANCH  27  30
ATOM     30  C   UNL     1       8.910  -1.093 -10.140  0.00  0.00    +0.068 C 
ATOM     31  C   UNL     1       7.859  -0.583 -11.129  0.00  0.00    +0.027 C 
ATOM     32  C   UNL     1      10.285  -0.548 -10.531  0.00  0.00    +0.027 C 
ENDBRANCH  27  30
ENDBRANCH  21  22
ENDBRANCH  20  21
ENDBRANCH  18  20
ENDBRANCH   5  18
TORSDOF 7
