REMARK  Name = ZINC36408837
REMARK  8 active torsions:
REMARK  status: ('A' for Active; 'I' for Inactive)
REMARK    1  A    between atoms: C_1  and  C_2
REMARK    2  A    between atoms: N_4  and  C_5
REMARK    3  A    between atoms: C_9  and  N_11
REMARK    4  A    between atoms: C_12  and  C_14
REMARK    5  A    between atoms: C_14  and  N_15
REMARK    6  A    between atoms: C_28  and  C_36
REMARK    7  A    between atoms: C_32  and  C_34
REMARK    8  A    between atoms: C_32  and  C_35
REMARK                            x       y       z     vdW  Elec       q    Type
REMARK                         _______ _______ _______ _____ _____    ______ ____
ROOT
ATOM      1  N   UNL     1      -4.189  -8.609   0.488  0.00  0.00    -0.295 N 
ATOM      2  C   UNL     1      -4.005  -9.433  -0.608  0.00  0.00    +0.071 A 
ATOM      3  C   UNL     1      -4.131  -8.923  -1.896  0.00  0.00    +0.028 A 
ATOM      4  C   UNL     1      -3.946  -9.751  -2.983  0.00  0.00    +0.002 A 
ATOM      5  C   UNL     1      -3.635 -11.091  -2.802  0.00  0.00    +0.002 A 
ATOM      6  C   UNL     1      -3.507 -11.612  -1.546  0.00  0.00    +0.030 A 
ATOM      7  C   UNL     1      -3.690 -10.790  -0.425  0.00  0.00    +0.090 A 
ATOM      8  N   UNL     1      -3.562 -11.306   0.816  0.00  0.00    -0.225 NA
ATOM      9  C   UNL     1      -3.729 -10.558   1.877  0.00  0.00    +0.188 A 
ATOM     10  C   UNL     1      -4.055  -9.127   1.728  0.00  0.00    +0.292 A 
ATOM     11  O   UNL     1      -4.206  -8.424   2.710  0.00  0.00    -0.264 OA
ATOM     12  N   UNL     1      -3.594 -11.109   3.139  0.00  0.00    -0.307 N 
ATOM     13  C   UNL     1      -3.740 -10.388   4.413  0.00  0.00    +0.113 C 
ATOM     14  C   UNL     1      -3.558 -11.440   5.532  0.00  0.00    -0.014 C 
ATOM     15  C   UNL     1      -2.629 -12.482   4.853  0.00  0.00    +0.030 C 
ATOM     16  C   UNL     1      -3.266 -12.517   3.441  0.00  0.00    +0.076 C 
ATOM     17  C   UNL     1      -4.559 -13.321   3.549  0.00  0.00    +0.029 C 
ATOM     18  C   UNL     1      -5.527 -12.790   4.591  0.00  0.00    -0.033 C 
ATOM     19  C   UNL     1      -4.898 -12.121   5.798  0.00  0.00    +0.014 C 
ATOM     20  C   UNL     1      -6.346 -13.998   5.111  0.00  0.00    +0.011 C 
ATOM     21  C   UNL     1      -6.533 -11.839   3.927  0.00  0.00    +0.011 C 
ATOM     22  C   UNL     1      -2.934 -10.839   6.801  0.00  0.00    +0.013 C 
ENDROOT
BRANCH   1  23
ATOM     23  C   UNL     1      -4.517  -7.193   0.306  0.00  0.00    +0.221 C 
BRANCH  23  25
ATOM     24  N   UNL     1      -3.302  -5.052   0.060  0.00  0.00    -0.284 N 
ATOM     25  C   UNL     1      -3.245  -6.388   0.228  0.00  0.00    +0.237 C 
ATOM     26  O   UNL     1      -2.170  -6.943   0.316  0.00  0.00    -0.274 OA
ATOM     27  H   UNL     1      -4.158  -4.617  -0.077  0.00  0.00    +0.155 HD
BRANCH  24  32
ATOM     28  C   UNL     1      -0.968  -2.267   0.650  0.00  0.00    +0.035 A 
ATOM     29  C   UNL     1       0.206  -2.797   0.128  0.00  0.00    +0.023 A 
ATOM     30  C   UNL     1       0.211  -4.069  -0.412  0.00  0.00    +0.004 A 
ATOM     31  C   UNL     1      -0.950  -4.817  -0.435  0.00  0.00    +0.023 A 
ATOM     32  C   UNL     1      -2.127  -4.293   0.085  0.00  0.00    +0.035 A 
ATOM     33  C   UNL     1      -2.134  -3.019   0.633  0.00  0.00    +0.046 A 
BRANCH  28  37
ATOM     34  C   UNL     1      -1.676   0.652   2.918  0.00  0.00    +0.109 C 
ATOM     35  C   UNL     1      -1.748  -0.704   2.264  0.00  0.00    +0.214 C 
ATOM     36  O   UNL     1      -2.505  -1.546   2.698  0.00  0.00    -0.276 OA
ATOM     37  N   UNL     1      -0.972  -0.980   1.197  0.00  0.00    -0.286 N 
ATOM     38  H   UNL     1      -0.417  -0.285   0.809  0.00  0.00    +0.155 HD
ENDBRANCH  28  37
ENDBRANCH  24  32
ENDBRANCH  23  25
ENDBRANCH   1  23
TORSDOF 4
