REMARK  Name = ZINC39711573
REMARK  9 active torsions:
REMARK  status: ('A' for Active; 'I' for Inactive)
REMARK    1  A    between atoms: C_1  and  O_2
REMARK    2  A    between atoms: O_2  and  C_3
REMARK    3  A    between atoms: C_3  and  C_4
REMARK    4  A    between atoms: C_4  and  N_5
REMARK    5  A    between atoms: C_6  and  C_10
REMARK    6  A    between atoms: C_10  and  C_12
REMARK    7  A    between atoms: C_10  and  N_27
REMARK    8  A    between atoms: C_30  and  C_33
REMARK    9  A    between atoms: C_33  and  C_34
REMARK                            x       y       z     vdW  Elec       q    Type
REMARK                         _______ _______ _______ _____ _____    ______ ____
ROOT
ATOM      1  C   UNL     1      -0.752  -2.832  -3.744  0.00  0.00    +0.018 C 
ENDROOT
BRANCH   1   2
ATOM      2  C   UNL     1      -1.550  -4.138  -3.769  0.00  0.00    +0.092 C 
ATOM      3  C   UNL     1      -1.539  -4.717  -2.368  0.00  0.00    -0.006 C 
ATOM      4  C   UNL     1      -1.030  -5.968  -2.212  0.00  0.00    -0.003 A 
ATOM      5  C   UNL     1      -0.983  -6.598  -0.891  0.00  0.00    +0.059 A 
ATOM      6  C   UNL     1      -0.467  -7.849  -0.770  0.00  0.00    +0.167 A 
ATOM      7  C   UNL     1       0.021  -8.551  -1.893  0.00  0.00    +0.168 A 
ATOM      8  C   UNL     1      -0.002  -8.002  -3.158  0.00  0.00    +0.073 A 
ATOM      9  C   UNL     1      -0.515  -6.717  -3.374  0.00  0.00    +0.044 A 
ATOM     10  N   UNL     1      -0.527  -6.203  -4.607  0.00  0.00    -0.284 N 
ATOM     11  C   UNL     1      -0.995  -4.999  -4.881  0.00  0.00    +0.223 C 
ATOM     12  O   UNL     1      -0.979  -4.584  -6.025  0.00  0.00    -0.275 OA
ATOM     13  O   UNL     1       0.471  -9.768  -1.472  0.00  0.00    -0.453 OA
ATOM     14  C   UNL     1       0.644  -9.647  -0.049  0.00  0.00    +0.466 C 
ATOM     15  O   UNL     1      -0.312  -8.642   0.333  0.00  0.00    -0.453 OA
ATOM     16  H   UNL     1      -0.176  -6.740  -5.334  0.00  0.00    +0.155 HD
ENDBRANCH   1   2
BRANCH   1  17
ATOM     17  N   UNL     1      -1.005  -2.080  -4.980  0.00  0.00    +0.387 N 
ATOM     18  C   UNL     1      -0.221  -0.840  -4.965  0.00  0.00    -0.078 C 
ATOM     19  C   UNL     1      -0.417  -0.092  -6.286  0.00  0.00    -0.015 C 
ATOM     20  C   UNL     1      -1.901   0.243  -6.460  0.00  0.00    -0.010 C 
ATOM     21  C   UNL     1      -2.718  -1.051  -6.399  0.00  0.00    -0.015 C 
ATOM     22  C   UNL     1      -2.436  -1.764  -5.074  0.00  0.00    -0.078 C 
ATOM     23  H   UNL     1      -0.733  -2.639  -5.774  0.00  0.00    -0.081 HD
BRANCH  20  24
ATOM     24  C   UNL     1      -2.118   0.921  -7.814  0.00  0.00    +0.038 C 
BRANCH  24  25
ATOM     25  C   UNL     1      -3.554   1.360  -7.933  0.00  0.00    -0.047 A 
ATOM     26  C   UNL     1      -4.498   0.502  -8.466  0.00  0.00    +0.003 A 
ATOM     27  C   UNL     1      -5.816   0.905  -8.575  0.00  0.00    +0.000 A 
ATOM     28  C   UNL     1      -6.190   2.166  -8.150  0.00  0.00    +0.000 A 
ATOM     29  C   UNL     1      -5.246   3.024  -7.616  0.00  0.00    +0.000 A 
ATOM     30  C   UNL     1      -3.929   2.619  -7.503  0.00  0.00    +0.003 A 
ENDBRANCH  24  25
ENDBRANCH  20  24
ENDBRANCH   1  17
BRANCH   1  32
ATOM     31  N   UNL     1       1.490  -3.014  -2.542  0.00  0.00    -0.229 N 
ATOM     32  C   UNL     1       0.718  -3.144  -3.637  0.00  0.00    +0.139 A 
ATOM     33  N   UNL     1       1.494  -3.595  -4.592  0.00  0.00    -0.115 NA
ATOM     34  N   UNL     1       2.680  -3.735  -4.109  0.00  0.00    -0.023 NA
ATOM     35  N   UNL     1       2.682  -3.379  -2.872  0.00  0.00    -0.044 NA
BRANCH  31  36
ATOM     36  C   UNL     1       1.058  -2.540  -1.224  0.00  0.00    +0.175 C 
BRANCH  36  37
ATOM     37  C   UNL     1       1.217  -1.020  -1.152  0.00  0.00    +0.183 C 
BRANCH  37  39
ATOM     38  C   UNL     1       0.904   0.856   0.307  0.00  0.00    +0.194 C 
ATOM     39  O   UNL     1       0.796  -0.558   0.133  0.00  0.00    -0.381 OA
ENDBRANCH  37  39
ENDBRANCH  36  37
ENDBRANCH  31  36
ENDBRANCH   1  32
TORSDOF 8
