REMARK  Name = ZINC13124766
REMARK  4 active torsions:
REMARK  status: ('A' for Active; 'I' for Inactive)
REMARK    1  A    between atoms: C_1  and  O_2
REMARK    2  A    between atoms: O_2  and  C_3
REMARK    3  A    between atoms: C_7  and  C_9
REMARK    4  A    between atoms: C_12  and  C_21
REMARK                            x       y       z     vdW  Elec       q    Type
REMARK                         _______ _______ _______ _____ _____    ______ ____
ROOT
ATOM      1  C   UNL     1      -2.540  -4.171   0.015  0.00  0.00    +0.143 C 
ATOM      2  C   UNL     1      -3.297  -4.654  -1.228  0.00  0.00    +0.059 C 
ATOM      3  C   UNL     1      -3.601  -6.151  -1.099  0.00  0.00    +0.107 C 
ATOM      4  N   UNL     1      -4.479  -6.354   0.069  0.00  0.00    -0.307 N 
ATOM      5  C   UNL     1      -4.147  -5.647   1.217  0.00  0.00    +0.216 A 
ATOM      6  N   UNL     1      -3.245  -4.634   1.210  0.00  0.00    -0.224 N 
ATOM      7  N   UNL     1      -3.157  -4.165   2.522  0.00  0.00    -0.132 NA
ATOM      8  C   UNL     1      -3.983  -4.893   3.240  0.00  0.00    +0.233 A 
ATOM      9  N   UNL     1      -4.586  -5.791   2.439  0.00  0.00    -0.180 NA
ATOM     10  N   UNL     1      -4.202  -4.754   4.612  0.00  0.00    -0.326 N 
ATOM     11  H   UNL     1      -5.246  -6.947   0.037  0.00  0.00    +0.149 HD
ATOM     12  H   UNL     1      -3.724  -4.074   5.113  0.00  0.00    +0.145 HD
ATOM     13  H   UNL     1      -4.832  -5.336   5.064  0.00  0.00    +0.145 HD
ENDROOT
BRANCH   3  14
ATOM     14  C   UNL     1      -2.316  -6.914  -0.910  0.00  0.00    -0.009 A 
ATOM     15  C   UNL     1      -1.937  -7.326   0.354  0.00  0.00    +0.008 A 
ATOM     16  C   UNL     1      -0.759  -8.026   0.529  0.00  0.00    +0.020 A 
ATOM     17  C   UNL     1       0.043  -8.316  -0.561  0.00  0.00    +0.042 A 
ATOM     18  C   UNL     1      -0.336  -7.904  -1.826  0.00  0.00    +0.040 A 
ATOM     19  C   UNL     1      -1.518  -7.207  -2.001  0.00  0.00    +0.047 A 
ATOM     20 CL   UNL     1      -1.997  -6.695  -3.589  0.00  0.00    -0.083 Cl
ATOM     21 CL   UNL     1       1.524  -9.195  -0.341  0.00  0.00    -0.083 Cl
ENDBRANCH   3  14
BRANCH   1  26
ATOM     22  C   UNL     1      -1.200  -0.637   0.010  0.00  0.00    +0.120 A 
ATOM     23  C   UNL     1      -2.375   0.101   0.019  0.00  0.00    +0.045 A 
ATOM     24  C   UNL     1      -3.596  -0.545   0.027  0.00  0.00    +0.004 A 
ATOM     25  C   UNL     1      -3.648  -1.927   0.026  0.00  0.00    +0.006 A 
ATOM     26  C   UNL     1      -2.479  -2.665   0.017  0.00  0.00    -0.019 A 
ATOM     27  C   UNL     1      -1.255  -2.023   0.003  0.00  0.00    +0.051 A 
BRANCH  22  29
ATOM     28  C   UNL     1      -0.017   1.425   0.010  0.00  0.00    +0.277 C 
ATOM     29  O   UNL     1       0.002  -0.004   0.002  0.00  0.00    -0.495 OA
ENDBRANCH  22  29
ENDBRANCH   1  26
TORSDOF 3
