REMARK  Name = ZINC29193156
REMARK  9 active torsions:
REMARK  status: ('A' for Active; 'I' for Inactive)
REMARK    1  A    between atoms: C_1  and  C_2
REMARK    2  A    between atoms: C_3  and  C_13
REMARK    3  A    between atoms: C_5  and  C_7
REMARK    4  A    between atoms: C_13  and  C_14
REMARK    5  A    between atoms: N_16  and  N_17
REMARK    6  A    between atoms: C_18  and  C_20
REMARK    7  A    between atoms: C_20  and  C_22
REMARK    8  A    between atoms: C_20  and  O_23
REMARK    9  A    between atoms: O_23  and  C_24
REMARK                            x       y       z     vdW  Elec       q    Type
REMARK                         _______ _______ _______ _____ _____    ______ ____
ROOT
ATOM      1  C   UNL     1       2.424  -2.420  -1.095  0.00  0.00    +0.235 C 
ATOM      2  O   UNL     1       2.336  -1.561  -1.947  0.00  0.00    -0.274 OA
ATOM      3  N   UNL     1       2.660  -3.699  -1.450  0.00  0.00    -0.234 N 
ATOM      4  H   UNL     1       2.740  -4.478  -0.677  0.00  0.00    +0.173 HD
ENDROOT
BRANCH   3   5
ATOM      5  N   UNL     1       2.804  -4.035  -2.802  0.00  0.00    -0.231 N 
ATOM      6  C   UNL     1       3.040  -5.314  -3.157  0.00  0.00    +0.270 C 
ATOM      7  O   UNL     1       3.128  -6.173  -2.305  0.00  0.00    -0.270 OA
ATOM      8  H   UNL     1       2.724  -3.256  -3.574  0.00  0.00    +0.173 HD
BRANCH   6   9
ATOM      9  C   UNL     1       3.195  -5.676  -4.611  0.00  0.00    +0.257 C 
ATOM     10  C   UNL     1       1.873  -5.430  -5.341  0.00  0.00    +0.062 C 
BRANCH   9  11
ATOM     11  O   UNL     1       3.551  -7.056  -4.723  0.00  0.00    -0.480 OA
BRANCH  11  12
ATOM     12  C   UNL     1       4.222  -7.430  -5.844  0.00  0.00    +0.123 A 
ATOM     13  C   UNL     1       4.704  -8.726  -5.965  0.00  0.00    +0.046 A 
ATOM     14  C   UNL     1       5.382  -9.106  -7.107  0.00  0.00    +0.005 A 
ATOM     15  C   UNL     1       5.590  -8.194  -8.125  0.00  0.00    +0.015 A 
ATOM     16  C   UNL     1       5.116  -6.900  -8.005  0.00  0.00    +0.021 A 
ATOM     17  C   UNL     1       4.432  -6.516  -6.866  0.00  0.00    +0.061 A 
ATOM     18 BR   UNL     1       5.404  -5.655  -9.399  0.00  0.00    -0.050 Br
ENDBRANCH  11  12
ENDBRANCH   9  11
ENDBRANCH   6   9
ENDBRANCH   3   5
BRANCH   1  19
ATOM     19  C   UNL     1       2.269  -2.058   0.359  0.00  0.00    +0.156 C 
BRANCH  19  22
ATOM     20  C   UNL     1       4.442   0.169   0.673  0.00  0.00    +0.088 C 
ATOM     21  C   UNL     1       2.951   0.379   0.619  0.00  0.00    +0.126 A 
ATOM     22  C   UNL     1       2.015  -0.578   0.484  0.00  0.00    +0.092 A 
ATOM     23  N   UNL     1       0.814   0.020   0.481  0.00  0.00    -0.213 NA
ATOM     24  C   UNL     1       0.989   1.314   0.610  0.00  0.00    +0.228 A 
ATOM     25  O   UNL     1       2.308   1.561   0.698  0.00  0.00    -0.440 OA
BRANCH  24  26
ATOM     26  C   UNL     1      -0.083   2.331   0.647  0.00  0.00    +0.037 A 
ATOM     27  C   UNL     1      -1.420   1.945   0.533  0.00  0.00    +0.013 A 
ATOM     28  C   UNL     1      -2.416   2.899   0.574  0.00  0.00    +0.001 A 
ATOM     29  C   UNL     1      -2.092   4.236   0.714  0.00  0.00    +0.000 A 
ATOM     30  C   UNL     1      -0.769   4.626   0.822  0.00  0.00    +0.001 A 
ATOM     31  C   UNL     1       0.236   3.682   0.789  0.00  0.00    +0.013 A 
ENDBRANCH  24  26
ENDBRANCH  19  22
ENDBRANCH   1  19
TORSDOF 7
