REMARK  Name = ZINC47740916
REMARK  7 active torsions:
REMARK  status: ('A' for Active; 'I' for Inactive)
REMARK    1  A    between atoms: C_1  and  C_2
REMARK    2  A    between atoms: C_4  and  S_19
REMARK    3  A    between atoms: C_6  and  N_9
REMARK    4  A    between atoms: C_7  and  C_8
REMARK    5  A    between atoms: C_10  and  C_12
REMARK    6  A    between atoms: C_12  and  C_13
REMARK    7  A    between atoms: S_19  and  N_22
REMARK                            x       y       z     vdW  Elec       q    Type
REMARK                         _______ _______ _______ _____ _____    ______ ____
ROOT
ATOM      1  C   UNL     1       1.206   1.236  -0.172  0.00  0.00    +0.044 C 
ATOM      2  C   UNL     1       0.577  -0.131  -0.084  0.00  0.00    -0.044 A 
ATOM      3  C   UNL     1      -0.027  -0.686  -1.198  0.00  0.00    +0.032 A 
ATOM      4  C   UNL     1      -0.605  -1.940  -1.122  0.00  0.00    +0.107 A 
ATOM      5  C   UNL     1      -0.580  -2.642   0.067  0.00  0.00    +0.052 A 
ATOM      6  C   UNL     1       0.026  -2.088   1.187  0.00  0.00    +0.038 A 
ATOM      7  C   UNL     1       0.610  -0.831   1.106  0.00  0.00    -0.026 A 
ATOM      8  C   UNL     1       1.274  -0.228   2.317  0.00  0.00    +0.046 C 
ENDROOT
BRANCH   6   9
ATOM      9  N   UNL     1       0.052  -2.797   2.393  0.00  0.00    -0.285 N 
ATOM     10  C   UNL     1      -0.031  -4.143   2.385  0.00  0.00    +0.217 C 
ATOM     11  O   UNL     1      -0.028  -4.745   1.333  0.00  0.00    -0.275 OA
ATOM     12  H   UNL     1       0.130  -2.321   3.234  0.00  0.00    +0.155 HD
BRANCH  10  13
ATOM     13  C   UNL     1      -0.129  -4.898   3.686  0.00  0.00    +0.099 C 
BRANCH  13  14
ATOM     14  C   UNL     1      -0.211  -6.399   3.398  0.00  0.00    -0.002 C 
ATOM     15  C   UNL     1       1.095  -6.867   2.754  0.00  0.00    +0.004 C 
ATOM     16  C   UNL     1       1.013  -8.368   2.467  0.00  0.00    +0.000 C 
ATOM     17  C   UNL     1       0.789  -9.126   3.777  0.00  0.00    +0.000 C 
ATOM     18  C   UNL     1      -0.517  -8.658   4.420  0.00  0.00    +0.000 C 
ATOM     19  C   UNL     1      -0.435  -7.157   4.708  0.00  0.00    +0.004 C 
ENDBRANCH  13  14
ENDBRANCH  10  13
ENDBRANCH   6   9
BRANCH   4  20
ATOM     20  S   UNL     1      -1.374  -2.642  -2.544  0.00  0.00    +0.056 S 
ATOM     21  O   UNL     1      -2.317  -3.591  -2.067  0.00  0.00    -0.153 OA
ATOM     22  O   UNL     1      -1.743  -1.556  -3.383  0.00  0.00    -0.153 OA
BRANCH  20  23
ATOM     23  N   UNL     1      -0.212  -3.496  -3.357  0.00  0.00    -0.204 NA
ATOM     24  H   UNL     1      -0.459  -4.277  -3.877  0.00  0.00    +0.144 HD
ATOM     25  H   UNL     1       0.716  -3.216  -3.314  0.00  0.00    +0.144 HD
ENDBRANCH  20  23
ENDBRANCH   4  20
TORSDOF 5
