REMARK  Name = ZINC19201498
REMARK  5 active torsions:
REMARK  status: ('A' for Active; 'I' for Inactive)
REMARK    1  A    between atoms: C_1  and  C_2
REMARK    2  A    between atoms: C_3  and  C_12
REMARK    3  A    between atoms: C_18  and  C_20
REMARK    4  A    between atoms: C_20  and  C_21
REMARK    5  A    between atoms: C_24  and  C_26
REMARK                            x       y       z     vdW  Elec       q    Type
REMARK                         _______ _______ _______ _____ _____    ______ ____
ROOT
ATOM      1  C   UNL     1       3.624   0.926  -0.025  0.00  0.00    +0.082 A 
ATOM      2  C   UNL     1       4.249   2.136  -0.133  0.00  0.00    +0.077 A 
ATOM      3  S   UNL     1       5.962   1.631  -0.090  0.00  0.00    -0.060 S 
ATOM      4  C   UNL     1       5.694  -0.078   0.052  0.00  0.00    +0.165 A 
ATOM      5  N   UNL     1       4.380  -0.160   0.062  0.00  0.00    -0.225 NA
ATOM      6  N   UNL     1       6.630  -1.102   0.135  0.00  0.00    -0.264 N 
ATOM      7  C   UNL     1       7.947  -0.815   0.108  0.00  0.00    +0.224 C 
ATOM      8  O   UNL     1       8.315   0.337   0.011  0.00  0.00    -0.275 OA
ATOM      9  H   UNL     1       6.297  -2.146   0.223  0.00  0.00    +0.157 HD
ENDROOT
BRANCH   1  12
ATOM     10  C   UNL     1       1.926  -0.765   1.954  0.00  0.00    +0.064 C 
ATOM     11  C   UNL     1       1.388   0.097   0.841  0.00  0.00    +0.023 A 
ATOM     12  C   UNL     1       2.143   0.828  -0.013  0.00  0.00    +0.029 A 
ATOM     13  C   UNL     1       1.211   1.507  -0.927  0.00  0.00    +0.009 A 
ATOM     14  C   UNL     1       1.374   2.381  -2.002  0.00  0.00    +0.010 A 
ATOM     15  C   UNL     1       0.276   2.850  -2.667  0.00  0.00    +0.001 A 
ATOM     16  C   UNL     1      -1.000   2.464  -2.282  0.00  0.00    +0.002 A 
ATOM     17  C   UNL     1      -1.182   1.602  -1.223  0.00  0.00    +0.026 A 
ATOM     18  C   UNL     1      -0.078   1.112  -0.532  0.00  0.00    +0.047 A 
ATOM     19  N   UNL     1       0.063   0.259   0.540  0.00  0.00    -0.358 N 
ATOM     20  H   UNL     1      -0.703  -0.263   1.133  0.00  0.00    +0.166 HD
ENDBRANCH   1  12
BRANCH   7  21
ATOM     21  C   UNL     1       8.962  -1.925   0.198  0.00  0.00    +0.152 C 
BRANCH  21  22
ATOM     22  C   UNL     1      10.351  -1.341   0.145  0.00  0.00    +0.058 A 
ATOM     23  C   UNL     1      11.240  -1.613   1.135  0.00  0.00    +0.071 A 
ATOM     24  S   UNL     1      12.662  -0.691   0.564  0.00  0.00    -0.075 S 
ATOM     25  C   UNL     1      11.916  -0.038  -0.924  0.00  0.00    +0.109 A 
ATOM     26  N   UNL     1      10.701  -0.564  -0.855  0.00  0.00    -0.243 NA
BRANCH  25  27
ATOM     27  C   UNL     1      12.497   0.849  -1.953  0.00  0.00    +0.014 A 
ATOM     28  C   UNL     1      13.810   1.302  -1.846  0.00  0.00    +0.018 A 
ATOM     29  C   UNL     1      14.306   2.111  -2.808  0.00  0.00    +0.046 A 
ATOM     30  S   UNL     1      12.920   2.271  -3.921  0.00  0.00    -0.104 S 
ATOM     31  C   UNL     1      11.760   1.241  -3.039  0.00  0.00    +0.055 A 
ENDBRANCH  25  27
ENDBRANCH  21  22
ENDBRANCH   7  21
TORSDOF 4
