REMARK  Name = ZINC12545471
REMARK  6 active torsions:
REMARK  status: ('A' for Active; 'I' for Inactive)
REMARK    1  A    between atoms: C_1  and  C_2
REMARK    2  A    between atoms: C_11  and  N_32
REMARK    3  A    between atoms: C_13  and  S_15
REMARK    4  A    between atoms: S_15  and  C_16
REMARK    5  A    between atoms: C_16  and  C_17
REMARK    6  A    between atoms: C_23  and  C_26
REMARK                            x       y       z     vdW  Elec       q    Type
REMARK                         _______ _______ _______ _____ _____    ______ ____
ROOT
ATOM      1  C   UNL     1      -0.803   5.624   2.081  0.00  0.00    +0.008 C 
ATOM      2  C   UNL     1      -0.891   4.110   1.883  0.00  0.00    -0.009 C 
ATOM      3  C   UNL     1      -1.917   3.793   0.791  0.00  0.00    +0.008 C 
ATOM      4  C   UNL     1      -2.192   2.291   0.753  0.00  0.00    +0.037 C 
ATOM      5  C   UNL     1      -0.864   1.545   0.645  0.00  0.00    -0.025 A 
ATOM      6  C   UNL     1       0.297   2.161   0.962  0.00  0.00    -0.004 A 
ATOM      7  S   UNL     1       1.561   0.945   0.686  0.00  0.00    -0.073 S 
ATOM      8  C   UNL     1       0.535  -0.385   0.148  0.00  0.00    +0.115 A 
ATOM      9  C   UNL     1      -0.771   0.164   0.200  0.00  0.00    +0.051 A 
ATOM     10  C   UNL     1      -1.845  -0.688  -0.188  0.00  0.00    +0.129 A 
ATOM     11  N   UNL     1      -1.507  -1.920  -0.559  0.00  0.00    -0.207 NA
ATOM     12  C   UNL     1      -0.261  -2.369  -0.583  0.00  0.00    +0.191 A 
ATOM     13  N   UNL     1       0.788  -1.621  -0.234  0.00  0.00    -0.215 NA
ATOM     14  C   UNL     1       0.476   3.567   1.444  0.00  0.00    +0.046 C 
ENDROOT
BRANCH  10  15
ATOM     15  N   UNL     1      -3.161  -0.260  -0.176  0.00  0.00    -0.343 N 
ATOM     16  H   UNL     1      -3.837  -0.760  -0.659  0.00  0.00    +0.144 HD
ATOM     17  H   UNL     1      -3.406   0.539   0.315  0.00  0.00    +0.144 HD
ENDBRANCH  10  15
BRANCH  12  18
ATOM     18  S   UNL     1       0.025  -4.029  -1.101  0.00  0.00    -0.084 S 
BRANCH  18  19
ATOM     19  C   UNL     1      -1.675  -4.549  -1.440  0.00  0.00    +0.103 C 
BRANCH  19  20
ATOM     20  C   UNL     1      -1.678  -6.002  -1.919  0.00  0.00    +0.112 C 
ATOM     21  C   UNL     1      -0.860  -6.091  -3.218  0.00  0.00    +0.103 C 
ATOM     22  S   UNL     1      -2.114  -6.756  -4.378  0.00  0.00    -0.084 S 
ATOM     23  C   UNL     1      -3.494  -6.881  -3.267  0.00  0.00    +0.192 A 
ATOM     24  N   UNL     1      -3.061  -6.445  -2.053  0.00  0.00    -0.297 N 
ATOM     25  C   UNL     1      -4.182  -6.567  -1.234  0.00  0.00    +0.167 A 
ATOM     26  N   UNL     1      -5.158  -7.040  -1.966  0.00  0.00    -0.128 NA
ATOM     27  N   UNL     1      -4.751  -7.227  -3.171  0.00  0.00    -0.122 NA
BRANCH  25  28
ATOM     28  C   UNL     1      -4.255  -6.225   0.203  0.00  0.00    +0.037 A 
ATOM     29  C   UNL     1      -3.087  -6.080   0.961  0.00  0.00    +0.014 A 
ATOM     30  C   UNL     1      -3.210  -5.753   2.299  0.00  0.00    +0.020 A 
ATOM     31  C   UNL     1      -4.471  -5.593   2.844  0.00  0.00    +0.111 A 
ATOM     32  N   UNL     1      -5.555  -5.741   2.107  0.00  0.00    -0.263 NA
ATOM     33  C   UNL     1      -5.490  -6.046   0.828  0.00  0.00    +0.122 A 
ENDBRANCH  25  28
ENDBRANCH  19  20
ENDBRANCH  18  19
ENDBRANCH  12  18
TORSDOF 5
