REMARK  Name = ZINC45512665
REMARK  5 active torsions:
REMARK  status: ('A' for Active; 'I' for Inactive)
REMARK    1  A    between atoms: C_1  and  C_2
REMARK    2  A    between atoms: C_2  and  C_4
REMARK    3  A    between atoms: C_2  and  N_20
REMARK    4  A    between atoms: N_9  and  C_10
REMARK    5  A    between atoms: C_23  and  N_26
REMARK                            x       y       z     vdW  Elec       q    Type
REMARK                         _______ _______ _______ _____ _____    ______ ____
ROOT
ATOM      1  C   UNL     1      -0.692   1.314  -0.348  0.00  0.00    -0.004 C 
ATOM      2  C   UNL     1       0.002  -0.004   0.002  0.00  0.00    +0.017 C 
ENDROOT
BRANCH   2   3
ATOM      3  C   UNL     1       0.605  -0.601  -1.244  0.00  0.00    +0.207 C 
ATOM      4  O   UNL     1      -0.028  -1.398  -1.901  0.00  0.00    -0.277 OA
ATOM      5  N   UNL     1       1.848  -0.247  -1.626  0.00  0.00    -0.242 N 
ATOM      6  C   UNL     1       2.388  -0.781  -2.740  0.00  0.00    +0.306 C 
ATOM      7  O   UNL     1       1.753  -1.581  -3.400  0.00  0.00    -0.252 OA
ATOM      8  N   UNL     1       3.631  -0.427  -3.123  0.00  0.00    -0.294 N 
ATOM      9  H   UNL     1       2.355   0.391  -1.100  0.00  0.00    +0.159 HD
ATOM     10  H   UNL     1       4.137   0.211  -2.597  0.00  0.00    +0.151 HD
BRANCH   8  11
ATOM     11  C   UNL     1       4.217  -1.007  -4.334  0.00  0.00    +0.037 C 
ATOM     12  C   UNL     1       4.294  -2.528  -4.185  0.00  0.00    +0.029 C 
ATOM     13  C   UNL     1       4.906  -3.134  -5.450  0.00  0.00    -0.008 C 
ATOM     14  C   UNL     1       6.313  -2.569  -5.656  0.00  0.00    +0.007 C 
ATOM     15  C   UNL     1       6.236  -1.049  -5.805  0.00  0.00    -0.008 C 
ATOM     16  C   UNL     1       5.624  -0.443  -4.540  0.00  0.00    +0.029 C 
ATOM     17  C   UNL     1       5.364  -0.698  -7.012  0.00  0.00    +0.007 C 
ATOM     18  C   UNL     1       3.957  -1.262  -6.806  0.00  0.00    -0.008 C 
ATOM     19  C   UNL     1       4.034  -2.783  -6.657  0.00  0.00    +0.007 C 
ATOM     20  C   UNL     1       3.345  -0.657  -5.541  0.00  0.00    +0.029 C 
ENDBRANCH   8  11
ENDBRANCH   2   3
BRANCH   2  21
ATOM     21  N   UNL     1      -0.980  -0.939   0.567  0.00  0.00    +0.387 N 
ATOM     22  C   UNL     1      -1.598  -0.339   1.755  0.00  0.00    -0.076 C 
ATOM     23  C   UNL     1      -2.679  -1.274   2.301  0.00  0.00    +0.006 C 
ATOM     24  C   UNL     1      -2.043  -2.616   2.676  0.00  0.00    +0.089 C 
ATOM     25  C   UNL     1      -1.338  -3.198   1.448  0.00  0.00    +0.006 C 
ATOM     26  C   UNL     1      -0.307  -2.191   0.934  0.00  0.00    -0.076 C 
ATOM     27  H   UNL     1      -1.694  -1.131  -0.120  0.00  0.00    -0.081 HD
BRANCH  24  28
ATOM     28  N   UNL     1      -3.084  -3.542   3.128  0.00  0.00    -0.289 N 
ATOM     29  C   UNL     1      -3.157  -4.138   4.385  0.00  0.00    +0.070 A 
ATOM     30  C   UNL     1      -2.359  -4.069   5.517  0.00  0.00    +0.028 A 
ATOM     31  C   UNL     1      -2.699  -4.795   6.642  0.00  0.00    +0.002 A 
ATOM     32  C   UNL     1      -3.832  -5.591   6.643  0.00  0.00    +0.002 A 
ATOM     33  C   UNL     1      -4.632  -5.666   5.520  0.00  0.00    +0.028 A 
ATOM     34  C   UNL     1      -4.299  -4.940   4.386  0.00  0.00    +0.067 A 
ATOM     35  N   UNL     1      -4.886  -4.807   3.130  0.00  0.00    -0.306 N 
ATOM     36  H   UNL     1      -5.698  -5.248   2.833  0.00  0.00    +0.170 HD
ATOM     37  C   UNL     1      -4.138  -3.958   2.400  0.00  0.00    +0.328 A 
ATOM     38  O   UNL     1      -4.376  -3.621   1.256  0.00  0.00    -0.247 OA
ENDBRANCH  24  28
ENDBRANCH   2  21
TORSDOF 4
