REMARK  Name = ZINC59791187
REMARK  8 active torsions:
REMARK  status: ('A' for Active; 'I' for Inactive)
REMARK    1  A    between atoms: C_3  and  N_26
REMARK    2  A    between atoms: C_6  and  C_7
REMARK    3  A    between atoms: C_10  and  S_13
REMARK    4  A    between atoms: N_11  and  N_12
REMARK    5  A    between atoms: S_13  and  C_14
REMARK    6  A    between atoms: C_14  and  C_15
REMARK    7  A    between atoms: N_17  and  N_18
REMARK    8  A    between atoms: N_18  and  C_19
REMARK                            x       y       z     vdW  Elec       q    Type
REMARK                         _______ _______ _______ _____ _____    ______ ____
ROOT
ATOM      1  C   UNL     1      -1.266  -0.764   0.011  0.00  0.00    +0.182 A 
ATOM      2  N   UNL     1      -2.457  -0.290   0.293  0.00  0.00    -0.127 NA
ATOM      3  N   UNL     1      -3.334  -1.226   0.203  0.00  0.00    -0.121 NA
ATOM      4  C   UNL     1      -2.756  -2.355  -0.141  0.00  0.00    +0.209 A 
ATOM      5  N   UNL     1      -1.421  -2.099  -0.281  0.00  0.00    -0.224 N 
ENDROOT
BRANCH   1  11
ATOM      6  C   UNL     1      -0.017   1.391   0.010  0.00  0.00    +0.014 A 
ATOM      7  C   UNL     1       1.170   2.095   0.002  0.00  0.00    +0.033 A 
ATOM      8  C   UNL     1       2.378   1.419  -0.013  0.00  0.00    +0.126 A 
ATOM      9  C   UNL     1       2.403   0.036  -0.021  0.00  0.00    +0.033 A 
ATOM     10  C   UNL     1       1.224  -0.679  -0.014  0.00  0.00    +0.014 A 
ATOM     11  C   UNL     1       0.002  -0.004   0.002  0.00  0.00    +0.021 A 
BRANCH   8  12
ATOM     12  N   UNL     1       3.648   2.180  -0.021  0.00  0.00    +0.056 N 
ATOM     13  O   UNL     1       3.628   3.389  -0.014  0.00  0.00    -0.126 OA
ATOM     14  O   UNL     1       4.704   1.592  -0.034  0.00  0.00    -0.126 OA
ENDBRANCH   8  12
ENDBRANCH   1  11
BRANCH   5  15
ATOM     15  N   UNL     1      -0.444  -2.986  -0.635  0.00  0.00    -0.295 N 
ATOM     16  H   UNL     1      -0.051  -3.435   0.179  0.00  0.00    +0.163 HD
ATOM     17  H   UNL     1      -0.795  -3.668  -1.290  0.00  0.00    +0.163 HD
ENDBRANCH   5  15
BRANCH   4  18
ATOM     18  S   UNL     1      -3.554  -3.906  -0.385  0.00  0.00    -0.075 S 
BRANCH  18  19
ATOM     19  C   UNL     1      -5.303  -3.557  -0.051  0.00  0.00    +0.174 C 
BRANCH  19  20
ATOM     20  C   UNL     1      -6.109  -4.818  -0.226  0.00  0.00    +0.239 C 
ATOM     21  O   UNL     1      -5.558  -5.851  -0.544  0.00  0.00    -0.273 OA
ATOM     22  N   UNL     1      -7.442  -4.799  -0.029  0.00  0.00    -0.236 N 
ATOM     23  H   UNL     1      -7.883  -3.973   0.225  0.00  0.00    +0.173 HD
BRANCH  22  24
ATOM     24  N   UNL     1      -8.191  -5.971  -0.192  0.00  0.00    -0.264 N 
ATOM     25  H   UNL     1      -7.751  -6.797  -0.446  0.00  0.00    +0.170 HD
BRANCH  24  26
ATOM     26  C   UNL     1      -9.574  -5.951   0.013  0.00  0.00    +0.044 A 
ATOM     27  C   UNL     1     -10.207  -4.767   0.371  0.00  0.00    +0.026 A 
ATOM     28  C   UNL     1     -11.573  -4.750   0.572  0.00  0.00    +0.022 A 
ATOM     29  C   UNL     1     -12.311  -5.910   0.416  0.00  0.00    +0.041 A 
ATOM     30  C   UNL     1     -11.683  -7.090   0.059  0.00  0.00    +0.022 A 
ATOM     31  C   UNL     1     -10.318  -7.112  -0.148  0.00  0.00    +0.026 A 
ATOM     32 CL   UNL     1     -14.028  -5.885   0.670  0.00  0.00    -0.084 Cl
ENDBRANCH  24  26
ENDBRANCH  22  24
ENDBRANCH  19  20
ENDBRANCH  18  19
ENDBRANCH   4  18
TORSDOF 8
