REMARK  Name = ZINC36206500
REMARK  14 active torsions:
REMARK  status: ('A' for Active; 'I' for Inactive)
REMARK    1  A    between atoms: C_1  and  C_2
REMARK    2  A    between atoms: C_5  and  C_36
REMARK    3  A    between atoms: C_6  and  C_8
REMARK    4  A    between atoms: C_17  and  C_19
REMARK    5  A    between atoms: C_19  and  N_20
REMARK    6  A    between atoms: N_20  and  C_21
REMARK    7  A    between atoms: N_20  and  C_25
REMARK    8  A    between atoms: C_21  and  C_22
REMARK    9  A    between atoms: C_22  and  O_23
REMARK   10  A    between atoms: O_23  and  C_24
REMARK   11  A    between atoms: C_25  and  C_26
REMARK   12  A    between atoms: C_26  and  C_28
REMARK   13  A    between atoms: C_26  and  O_35
REMARK   14  A    between atoms: C_28  and  C_29
REMARK                            x       y       z     vdW  Elec       q    Type
REMARK                         _______ _______ _______ _____ _____    ______ ____
ROOT
ATOM      1  C   UNL     1       4.740 -10.592   0.872  0.00  0.00    +0.004 A 
ATOM      2  C   UNL     1       4.263 -11.742   1.407  0.00  0.00    +0.056 A 
ATOM      3  S   UNL     1       3.701 -11.243   3.023  0.00  0.00    -0.076 S 
ATOM      4  C   UNL     1       4.114  -9.520   2.944  0.00  0.00    +0.116 A 
ATOM      5  C   UNL     1       4.684  -9.372   1.669  0.00  0.00    +0.080 A 
ATOM      6  C   UNL     1       5.121  -8.051   1.335  0.00  0.00    +0.260 A 
ATOM      7  O   UNL     1       5.624  -7.822   0.248  0.00  0.00    -0.267 OA
ATOM      8  N   UNL     1       4.967  -7.065   2.238  0.00  0.00    -0.312 N 
ATOM      9  H   UNL     1       5.261  -6.167   2.016  0.00  0.00    +0.170 HD
ATOM     10  C   UNL     1       4.409  -7.301   3.452  0.00  0.00    +0.094 A 
ATOM     11  N   UNL     1       3.992  -8.494   3.783  0.00  0.00    -0.229 NA
ENDROOT
BRANCH   1  17
ATOM     12  C   UNL     1       4.166 -11.118  -4.059  0.00  0.00    +0.044 C 
ATOM     13  C   UNL     1       5.041 -10.828  -2.867  0.00  0.00    -0.050 A 
ATOM     14  C   UNL     1       6.383 -10.545  -3.048  0.00  0.00    +0.003 A 
ATOM     15  C   UNL     1       7.192 -10.278  -1.959  0.00  0.00    +0.004 A 
ATOM     16  C   UNL     1       6.665 -10.292  -0.684  0.00  0.00    -0.043 A 
ATOM     17  C   UNL     1       5.313 -10.575  -0.495  0.00  0.00    -0.013 A 
ATOM     18  C   UNL     1       4.501 -10.838  -1.597  0.00  0.00    +0.012 A 
ATOM     19  C   UNL     1       7.548 -10.001   0.502  0.00  0.00    +0.044 C 
ENDBRANCH   1  17
BRANCH  10  20
ATOM     20  C   UNL     1       4.257  -6.166   4.432  0.00  0.00    -0.003 C 
BRANCH  20  21
ATOM     21  N   UNL     1       3.744  -6.685   5.707  0.00  0.00    +0.388 N 
ATOM     22  H   UNL     1       2.901  -7.214   5.540  0.00  0.00    -0.081 HD
BRANCH  21  23
ATOM     23  C   UNL     1       3.448  -5.563   6.608  0.00  0.00    -0.050 C 
BRANCH  23  24
ATOM     24  C   UNL     1       2.291  -4.742   6.036  0.00  0.00    +0.141 C 
BRANCH  24  25
ATOM     25  O   UNL     1       1.107  -5.542   6.008  0.00  0.00    -0.385 OA
ATOM     26  C   UNL     1      -0.024  -4.886   5.429  0.00  0.00    +0.193 C 
ENDBRANCH  24  25
ENDBRANCH  23  24
ENDBRANCH  21  23
BRANCH  21  27
ATOM     27  C   UNL     1       4.754  -7.555   6.324  0.00  0.00    -0.046 C 
BRANCH  27  28
ATOM     28  C   UNL     1       4.175  -8.193   7.588  0.00  0.00    +0.102 C 
BRANCH  28  29
ATOM     29  O   UNL     1       3.096  -9.060   7.231  0.00  0.00    -0.393 OA
ATOM     30  H   UNL     1       3.350  -9.780   6.638  0.00  0.00    +0.210 HD
ENDBRANCH  28  29
BRANCH  28  31
ATOM     31  C   UNL     1       5.264  -8.999   8.298  0.00  0.00    +0.064 C 
BRANCH  31  32
ATOM     32  C   UNL     1       4.728  -9.526   9.604  0.00  0.00    -0.045 A 
ATOM     33  C   UNL     1       4.851  -8.772  10.756  0.00  0.00    +0.004 A 
ATOM     34  C   UNL     1       4.360  -9.256  11.954  0.00  0.00    +0.000 A 
ATOM     35  C   UNL     1       3.744 -10.493  12.000  0.00  0.00    +0.000 A 
ATOM     36  C   UNL     1       3.621 -11.246  10.848  0.00  0.00    +0.000 A 
ATOM     37  C   UNL     1       4.108 -10.761   9.649  0.00  0.00    +0.004 A 
ENDBRANCH  31  32
ENDBRANCH  28  31
ENDBRANCH  27  28
ENDBRANCH  21  27
ENDBRANCH  20  21
ENDBRANCH  10  20
TORSDOF 11
