REMARK  Name = ZINC67459816
REMARK  6 active torsions:
REMARK  status: ('A' for Active; 'I' for Inactive)
REMARK    1  A    between atoms: C_1  and  C_2
REMARK    2  A    between atoms: C_5  and  C_28
REMARK    3  A    between atoms: C_6  and  C_8
REMARK    4  A    between atoms: C_12  and  O_14
REMARK    5  A    between atoms: C_21  and  O_26
REMARK    6  A    between atoms: O_26  and  C_27
REMARK                            x       y       z     vdW  Elec       q    Type
REMARK                         _______ _______ _______ _____ _____    ______ ____
ROOT
ATOM      1  C   UNL     1      -0.084  -1.687   2.320  0.00  0.00    +0.006 A 
ATOM      2  C   UNL     1       0.416  -1.482   3.603  0.00  0.00    +0.019 A 
ATOM      3  C   UNL     1       0.192  -2.416   4.598  0.00  0.00    +0.016 A 
ATOM      4  C   UNL     1      -0.516  -3.574   4.329  0.00  0.00    +0.166 A 
ATOM      5  C   UNL     1      -1.035  -3.770   3.041  0.00  0.00    +0.159 A 
ATOM      6  C   UNL     1      -0.825  -2.836   2.048  0.00  0.00    +0.059 A 
ATOM      7  O   UNL     1      -0.720  -4.582   5.223  0.00  0.00    -0.486 OA
ATOM      8  C   UNL     1      -0.811  -4.287   6.616  0.00  0.00    +0.248 C 
ATOM      9  C   UNL     1       0.607  -4.314   7.223  0.00  0.00    +0.148 C 
ATOM     10  N   UNL     1       1.399  -3.326   6.497  0.00  0.00    -0.303 N 
ATOM     11  C   UNL     1       0.712  -2.140   5.982  0.00  0.00    +0.145 C 
ATOM     12  C   UNL     1       2.766  -3.504   6.302  0.00  0.00    +0.184 A 
ATOM     13  C   UNL     1       3.433  -4.562   6.931  0.00  0.00    +0.256 A 
ATOM     14  N   UNL     1       4.731  -4.725   6.741  0.00  0.00    -0.217 NA
ATOM     15  C   UNL     1       5.396  -3.890   5.957  0.00  0.00    +0.134 A 
ATOM     16  C   UNL     1       4.740  -2.847   5.337  0.00  0.00    +0.133 A 
ATOM     17  N   UNL     1       3.438  -2.678   5.516  0.00  0.00    -0.234 NA
ENDROOT
BRANCH   1  23
ATOM     18  C   UNL     1      -1.715   0.999  -1.421  0.00  0.00    +0.067 C 
ATOM     19  C   UNL     1      -0.596   0.575  -0.504  0.00  0.00    +0.057 A 
ATOM     20  C   UNL     1       0.667   1.119  -0.659  0.00  0.00    +0.134 A 
ATOM     21  N   UNL     1       1.653   0.752   0.141  0.00  0.00    -0.256 NA
ATOM     22  C   UNL     1       1.437  -0.137   1.093  0.00  0.00    +0.064 A 
ATOM     23  C   UNL     1       0.165  -0.688   1.253  0.00  0.00    +0.092 A 
ATOM     24  N   UNL     1      -0.824  -0.311   0.448  0.00  0.00    -0.249 NA
ATOM     25  C   UNL     1       2.561  -0.555   2.005  0.00  0.00    +0.068 C 
ENDBRANCH   1  23
BRANCH   5  26
ATOM     26  O   UNL     1      -1.757  -4.890   2.769  0.00  0.00    -0.503 OA
ATOM     27  H   UNL     1      -2.706  -4.793   2.925  0.00  0.00    +0.292 HD
ENDBRANCH   5  26
BRANCH  13  28
ATOM     28  O   UNL     1       2.750  -5.417   7.735  0.00  0.00    -0.477 OA
ATOM     29  C   UNL     1       3.497  -6.472   8.344  0.00  0.00    +0.279 C 
ENDBRANCH  13  28
TORSDOF 3
