REMARK  Name = ZINC13617667
REMARK  4 active torsions:
REMARK  status: ('A' for Active; 'I' for Inactive)
REMARK    1  A    between atoms: C_9  and  C_12
REMARK    2  A    between atoms: N_14  and  N_15
REMARK    3  A    between atoms: C_16  and  C_17
REMARK    4  A    between atoms: C_22  and  O_23
REMARK                            x       y       z     vdW  Elec       q    Type
REMARK                         _______ _______ _______ _____ _____    ______ ____
ROOT
ATOM      1  C   UNL     1      -1.827   7.213  -0.986  0.00  0.00    +0.276 C 
ATOM      2  O   UNL     1      -0.726   7.596  -1.324  0.00  0.00    -0.270 OA
ATOM      3  N   UNL     1      -2.718   8.087  -0.477  0.00  0.00    -0.204 N 
ATOM      4  H   UNL     1      -3.598   7.780  -0.207  0.00  0.00    +0.177 HD
ENDROOT
BRANCH   1  13
ATOM      5  C   UNL     1      -1.768   1.208  -3.041  0.00  0.00    +0.004 A 
ATOM      6  C   UNL     1      -0.487   1.599  -2.698  0.00  0.00    +0.004 A 
ATOM      7  C   UNL     1      -0.257   2.874  -2.218  0.00  0.00    +0.049 A 
ATOM      8  C   UNL     1      -1.311   3.765  -2.079  0.00  0.00    +0.163 A 
ATOM      9  C   UNL     1      -2.599   3.371  -2.421  0.00  0.00    +0.162 A 
ATOM     10  C   UNL     1      -2.822   2.092  -2.909  0.00  0.00    +0.049 A 
ATOM     11  O   UNL     1      -3.648   4.228  -2.288  0.00  0.00    -0.484 OA
ATOM     12  C   UNL     1      -3.331   5.618  -2.161  0.00  0.00    +0.283 C 
ATOM     13  C   UNL     1      -2.197   5.760  -1.136  0.00  0.00    +0.297 C 
ATOM     14  O   UNL     1      -1.068   5.020  -1.611  0.00  0.00    -0.472 OA
ENDBRANCH   1  13
BRANCH   3  15
ATOM     15  N   UNL     1      -2.373   9.437  -0.338  0.00  0.00    -0.187 NA
ATOM     16  C   UNL     1      -3.189  10.258   0.251  0.00  0.00    +0.142 C 
BRANCH  16  17
ATOM     17  C   UNL     1      -4.350   9.737   0.993  0.00  0.00    +0.037 A 
ATOM     18  C   UNL     1      -4.318   8.448   1.532  0.00  0.00    +0.028 A 
ATOM     19  C   UNL     1      -5.407   7.969   2.231  0.00  0.00    +0.019 A 
ATOM     20  C   UNL     1      -6.536   8.756   2.391  0.00  0.00    +0.019 A 
ATOM     21  C   UNL     1      -6.580  10.030   1.858  0.00  0.00    +0.047 A 
ATOM     22  C   UNL     1      -5.494  10.529   1.159  0.00  0.00    +0.126 A 
ATOM     23 BR   UNL     1      -5.361   6.227   2.966  0.00  0.00    -0.050 Br
BRANCH  22  24
ATOM     24  O   UNL     1      -5.537  11.782   0.635  0.00  0.00    -0.506 OA
ATOM     25  H   UNL     1      -5.811  11.811  -0.292  0.00  0.00    +0.292 HD
ENDBRANCH  22  24
ENDBRANCH  16  17
ENDBRANCH   3  15
TORSDOF 4
