REMARK  Name = ZINC35613560
REMARK  10 active torsions:
REMARK  status: ('A' for Active; 'I' for Inactive)
REMARK    1  A    between atoms: C_1  and  C_2
REMARK    2  A    between atoms: N_6  and  C_20
REMARK    3  A    between atoms: C_7  and  C_10
REMARK    4  A    between atoms: C_13  and  C_16
REMARK    5  A    between atoms: C_16  and  C_17
REMARK    6  A    between atoms: C_16  and  C_18
REMARK    7  A    between atoms: C_16  and  C_19
REMARK    8  A    between atoms: C_20  and  C_21
REMARK    9  A    between atoms: C_21  and  N_22
REMARK   10  A    between atoms: C_28  and  C_30
REMARK                            x       y       z     vdW  Elec       q    Type
REMARK                         _______ _______ _______ _____ _____    ______ ____
ROOT
ATOM      1  C   UNL     1       2.324  -1.026   1.000  0.00  0.00    +0.029 C 
ATOM      2  C   UNL     1       1.871  -2.480   1.151  0.00  0.00    +0.131 C 
ATOM      3  C   UNL     1       0.372  -2.613   0.941  0.00  0.00    +0.229 C 
ATOM      4  O   UNL     1      -0.179  -2.095  -0.008  0.00  0.00    -0.274 OA
ATOM      5  N   UNL     1      -0.313  -3.317   1.833  0.00  0.00    -0.283 N 
ATOM      6  C   UNL     1       0.401  -3.933   2.967  0.00  0.00    +0.165 C 
ATOM      7  S   UNL     1       2.019  -3.047   2.900  0.00  0.00    -0.121 S 
ENDROOT
BRANCH   6   8
ATOM      8  C   UNL     1      -0.312  -3.663   4.267  0.00  0.00    -0.017 A 
ATOM      9  C   UNL     1      -1.051  -2.506   4.423  0.00  0.00    +0.006 A 
ATOM     10  C   UNL     1      -1.705  -2.259   5.615  0.00  0.00    +0.004 A 
ATOM     11  C   UNL     1      -1.621  -3.170   6.652  0.00  0.00    -0.042 A 
ATOM     12  C   UNL     1      -0.882  -4.327   6.495  0.00  0.00    +0.004 A 
ATOM     13  C   UNL     1      -0.231  -4.577   5.301  0.00  0.00    +0.006 A 
BRANCH  11  14
ATOM     14  C   UNL     1      -2.333  -2.900   7.952  0.00  0.00    -0.013 C 
ATOM     15  C   UNL     1      -3.835  -2.773   7.694  0.00  0.00    +0.015 C 
ATOM     16  C   UNL     1      -2.078  -4.055   8.922  0.00  0.00    +0.015 C 
ATOM     17  C   UNL     1      -1.808  -1.597   8.560  0.00  0.00    +0.015 C 
ENDBRANCH  11  14
ENDBRANCH   6   8
BRANCH   5  18
ATOM     18  C   UNL     1      -1.763  -3.479   1.694  0.00  0.00    +0.124 C 
BRANCH  18  19
ATOM     19  C   UNL     1      -2.058  -4.730   0.864  0.00  0.00    +0.103 C 
BRANCH  19  20
ATOM     20  N   UNL     1      -3.511  -4.893   0.725  0.00  0.00    -0.298 NA
ATOM     21  C   UNL     1      -4.137  -5.171   2.025  0.00  0.00    +0.103 C 
ATOM     22  C   UNL     1      -5.662  -5.154   1.868  0.00  0.00    +0.123 C 
ATOM     23  N   UNL     1      -6.030  -6.083   0.789  0.00  0.00    -0.295 N 
ATOM     24  C   UNL     1      -5.344  -5.954  -0.505  0.00  0.00    +0.123 C 
ATOM     25  C   UNL     1      -3.832  -5.939  -0.255  0.00  0.00    +0.103 C 
ATOM     26  C   UNL     1      -6.973  -7.027   0.981  0.00  0.00    +0.253 C 
ATOM     27  O   UNL     1      -7.445  -7.199   2.090  0.00  0.00    -0.269 OA
BRANCH  26  28
ATOM     28  C   UNL     1      -7.430  -7.846  -0.145  0.00  0.00    +0.074 A 
ATOM     29  C   UNL     1      -8.115  -9.052  -0.128  0.00  0.00    +0.021 A 
ATOM     30  C   UNL     1      -8.411  -9.588  -1.358  0.00  0.00    +0.008 A 
ATOM     31  C   UNL     1      -8.025  -8.925  -2.476  0.00  0.00    +0.046 A 
ATOM     32  S   UNL     1      -7.256  -7.549  -1.894  0.00  0.00    -0.092 S 
ENDBRANCH  26  28
ENDBRANCH  19  20
ENDBRANCH  18  19
ENDBRANCH   5  18
TORSDOF 6
