REMARK  Name = ZINC13728748
REMARK  6 active torsions:
REMARK  status: ('A' for Active; 'I' for Inactive)
REMARK    1  A    between atoms: C_1  and  C_2
REMARK    2  A    between atoms: C_2  and  C_35
REMARK    3  A    between atoms: C_8  and  O_19
REMARK    4  A    between atoms: O_19  and  C_20
REMARK    5  A    between atoms: C_20  and  C_21
REMARK    6  A    between atoms: C_21  and  N_23
REMARK                            x       y       z     vdW  Elec       q    Type
REMARK                         _______ _______ _______ _____ _____    ______ ____
ROOT
ATOM      1  C   UNL     1      -0.032   1.539   0.035  0.00  0.00    +0.055 C 
ATOM      2  C   UNL     1      -0.020   0.009   0.031  0.00  0.00    +0.105 C 
ATOM      3  C   UNL     1      -1.460  -0.519   0.083  0.00  0.00    +0.052 C 
ATOM      4  C   UNL     1      -1.416  -2.045  -0.033  0.00  0.00    +0.046 C 
ATOM      5  C   UNL     1      -0.391  -2.598   0.925  0.00  0.00    +0.038 A 
ATOM      6  C   UNL     1       0.594  -1.794   1.472  0.00  0.00    +0.131 A 
ATOM      7  C   UNL     1       1.534  -2.334   2.352  0.00  0.00    +0.092 A 
ATOM      8  C   UNL     1       1.492  -3.669   2.692  0.00  0.00    +0.136 A 
ATOM      9  C   UNL     1       0.491  -4.492   2.145  0.00  0.00    +0.063 A 
ATOM     10  C   UNL     1      -0.450  -3.946   1.255  0.00  0.00    +0.149 A 
ATOM     11  O   UNL     1      -1.410  -4.735   0.725  0.00  0.00    -0.421 OA
ATOM     12  C   UNL     1      -1.481  -6.039   1.038  0.00  0.00    +0.341 A 
ATOM     13  O   UNL     1      -2.356  -6.726   0.542  0.00  0.00    -0.245 OA
ATOM     14  C   UNL     1      -0.559  -6.629   1.930  0.00  0.00    +0.041 A 
ATOM     15  C   UNL     1       0.420  -5.869   2.483  0.00  0.00    -0.023 A 
ATOM     16  C   UNL     1       1.280  -6.708   3.401  0.00  0.00    +0.037 C 
ATOM     17  C   UNL     1       0.449  -7.979   3.678  0.00  0.00    +0.010 C 
ATOM     18  C   UNL     1      -0.449  -8.056   2.424  0.00  0.00    +0.043 C 
ATOM     19  O   UNL     1       0.675  -0.469   1.183  0.00  0.00    -0.486 OA
ATOM     20  C   UNL     1       0.670  -0.499  -1.236  0.00  0.00    +0.055 C 
ENDROOT
BRANCH   8  21
ATOM     21  O   UNL     1       2.410  -4.186   3.546  0.00  0.00    -0.482 OA
BRANCH  21  22
ATOM     22  C   UNL     1       3.397  -3.289   4.060  0.00  0.00    +0.326 C 
BRANCH  22  23
ATOM     23  C   UNL     1       4.323  -4.036   4.984  0.00  0.00    +0.276 C 
ATOM     24  O   UNL     1       4.155  -5.223   5.185  0.00  0.00    -0.270 OA
BRANCH  23  25
ATOM     25  N   UNL     1       5.324  -3.397   5.581  0.00  0.00    -0.154 NA
ATOM     26  C   UNL     1       6.078  -4.029   6.477  0.00  0.00    +0.164 A 
ATOM     27  N   UNL     1       6.040  -5.343   6.818  0.00  0.00    -0.335 N 
ATOM     28  H   UNL     1       5.406  -5.938   6.388  0.00  0.00    +0.168 HD
ATOM     29  C   UNL     1       6.906  -5.829   7.779  0.00  0.00    +0.055 A 
ATOM     30  C   UNL     1       7.036  -7.133   8.275  0.00  0.00    +0.027 A 
ATOM     31  C   UNL     1       7.969  -7.425   9.243  0.00  0.00    +0.002 A 
ATOM     32  C   UNL     1       8.803  -6.444   9.753  0.00  0.00    +0.001 A 
ATOM     33  C   UNL     1       8.696  -5.148   9.279  0.00  0.00    +0.017 A 
ATOM     34  C   UNL     1       7.764  -4.856   8.312  0.00  0.00    +0.039 A 
ATOM     35  S   UNL     1       7.297  -3.385   7.438  0.00  0.00    -0.052 S 
ENDBRANCH  23  25
ENDBRANCH  22  23
ENDBRANCH  21  22
ENDBRANCH   8  21
TORSDOF 4
