REMARK  Name = ZINC04199464
REMARK  10 active torsions:
REMARK  status: ('A' for Active; 'I' for Inactive)
REMARK    1  A    between atoms: C_1  and  C_2
REMARK    2  A    between atoms: C_2  and  C_34
REMARK    3  A    between atoms: N_5  and  C_9
REMARK    4  A    between atoms: C_6  and  O_8
REMARK    5  A    between atoms: C_9  and  C_10
REMARK    6  A    between atoms: C_10  and  C_12
REMARK    7  A    between atoms: C_10  and  O_33
REMARK    8  A    between atoms: C_12  and  O_13
REMARK    9  A    between atoms: O_13  and  C_14
REMARK   10  A    between atoms: C_17  and  N_20
REMARK                            x       y       z     vdW  Elec       q    Type
REMARK                         _______ _______ _______ _____ _____    ______ ____
ROOT
ATOM      1  C   UNL     1       7.078  -1.133  -3.719  0.00  0.00    +0.121 A 
ATOM      2  C   UNL     1       7.061  -2.438  -4.189  0.00  0.00    +0.047 A 
ATOM      3  C   UNL     1       8.075  -2.889  -5.011  0.00  0.00    +0.027 A 
ATOM      4  C   UNL     1       9.112  -2.037  -5.366  0.00  0.00    +0.044 A 
ATOM      5  C   UNL     1       9.128  -0.731  -4.896  0.00  0.00    +0.027 A 
ATOM      6  C   UNL     1       8.111  -0.279  -4.079  0.00  0.00    +0.047 A 
ENDROOT
BRANCH   4   7
ATOM      7  N   UNL     1      10.143  -2.495  -6.201  0.00  0.00    -0.210 N 
ATOM      8  C   UNL     1      10.185  -3.747  -6.696  0.00  0.00    +0.230 C 
ATOM      9  O   UNL     1       9.287  -4.561  -6.673  0.00  0.00    -0.274 OA
ATOM     10  C   UNL     1      11.586  -3.952  -7.297  0.00  0.00    +0.092 C 
ATOM     11  C   UNL     1      12.441  -4.460  -6.133  0.00  0.00    +0.040 C 
ATOM     12  C   UNL     1      13.849  -3.979  -6.181  0.00  0.00    -0.030 C 
ATOM     13  C   UNL     1      14.264  -2.978  -6.883  0.00  0.00    -0.030 C 
ATOM     14  C   UNL     1      13.377  -2.188  -7.792  0.00  0.00    +0.040 C 
ATOM     15  C   UNL     1      11.915  -2.490  -7.644  0.00  0.00    +0.092 C 
ATOM     16  C   UNL     1      11.180  -1.719  -6.586  0.00  0.00    +0.230 C 
ATOM     17  O   UNL     1      11.464  -0.620  -6.160  0.00  0.00    -0.274 OA
ENDBRANCH   4   7
BRANCH   1  18
ATOM     18  O   UNL     1       6.080  -0.688  -2.911  0.00  0.00    -0.489 OA
BRANCH  18  19
ATOM     19  C   UNL     1       5.049  -1.621  -2.581  0.00  0.00    +0.261 C 
BRANCH  19  20
ATOM     20  C   UNL     1       4.022  -0.945  -1.670  0.00  0.00    +0.170 C 
BRANCH  20  21
ATOM     21  O   UNL     1       4.638  -0.607  -0.426  0.00  0.00    -0.387 OA
ATOM     22  H   UNL     1       4.992  -1.367   0.057  0.00  0.00    +0.210 HD
ENDBRANCH  20  21
BRANCH  20  23
ATOM     23  C   UNL     1       2.855  -1.903  -1.418  0.00  0.00    +0.153 C 
BRANCH  23  28
ATOM     24  C   UNL     1      -0.019   1.526   0.010  0.00  0.00    +0.046 C 
ATOM     25  C   UNL     1       0.002  -0.004   0.002  0.00  0.00    +0.137 C 
ATOM     26  C   UNL     1       0.794  -0.519  -1.184  0.00  0.00    +0.250 C 
ATOM     27  O   UNL     1       0.559  -0.343  -2.360  0.00  0.00    -0.272 OA
ATOM     28  N   UNL     1       1.817  -1.215  -0.646  0.00  0.00    -0.222 N 
ATOM     29  C   UNL     1       1.752  -1.191   0.724  0.00  0.00    +0.286 C 
ATOM     30  N   UNL     1       0.739  -0.517   1.168  0.00  0.00    -0.221 NA
ATOM     31  C   UNL     1      -1.424  -0.559  -0.019  0.00  0.00    +0.046 C 
BRANCH  29  32
ATOM     32  O   UNL     1       2.648  -1.806   1.526  0.00  0.00    -0.481 OA
ATOM     33  H   UNL     1       2.469  -1.700   2.470  0.00  0.00    +0.295 HD
ENDBRANCH  29  32
ENDBRANCH  23  28
ENDBRANCH  20  23
ENDBRANCH  19  20
ENDBRANCH  18  19
ENDBRANCH   1  18
TORSDOF 8
