REMARK  Name = ZINC13500993
REMARK  13 active torsions:
REMARK  status: ('A' for Active; 'I' for Inactive)
REMARK    1  A    between atoms: C_1  and  C_2
REMARK    2  A    between atoms: C_2  and  C_3
REMARK    3  A    between atoms: C_3  and  C_4
REMARK    4  A    between atoms: C_4  and  C_6
REMARK    5  A    between atoms: C_4  and  N_69
REMARK    6  A    between atoms: N_10  and  C_11
REMARK    7  A    between atoms: C_11  and  C_12
REMARK    8  A    between atoms: C_17  and  C_18
REMARK    9  A    between atoms: C_17  and  N_69
REMARK   10  A    between atoms: C_18  and  C_19
REMARK   11  A    between atoms: C_25  and  C_26
REMARK   12  A    between atoms: C_25  and  N_69
REMARK   13  A    between atoms: C_30  and  C_38
REMARK                            x       y       z     vdW  Elec       q    Type
REMARK                         _______ _______ _______ _____ _____    ______ ____
ROOT
ATOM      1  N   UNL     1       0.112   3.326   1.132  0.00  0.00    +0.389 N 
ATOM      2  H   UNL     1       1.039   3.567   0.762  0.00  0.00    -0.080 HD
ENDROOT
BRANCH   1   3
ATOM      3  C   UNL     1       0.107   1.900   1.521  0.00  0.00    +0.003 C 
BRANCH   3   4
ATOM      4  C   UNL     1       1.055   1.702   2.675  0.00  0.00    +0.139 A 
ATOM      5  N   UNL     1       2.259   2.208   2.795  0.00  0.00    -0.115 NA
ATOM      6  N   UNL     1       2.748   1.809   3.918  0.00  0.00    -0.023 NA
ATOM      7  N   UNL     1       1.887   1.063   4.518  0.00  0.00    -0.044 NA
ATOM      8  N   UNL     1       0.828   0.977   3.786  0.00  0.00    -0.223 N 
BRANCH   8   9
ATOM      9  C   UNL     1      -0.390   0.228   4.103  0.00  0.00    +0.221 C 
BRANCH   9  10
ATOM     10  C   UNL     1      -0.269  -1.177   3.572  0.00  0.00    +0.126 A 
ATOM     11  C   UNL     1       0.241  -2.228   4.238  0.00  0.00    +0.046 A 
ATOM     12  C   UNL     1       0.159  -3.342   3.371  0.00  0.00    +0.041 A 
ATOM     13  C   UNL     1      -0.389  -2.902   2.224  0.00  0.00    +0.195 A 
ATOM     14  O   UNL     1      -0.646  -1.591   2.351  0.00  0.00    -0.466 OA
ENDBRANCH   9  10
ENDBRANCH   8   9
ENDBRANCH   3   4
BRANCH   3  15
ATOM     15  C   UNL     1       0.571   1.061   0.329  0.00  0.00    -0.008 C 
BRANCH  15  17
ATOM     16  C   UNL     1       2.450   0.645  -1.264  0.00  0.00    +0.004 C 
ATOM     17  C   UNL     1       1.987   1.482  -0.070  0.00  0.00    -0.005 C 
ENDBRANCH  15  17
ENDBRANCH   3  15
ENDBRANCH   1   3
BRANCH   1  18
ATOM     18  C   UNL     1      -0.170   4.173   2.310  0.00  0.00    -0.073 C 
BRANCH  18  19
ATOM     19  C   UNL     1       0.137   5.629   1.955  0.00  0.00    +0.016 C 
BRANCH  19  20
ATOM     20  C   UNL     1      -0.013   6.488   3.184  0.00  0.00    -0.049 A 
ATOM     21  C   UNL     1      -1.254   6.988   3.531  0.00  0.00    +0.003 A 
ATOM     22  C   UNL     1      -1.392   7.772   4.661  0.00  0.00    +0.000 A 
ATOM     23  C   UNL     1      -0.288   8.064   5.439  0.00  0.00    +0.000 A 
ATOM     24  C   UNL     1       0.954   7.568   5.090  0.00  0.00    +0.000 A 
ATOM     25  C   UNL     1       1.092   6.780   3.962  0.00  0.00    +0.003 A 
ENDBRANCH  19  20
ENDBRANCH  18  19
ENDBRANCH   1  18
BRANCH   1  26
ATOM     26  C   UNL     1      -0.901   3.567   0.083  0.00  0.00    -0.037 C 
BRANCH  26  27
ATOM     27  C   UNL     1      -2.286   3.306   0.615  0.00  0.00    +0.001 A 
ATOM     28  C   UNL     1      -3.023   4.330   1.111  0.00  0.00    +0.017 A 
ATOM     29  C   UNL     1      -4.365   4.042   1.621  0.00  0.00    -0.001 A 
ATOM     30  C   UNL     1      -5.173   5.057   2.145  0.00  0.00    +0.013 A 
ATOM     31  C   UNL     1      -6.421   4.756   2.612  0.00  0.00    -0.050 A 
ATOM     32  C   UNL     1      -6.895   3.452   2.572  0.00  0.00    +0.005 A 
ATOM     33  C   UNL     1      -6.117   2.436   2.060  0.00  0.00    +0.026 A 
ATOM     34  C   UNL     1      -4.842   2.719   1.579  0.00  0.00    +0.049 A 
ATOM     35  N   UNL     1      -4.043   1.722   1.061  0.00  0.00    -0.322 N 
ATOM     36  H   UNL     1      -4.373   0.811   1.032  0.00  0.00    +0.169 HD
ATOM     37  C   UNL     1      -2.813   1.997   0.590  0.00  0.00    +0.251 A 
ATOM     38  O   UNL     1      -2.136   1.092   0.135  0.00  0.00    -0.268 OA
ATOM     39  C   UNL     1      -7.291   5.850   3.177  0.00  0.00    +0.044 C 
ENDBRANCH  26  27
ENDBRANCH   1  26
TORSDOF 11
