REMARK  Name = ZINC01105676
REMARK  2 active torsions:
REMARK  status: ('A' for Active; 'I' for Inactive)
REMARK    1  A    between atoms: C_6  and  N_7
REMARK    2  A    between atoms: C_13  and  C_14
REMARK                            x       y       z     vdW  Elec       q    Type
REMARK                         _______ _______ _______ _____ _____    ______ ____
ROOT
ATOM      1  N   UNL     1      -0.692  -1.523   0.745  0.00  0.00    -0.226 NA
ATOM      2  C   UNL     1      -0.976  -2.322  -0.258  0.00  0.00    +0.166 C 
ATOM      3  N   UNL     1      -2.184  -2.909  -0.570  0.00  0.00    -0.260 N 
ATOM      4  C   UNL     1      -2.299  -3.695  -1.626  0.00  0.00    +0.256 C 
ATOM      5  O   UNL     1      -3.357  -4.221  -1.917  0.00  0.00    -0.269 OA
ATOM      6  C   UNL     1      -1.080  -3.906  -2.439  0.00  0.00    +0.078 C 
ATOM      7  C   UNL     1      -0.911  -4.651  -3.558  0.00  0.00    +0.028 C 
ATOM      8  S   UNL     1       0.106  -2.906  -1.552  0.00  0.00    -0.049 S 
ATOM      9  H   UNL     1      -2.957  -2.743  -0.008  0.00  0.00    +0.157 HD
ENDROOT
BRANCH   1  15
ATOM     10  C   UNL     1       0.775   0.321   1.185  0.00  0.00    +0.029 A 
ATOM     11  C   UNL     1       2.056   0.811   1.329  0.00  0.00    +0.017 A 
ATOM     12  C   UNL     1       3.144  -0.033   1.181  0.00  0.00    +0.018 A 
ATOM     13  C   UNL     1       2.954  -1.372   0.888  0.00  0.00    +0.017 A 
ATOM     14  C   UNL     1       1.678  -1.875   0.741  0.00  0.00    +0.029 A 
ATOM     15  C   UNL     1       0.576  -1.030   0.889  0.00  0.00    +0.067 A 
ATOM     16 BR   UNL     1       4.897   0.648   1.381  0.00  0.00    -0.050 Br
ENDBRANCH   1  15
BRANCH   7  17
ATOM     17  C   UNL     1       0.352  -4.575  -4.308  0.00  0.00    -0.021 A 
ATOM     18  C   UNL     1       0.615  -5.453  -5.370  0.00  0.00    +0.027 A 
ATOM     19  C   UNL     1       1.813  -5.346  -6.045  0.00  0.00    +0.111 A 
ATOM     20  N   UNL     1       2.704  -4.434  -5.704  0.00  0.00    -0.263 NA
ATOM     21  C   UNL     1       2.498  -3.588  -4.712  0.00  0.00    +0.111 A 
ATOM     22  C   UNL     1       1.327  -3.619  -3.986  0.00  0.00    +0.027 A 
ENDBRANCH   7  17
TORSDOF 2
