REMARK  Name = ZINC17044655
REMARK  5 active torsions:
REMARK  status: ('A' for Active; 'I' for Inactive)
REMARK    1  A    between atoms: C_1  and  C_2
REMARK    2  A    between atoms: C_2  and  O_3
REMARK    3  A    between atoms: O_3  and  C_4
REMARK    4  A    between atoms: C_7  and  C_10
REMARK    5  A    between atoms: C_22  and  C_24
REMARK                            x       y       z     vdW  Elec       q    Type
REMARK                         _______ _______ _______ _____ _____    ______ ____
ROOT
ATOM      1  C   UNL     1       2.360   3.872   0.000  0.00  0.00    +0.066 C 
ATOM      2  C   UNL     1       2.144   5.155   0.805  0.00  0.00    +0.109 C 
ATOM      3  C   UNL     1       0.854   5.807   0.386  0.00  0.00    +0.219 C 
ATOM      4  O   UNL     1       0.773   7.017   0.369  0.00  0.00    -0.275 OA
ATOM      5  N   UNL     1      -0.210   5.066   0.029  0.00  0.00    -0.270 N 
ATOM      6  C   UNL     1      -0.137   3.683   0.022  0.00  0.00    +0.136 A 
ATOM      7  C   UNL     1       1.096   3.056   0.007  0.00  0.00    +0.065 A 
ATOM      8  C   UNL     1       1.149   1.657   0.000  0.00  0.00    +0.257 A 
ATOM      9  O   UNL     1       2.222   1.074  -0.013  0.00  0.00    -0.267 OA
ATOM     10  N   UNL     1      -0.011   0.966   0.007  0.00  0.00    -0.307 N 
ATOM     11  H   UNL     1       0.004  -0.134   0.006  0.00  0.00    +0.170 HD
ATOM     12  C   UNL     1      -1.201   1.631   0.017  0.00  0.00    +0.143 A 
ATOM     13  N   UNL     1      -1.254   2.945   0.029  0.00  0.00    -0.214 NA
ATOM     14  H   UNL     1      -1.151   5.557  -0.261  0.00  0.00    +0.156 HD
ENDROOT
BRANCH   1  18
ATOM     15  C   UNL     1       3.388   4.871  -4.026  0.00  0.00    +0.121 A 
ATOM     16  C   UNL     1       4.267   4.132  -3.247  0.00  0.00    +0.046 A 
ATOM     17  C   UNL     1       3.933   3.811  -1.946  0.00  0.00    +0.008 A 
ATOM     18  C   UNL     1       2.723   4.224  -1.419  0.00  0.00    -0.039 A 
ATOM     19  C   UNL     1       1.843   4.956  -2.195  0.00  0.00    +0.008 A 
ATOM     20  C   UNL     1       2.175   5.285  -3.495  0.00  0.00    +0.046 A 
BRANCH  15  21
ATOM     21  O   UNL     1       3.715   5.189  -5.306  0.00  0.00    -0.492 OA
BRANCH  21  23
ATOM     22  C   UNL     1       3.301   6.211  -7.456  0.00  0.00    +0.048 C 
ATOM     23  C   UNL     1       2.762   5.952  -6.048  0.00  0.00    +0.225 C 
ENDBRANCH  21  23
ENDBRANCH  15  21
ENDBRANCH   1  18
BRANCH  12  24
ATOM     24  C   UNL     1      -2.460   0.858   0.019  0.00  0.00    +0.017 A 
ATOM     25  C   UNL     1      -2.426  -0.538   0.006  0.00  0.00    +0.011 A 
ATOM     26  C   UNL     1      -3.605  -1.254   0.014  0.00  0.00    +0.001 A 
ATOM     27  C   UNL     1      -4.820  -0.591   0.024  0.00  0.00    +0.000 A 
ATOM     28  C   UNL     1      -4.861   0.792   0.030  0.00  0.00    +0.001 A 
ATOM     29  C   UNL     1      -3.689   1.520   0.028  0.00  0.00    +0.011 A 
ENDBRANCH  12  24
TORSDOF 4
