REMARK  Name = ZINC13495956
REMARK  14 active torsions:
REMARK  status: ('A' for Active; 'I' for Inactive)
REMARK    1  A    between atoms: C_1  and  C_2
REMARK    2  A    between atoms: C_2  and  C_3
REMARK    3  A    between atoms: C_3  and  C_5
REMARK    4  A    between atoms: C_3  and  N_79
REMARK    5  A    between atoms: N_9  and  C_10
REMARK    6  A    between atoms: C_16  and  C_17
REMARK    7  A    between atoms: C_16  and  N_79
REMARK    8  A    between atoms: C_17  and  C_18
REMARK    9  A    between atoms: C_22  and  C_24
REMARK   10  A    between atoms: C_25  and  C_26
REMARK   11  A    between atoms: C_25  and  N_79
REMARK   12  A    between atoms: C_30  and  O_38
REMARK   13  A    between atoms: O_38  and  C_39
REMARK   14  A    between atoms: C_39  and  C_40
REMARK                            x       y       z     vdW  Elec       q    Type
REMARK                         _______ _______ _______ _____ _____    ______ ____
ROOT
ATOM      1  N   UNL     1       0.007  -0.578   1.680  0.00  0.00    +0.389 N 
ATOM      2  H   UNL     1       0.659  -0.243   2.400  0.00  0.00    -0.080 HD
ENDROOT
BRANCH   1   3
ATOM      3  C   UNL     1       0.055  -2.055   1.640  0.00  0.00    +0.003 C 
BRANCH   3   4
ATOM      4  C   UNL     1       1.462  -2.499   1.944  0.00  0.00    +0.138 A 
ATOM      5  N   UNL     1       2.568  -1.966   1.485  0.00  0.00    -0.115 NA
ATOM      6  N   UNL     1       3.561  -2.624   1.975  0.00  0.00    -0.023 NA
ATOM      7  N   UNL     1       3.117  -3.568   2.729  0.00  0.00    -0.044 NA
ATOM      8  N   UNL     1       1.828  -3.524   2.736  0.00  0.00    -0.228 N 
BRANCH   8   9
ATOM      9  C   UNL     1       0.930  -4.421   3.468  0.00  0.00    +0.111 C 
ATOM     10  C   UNL     1       1.219  -4.320   4.967  0.00  0.00    +0.027 C 
ATOM     11  C   UNL     1       0.282  -5.256   5.732  0.00  0.00    +0.002 C 
ATOM     12  C   UNL     1       0.507  -6.696   5.266  0.00  0.00    +0.000 C 
ATOM     13  C   UNL     1       0.218  -6.797   3.767  0.00  0.00    +0.002 C 
ATOM     14  C   UNL     1       1.156  -5.861   3.002  0.00  0.00    +0.027 C 
ENDBRANCH   8   9
ENDBRANCH   3   4
BRANCH   3  16
ATOM     15  C   UNL     1      -1.826  -2.238   0.006  0.00  0.00    +0.002 C 
ATOM     16  C   UNL     1      -0.353  -2.564   0.256  0.00  0.00    -0.011 C 
ENDBRANCH   3  16
ENDBRANCH   1   3
BRANCH   1  17
ATOM     17  C   UNL     1      -1.358  -0.126   2.021  0.00  0.00    -0.073 C 
BRANCH  17  18
ATOM     18  C   UNL     1      -1.663  -0.520   3.467  0.00  0.00    +0.016 C 
BRANCH  18  19
ATOM     19  C   UNL     1      -2.993   0.058   3.876  0.00  0.00    -0.049 A 
ATOM     20  C   UNL     1      -3.054   1.312   4.454  0.00  0.00    +0.003 A 
ATOM     21  C   UNL     1      -4.274   1.843   4.826  0.00  0.00    +0.001 A 
ATOM     22  C   UNL     1      -5.434   1.117   4.626  0.00  0.00    +0.003 A 
ATOM     23  C   UNL     1      -5.373  -0.139   4.052  0.00  0.00    -0.050 A 
ATOM     24  C   UNL     1      -4.152  -0.669   3.677  0.00  0.00    +0.007 A 
ATOM     25  C   UNL     1      -6.637  -0.930   3.835  0.00  0.00    +0.044 C 
ENDBRANCH  18  19
ENDBRANCH  17  18
ENDBRANCH   1  17
BRANCH   1  26
ATOM     26  C   UNL     1       0.412  -0.023   0.371  0.00  0.00    -0.037 C 
BRANCH  26  27
ATOM     27  C   UNL     1       0.685   1.450   0.533  0.00  0.00    +0.001 A 
ATOM     28  C   UNL     1       1.948   1.881   0.770  0.00  0.00    +0.017 A 
ATOM     29  C   UNL     1       2.180   3.319   0.922  0.00  0.00    +0.002 A 
ATOM     30  C   UNL     1       3.462   3.821   1.167  0.00  0.00    +0.055 A 
ATOM     31  C   UNL     1       3.646   5.183   1.305  0.00  0.00    +0.121 A 
ATOM     32  C   UNL     1       2.562   6.052   1.201  0.00  0.00    +0.047 A 
ATOM     33  C   UNL     1       1.295   5.569   0.960  0.00  0.00    +0.030 A 
ATOM     34  C   UNL     1       1.088   4.201   0.818  0.00  0.00    +0.049 A 
ATOM     35  N   UNL     1      -0.174   3.697   0.576  0.00  0.00    -0.322 N 
ATOM     36  H   UNL     1      -0.926   4.306   0.505  0.00  0.00    +0.169 HD
ATOM     37  C   UNL     1      -0.375   2.376   0.432  0.00  0.00    +0.251 A 
ATOM     38  O   UNL     1      -1.503   1.967   0.213  0.00  0.00    -0.268 OA
BRANCH  31  39
ATOM     39  O   UNL     1       4.889   5.677   1.543  0.00  0.00    -0.492 OA
BRANCH  39  40
ATOM     40  C   UNL     1       5.010   7.095   1.676  0.00  0.00    +0.225 C 
ATOM     41  C   UNL     1       6.472   7.460   1.939  0.00  0.00    +0.048 C 
ENDBRANCH  39  40
ENDBRANCH  31  39
ENDBRANCH  26  27
ENDBRANCH   1  26
TORSDOF 11
