REMARK  Name = ZINC36207306
REMARK  16 active torsions:
REMARK  status: ('A' for Active; 'I' for Inactive)
REMARK    1  A    between atoms: C_1  and  C_2
REMARK    2  A    between atoms: C_2  and  C_3
REMARK    3  A    between atoms: C_9  and  C_18
REMARK    4  A    between atoms: C_13  and  C_14
REMARK    5  A    between atoms: C_14  and  O_16
REMARK    6  A    between atoms: O_16  and  C_17
REMARK    7  A    between atoms: C_18  and  N_19
REMARK    8  A    between atoms: N_19  and  C_20
REMARK    9  A    between atoms: N_19  and  C_27
REMARK   10  A    between atoms: C_20  and  C_21
REMARK   11  A    between atoms: C_27  and  C_28
REMARK   12  A    between atoms: C_28  and  C_30
REMARK   13  A    between atoms: C_28  and  O_38
REMARK   14  A    between atoms: C_30  and  O_31
REMARK   15  A    between atoms: O_31  and  C_32
REMARK   16  A    between atoms: C_32  and  C_33
REMARK                            x       y       z     vdW  Elec       q    Type
REMARK                         _______ _______ _______ _____ _____    ______ ____
ROOT
ATOM      1  N   UNL     1      -5.986  -2.119   4.179  0.00  0.00    +0.389 N 
ATOM      2  H   UNL     1      -6.529  -1.498   3.597  0.00  0.00    -0.081 HD
ENDROOT
BRANCH   1   3
ATOM      3  C   UNL     1      -4.741  -1.451   4.581  0.00  0.00    -0.003 C 
BRANCH   3  10
ATOM      4  C   UNL     1      -2.156   0.220  -0.158  0.00  0.00    -0.012 A 
ATOM      5  C   UNL     1      -2.680  -0.133   1.087  0.00  0.00    +0.076 A 
ATOM      6  C   UNL     1      -2.124   0.107   2.438  0.00  0.00    +0.260 A 
ATOM      7  O   UNL     1      -1.063   0.687   2.583  0.00  0.00    -0.267 OA
ATOM      8  N   UNL     1      -2.822  -0.334   3.503  0.00  0.00    -0.312 N 
ATOM      9  H   UNL     1      -2.472  -0.184   4.396  0.00  0.00    +0.170 HD
ATOM     10  C   UNL     1      -4.005  -0.980   3.354  0.00  0.00    +0.094 A 
ATOM     11  N   UNL     1      -4.523  -1.208   2.178  0.00  0.00    -0.229 NA
ATOM     12  C   UNL     1      -3.918  -0.817   1.063  0.00  0.00    +0.116 A 
ATOM     13  S   UNL     1      -4.286  -0.934  -0.669  0.00  0.00    -0.062 S 
ATOM     14  C   UNL     1      -2.841  -0.095  -1.297  0.00  0.00    +0.102 A 
BRANCH   4  16
ATOM     15  C   UNL     1      -1.095   2.460  -0.203  0.00  0.00    +0.009 C 
ATOM     16  C   UNL     1      -0.842   0.952  -0.244  0.00  0.00    +0.034 C 
ENDBRANCH   4  16
BRANCH  14  17
ATOM     17  C   UNL     1      -2.478   0.184  -2.688  0.00  0.00    +0.346 C 
ATOM     18  O   UNL     1      -1.442   0.771  -2.940  0.00  0.00    -0.244 OA
BRANCH  17  19
ATOM     19  O   UNL     1      -3.291  -0.210  -3.689  0.00  0.00    -0.464 OA
ATOM     20  C   UNL     1      -2.875   0.096  -5.021  0.00  0.00    +0.280 C 
ENDBRANCH  17  19
ENDBRANCH  14  17
ENDBRANCH   3  10
ENDBRANCH   1   3
BRANCH   1  21
ATOM     21  C   UNL     1      -5.665  -3.340   3.427  0.00  0.00    -0.042 C 
BRANCH  21  22
ATOM     22  C   UNL     1      -4.847  -4.263   4.293  0.00  0.00    -0.064 A 
ATOM     23  C   UNL     1      -3.468  -4.162   4.300  0.00  0.00    +0.002 A 
ATOM     24  C   UNL     1      -2.717  -5.008   5.094  0.00  0.00    +0.000 A 
ATOM     25  C   UNL     1      -3.345  -5.955   5.881  0.00  0.00    +0.000 A 
ATOM     26  C   UNL     1      -4.724  -6.056   5.874  0.00  0.00    +0.000 A 
ATOM     27  C   UNL     1      -5.475  -5.207   5.083  0.00  0.00    +0.002 A 
ENDBRANCH  21  22
ENDBRANCH   1  21
BRANCH   1  28
ATOM     28  C   UNL     1      -6.762  -2.471   5.376  0.00  0.00    -0.044 C 
BRANCH  28  29
ATOM     29  C   UNL     1      -8.117  -3.042   4.955  0.00  0.00    +0.124 C 
BRANCH  29  30
ATOM     30  O   UNL     1      -8.846  -2.052   4.226  0.00  0.00    -0.391 OA
ATOM     31  H   UNL     1      -9.020  -1.243   4.727  0.00  0.00    +0.210 HD
ENDBRANCH  29  30
BRANCH  29  32
ATOM     32  C   UNL     1      -8.910  -3.444   6.201  0.00  0.00    +0.189 C 
BRANCH  32  33
ATOM     33  O   UNL     1     -10.126  -4.083   5.806  0.00  0.00    -0.370 OA
BRANCH  33  34
ATOM     34  C   UNL     1     -10.945  -4.500   6.900  0.00  0.00    +0.234 C 
BRANCH  34  35
ATOM     35  C   UNL     1     -12.193  -5.158   6.371  0.00  0.00    +0.130 A 
ATOM     36  C   UNL     1     -12.341  -6.469   6.109  0.00  0.00    +0.047 A 
ATOM     37  C   UNL     1     -13.661  -6.646   5.633  0.00  0.00    +0.041 A 
ATOM     38  C   UNL     1     -14.240  -5.432   5.632  0.00  0.00    +0.195 A 
ATOM     39  O   UNL     1     -13.348  -4.535   6.086  0.00  0.00    -0.465 OA
ENDBRANCH  34  35
ENDBRANCH  33  34
ENDBRANCH  32  33
ENDBRANCH  29  32
ENDBRANCH  28  29
ENDBRANCH   1  28
TORSDOF 14
