REMARK  Name = ZINC63109884
REMARK  3 active torsions:
REMARK  status: ('A' for Active; 'I' for Inactive)
REMARK    1  A    between atoms: C_1  and  C_2
REMARK    2  A    between atoms: C_6  and  C_8
REMARK    3  A    between atoms: C_14  and  C_16
REMARK                            x       y       z     vdW  Elec       q    Type
REMARK                         _______ _______ _______ _____ _____    ______ ____
ROOT
ATOM      1  C   UNL     1      -1.058   1.026   0.399  0.00  0.00    +0.039 C 
ATOM      2  C   UNL     1      -0.713  -0.455   0.229  0.00  0.00    +0.133 C 
ATOM      3  C   UNL     1       0.179  -0.635  -1.004  0.00  0.00    +0.139 C 
ATOM      4  N   UNL     1       0.649  -2.029  -1.038  0.00  0.00    -0.292 N 
ATOM      5  C   UNL     1       1.254  -2.585   0.182  0.00  0.00    +0.144 C 
ATOM      6  C   UNL     1       0.310  -2.310   1.358  0.00  0.00    +0.166 C 
ATOM      7  O   UNL     1      -0.013  -0.917   1.387  0.00  0.00    -0.366 OA
ATOM      8  C   UNL     1       0.528  -2.775  -2.155  0.00  0.00    +0.247 C 
ATOM      9  O   UNL     1       0.984  -3.901  -2.185  0.00  0.00    -0.270 OA
ENDROOT
BRANCH   8  10
ATOM     10  C   UNL     1      -0.161  -2.222  -3.344  0.00  0.00    +0.039 A 
ATOM     11  C   UNL     1       0.185  -0.947  -3.818  0.00  0.00    +0.014 A 
ATOM     12  C   UNL     1      -0.433  -0.417  -4.909  0.00  0.00    +0.016 A 
ATOM     13  C   UNL     1      -1.430  -1.149  -5.571  0.00  0.00    +0.065 A 
ATOM     14  C   UNL     1      -1.790  -2.439  -5.103  0.00  0.00    +0.080 A 
ATOM     15  C   UNL     1      -1.137  -2.970  -3.981  0.00  0.00    +0.041 A 
ATOM     16  N   UNL     1      -2.744  -3.126  -5.748  0.00  0.00    -0.223 NA
ATOM     17  C   UNL     1      -3.347  -2.613  -6.809  0.00  0.00    +0.180 A 
ATOM     18  N   UNL     1      -3.042  -1.397  -7.292  0.00  0.00    -0.301 N 
ATOM     19  H   UNL     1      -3.510  -1.061  -8.073  0.00  0.00    +0.171 HD
ATOM     20  C   UNL     1      -2.094  -0.635  -6.705  0.00  0.00    +0.260 A 
ATOM     21  O   UNL     1      -1.790   0.582  -7.190  0.00  0.00    -0.267 OA
ATOM     22  S   UNL     1      -4.558  -3.532  -7.595  0.00  0.00    -0.011 S 
ENDBRANCH   8  10
BRANCH   6  23
ATOM     23  C   UNL     1       0.987  -2.696   2.648  0.00  0.00    -0.017 A 
ATOM     24  C   UNL     1       1.821  -1.798   3.287  0.00  0.00    +0.006 A 
ATOM     25  C   UNL     1       2.441  -2.153   4.470  0.00  0.00    +0.000 A 
ATOM     26  C   UNL     1       2.228  -3.406   5.014  0.00  0.00    +0.000 A 
ATOM     27  C   UNL     1       1.393  -4.303   4.376  0.00  0.00    +0.000 A 
ATOM     28  C   UNL     1       0.769  -3.947   3.195  0.00  0.00    +0.006 A 
ENDBRANCH   6  23
TORSDOF 2
