REMARK  Name = ZINC63116010
REMARK  7 active torsions:
REMARK  status: ('A' for Active; 'I' for Inactive)
REMARK    1  A    between atoms: C_1  and  C_2
REMARK    2  A    between atoms: C_7  and  S_12
REMARK    3  A    between atoms: S_12  and  C_13
REMARK    4  A    between atoms: C_13  and  C_14
REMARK    5  A    between atoms: N_16  and  N_17
REMARK    6  A    between atoms: C_18  and  C_20
REMARK    7  A    between atoms: C_23  and  N_26
REMARK                            x       y       z     vdW  Elec       q    Type
REMARK                         _______ _______ _______ _____ _____    ______ ____
ROOT
ATOM      1  C   UNL     1      -4.091  -4.910   1.844  0.00  0.00    +0.239 C 
ATOM      2  O   UNL     1      -4.084  -5.978   2.419  0.00  0.00    -0.273 OA
ATOM      3  N   UNL     1      -5.261  -4.324   1.526  0.00  0.00    -0.233 N 
ATOM      4  H   UNL     1      -5.267  -3.470   1.066  0.00  0.00    +0.173 HD
ENDROOT
BRANCH   3   5
ATOM      5  N   UNL     1      -6.471  -4.947   1.859  0.00  0.00    -0.230 N 
ATOM      6  C   UNL     1      -7.642  -4.361   1.541  0.00  0.00    +0.260 C 
ATOM      7  O   UNL     1      -7.648  -3.291   0.964  0.00  0.00    -0.269 OA
ATOM      8  H   UNL     1      -6.466  -5.801   2.319  0.00  0.00    +0.173 HD
BRANCH   6   9
ATOM      9  C   UNL     1      -8.918  -5.019   1.893  0.00  0.00    +0.038 A 
ATOM     10  C   UNL     1      -8.914  -6.244   2.560  0.00  0.00    +0.015 A 
ATOM     11  C   UNL     1     -10.109  -6.853   2.886  0.00  0.00    +0.033 A 
ATOM     12  C   UNL     1     -11.309  -6.251   2.553  0.00  0.00    +0.126 A 
ATOM     13  C   UNL     1     -11.320  -5.035   1.891  0.00  0.00    +0.033 A 
ATOM     14  C   UNL     1     -10.132  -4.414   1.565  0.00  0.00    +0.015 A 
BRANCH  12  15
ATOM     15  N   UNL     1     -12.587  -6.910   2.905  0.00  0.00    +0.056 N 
ATOM     16  O   UNL     1     -12.580  -7.972   3.482  0.00  0.00    -0.126 OA
ATOM     17  O   UNL     1     -13.637  -6.386   2.614  0.00  0.00    -0.126 OA
ENDBRANCH  12  15
ENDBRANCH   6   9
ENDBRANCH   3   5
BRANCH   1  18
ATOM     18  C   UNL     1      -2.790  -4.240   1.485  0.00  0.00    +0.170 C 
BRANCH  18  19
ATOM     19  S   UNL     1      -1.405  -5.270   2.043  0.00  0.00    -0.106 S 
BRANCH  19  26
ATOM     20  C   UNL     1      -0.018   1.503   0.010  0.00  0.00    +0.044 C 
ATOM     21  C   UNL     1       0.002  -0.004   0.002  0.00  0.00    -0.048 A 
ATOM     22  C   UNL     1       0.005  -0.672  -1.235  0.00  0.00    +0.005 A 
ATOM     23  C   UNL     1       0.022  -2.017  -1.335  0.00  0.00    +0.028 A 
ATOM     24  C   UNL     1       0.040  -2.834  -0.114  0.00  0.00    +0.061 A 
ATOM     25  N   UNL     1       0.057  -4.120   0.090  0.00  0.00    -0.355 N 
ATOM     26  C   UNL     1       0.067  -4.335   1.542  0.00  0.00    +0.236 C 
ATOM     27  N   UNL     1       0.053  -3.002   2.159  0.00  0.00    -0.355 N 
ATOM     28  C   UNL     1       0.037  -2.127   1.195  0.00  0.00    +0.061 A 
ATOM     29  C   UNL     1       0.022  -0.657   1.181  0.00  0.00    +0.030 A 
ATOM     30  H   UNL     1       0.062  -4.809  -0.593  0.00  0.00    +0.162 HD
ATOM     31  H   UNL     1       0.055  -2.810   3.109  0.00  0.00    +0.162 HD
ENDBRANCH  19  26
ENDBRANCH  18  19
ENDBRANCH   1  18
TORSDOF 6
