REMARK  Name = ZINC09218918
REMARK  12 active torsions:
REMARK  status: ('A' for Active; 'I' for Inactive)
REMARK    1  A    between atoms: C_1  and  C_2
REMARK    2  A    between atoms: C_2  and  N_52
REMARK    3  A    between atoms: C_3  and  C_4
REMARK    4  A    between atoms: C_3  and  N_52
REMARK    5  A    between atoms: C_10  and  S_12
REMARK    6  A    between atoms: S_12  and  C_13
REMARK    7  A    between atoms: C_14  and  C_15
REMARK    8  A    between atoms: C_14  and  N_52
REMARK    9  A    between atoms: C_22  and  O_29
REMARK   10  A    between atoms: C_23  and  O_27
REMARK   11  A    between atoms: O_27  and  C_28
REMARK   12  A    between atoms: O_29  and  C_30
REMARK                            x       y       z     vdW  Elec       q    Type
REMARK                         _______ _______ _______ _____ _____    ______ ____
ROOT
ATOM      1  C   UNL     1       1.168   3.780   0.511  0.00  0.00    -0.003 C 
ENDROOT
BRANCH   1   2
ATOM      2  C   UNL     1       1.290   2.384   1.065  0.00  0.00    +0.094 A 
ATOM      3  N   UNL     1       0.180   1.797   1.585  0.00  0.00    -0.312 N 
ATOM      4  H   UNL     1      -0.662   2.279   1.587  0.00  0.00    +0.170 HD
ATOM      5  C   UNL     1       0.237   0.545   2.095  0.00  0.00    +0.259 A 
ATOM      6  O   UNL     1      -0.750   0.008   2.564  0.00  0.00    -0.267 OA
ATOM      7  C   UNL     1       1.536  -0.141   2.062  0.00  0.00    +0.068 A 
ATOM      8  C   UNL     1       1.698  -1.433   2.562  0.00  0.00    +0.064 A 
ATOM      9  C   UNL     1       2.938  -2.034   2.507  0.00  0.00    +0.162 A 
ATOM     10  C   UNL     1       4.029  -1.355   1.953  0.00  0.00    +0.164 A 
ATOM     11  C   UNL     1       3.883  -0.075   1.454  0.00  0.00    +0.078 A 
ATOM     12  C   UNL     1       2.635   0.548   1.502  0.00  0.00    +0.082 A 
ATOM     13  N   UNL     1       2.450   1.804   1.022  0.00  0.00    -0.236 NA
BRANCH  10  14
ATOM     14  O   UNL     1       5.244  -1.960   1.905  0.00  0.00    -0.491 OA
ATOM     15  C   UNL     1       6.318  -1.215   1.328  0.00  0.00    +0.277 C 
ENDBRANCH  10  14
BRANCH   9  16
ATOM     16  O   UNL     1       3.102  -3.293   2.993  0.00  0.00    -0.491 OA
ATOM     17  C   UNL     1       1.948  -3.930   3.545  0.00  0.00    +0.277 C 
ENDBRANCH   9  16
ENDBRANCH   1   2
BRANCH   1  18
ATOM     18  N   UNL     1       2.493   4.218   0.024  0.00  0.00    +0.388 N 
ATOM     19  H   UNL     1       3.186   4.075   0.769  0.00  0.00    -0.081 HD
BRANCH  18  21
ATOM     20  C   UNL     1       1.843   3.555  -2.267  0.00  0.00    -0.017 C 
ATOM     21  C   UNL     1       2.886   3.420  -1.156  0.00  0.00    -0.081 C 
ENDBRANCH  18  21
BRANCH  18  22
ATOM     22  C   UNL     1       2.454   5.653  -0.326  0.00  0.00    -0.022 C 
BRANCH  22  23
ATOM     23  C   UNL     1       3.868   6.155  -0.473  0.00  0.00    +0.033 A 
ATOM     24  C   UNL     1       4.308   6.606  -1.684  0.00  0.00    +0.091 A 
ATOM     25  C   UNL     1       5.629   7.074  -1.795  0.00  0.00    +0.252 A 
ATOM     26  O   UNL     1       6.054   7.489  -2.861  0.00  0.00    -0.268 OA
ATOM     27  N   UNL     1       6.421   7.050  -0.702  0.00  0.00    -0.302 N 
ATOM     28  H   UNL     1       7.337   7.364  -0.757  0.00  0.00    +0.171 HD
ATOM     29  C   UNL     1       5.929   6.583   0.479  0.00  0.00    +0.169 A 
ATOM     30  N   UNL     1       4.686   6.151   0.576  0.00  0.00    -0.230 NA
BRANCH  29  31
ATOM     31  S   UNL     1       6.969   6.556   1.901  0.00  0.00    -0.091 S 
ATOM     32  C   UNL     1       5.820   5.865   3.117  0.00  0.00    +0.093 C 
ENDBRANCH  29  31
ENDBRANCH  22  23
ENDBRANCH  18  22
ENDBRANCH   1  18
TORSDOF 8
