REMARK  Name = ZINC57488058
REMARK  6 active torsions:
REMARK  status: ('A' for Active; 'I' for Inactive)
REMARK    1  A    between atoms: C_1  and  C_2
REMARK    2  A    between atoms: C_5  and  C_31
REMARK    3  A    between atoms: C_10  and  C_12
REMARK    4  A    between atoms: C_12  and  S_13
REMARK    5  A    between atoms: S_13  and  C_14
REMARK    6  A    between atoms: N_23  and  C_24
REMARK                            x       y       z     vdW  Elec       q    Type
REMARK                         _______ _______ _______ _____ _____    ______ ____
ROOT
ATOM      1  C   UNL     1       2.107   1.663   6.398  0.00  0.00    +0.177 A 
ATOM      2  N   UNL     1       0.881   1.215   6.377  0.00  0.00    -0.222 NA
ATOM      3  C   UNL     1      -0.150   1.906   6.949  0.00  0.00    +0.086 A 
ATOM      4  C   UNL     1      -1.507   1.555   7.006  0.00  0.00    +0.036 A 
ATOM      5  C   UNL     1      -2.394   2.369   7.618  0.00  0.00    +0.048 A 
ATOM      6  S   UNL     1      -1.369   3.720   8.176  0.00  0.00    -0.090 S 
ATOM      7  C   UNL     1       0.185   3.127   7.561  0.00  0.00    +0.102 A 
ATOM      8  C   UNL     1       1.495   3.598   7.579  0.00  0.00    +0.274 A 
ATOM      9  O   UNL     1       1.772   4.659   8.114  0.00  0.00    -0.266 OA
ATOM     10  N   UNL     1       2.456   2.844   6.992  0.00  0.00    -0.255 N 
ENDROOT
BRANCH  10  11
ATOM     11  C   UNL     1       3.790   3.273   6.990  0.00  0.00    +0.052 A 
ATOM     12  C   UNL     1       4.265   4.063   5.952  0.00  0.00    +0.028 A 
ATOM     13  C   UNL     1       5.580   4.484   5.951  0.00  0.00    +0.022 A 
ATOM     14  C   UNL     1       6.425   4.118   6.984  0.00  0.00    +0.041 A 
ATOM     15  C   UNL     1       5.955   3.330   8.020  0.00  0.00    +0.022 A 
ATOM     16  C   UNL     1       4.638   2.912   8.028  0.00  0.00    +0.028 A 
ATOM     17 CL   UNL     1       8.078   4.649   6.980  0.00  0.00    -0.084 Cl
ENDBRANCH  10  11
BRANCH   1  18
ATOM     18  S   UNL     1       3.369   0.699   5.634  0.00  0.00    -0.078 S 
BRANCH  18  19
ATOM     19  C   UNL     1       2.486  -0.748   4.988  0.00  0.00    +0.173 C 
BRANCH  19  27
ATOM     20  C   UNL     1       1.175  -2.183   1.542  0.00  0.00    +0.009 C 
ATOM     21  C   UNL     1       1.119  -3.468   2.370  0.00  0.00    +0.004 C 
ATOM     22  C   UNL     1       2.020  -4.527   1.730  0.00  0.00    +0.009 C 
ATOM     23  C   UNL     1       3.454  -4.000   1.651  0.00  0.00    +0.004 C 
ATOM     24  C   UNL     1       3.969  -3.720   3.067  0.00  0.00    +0.111 C 
ATOM     25  N   UNL     1       3.029  -2.813   3.741  0.00  0.00    -0.300 N 
ATOM     26  C   UNL     1       1.607  -3.182   3.794  0.00  0.00    +0.111 C 
ATOM     27  C   UNL     1       3.462  -1.667   4.301  0.00  0.00    +0.226 C 
ATOM     28  O   UNL     1       4.638  -1.374   4.251  0.00  0.00    -0.275 OA
ATOM     29  C   UNL     1       4.347  -5.046   0.981  0.00  0.00    +0.009 C 
ENDBRANCH  19  27
ENDBRANCH  18  19
ENDBRANCH   1  18
TORSDOF 4
