REMARK  Name = ZINC08453404
REMARK  10 active torsions:
REMARK  status: ('A' for Active; 'I' for Inactive)
REMARK    1  A    between atoms: C_1  and  C_2
REMARK    2  A    between atoms: N_4  and  C_11
REMARK    3  A    between atoms: C_11  and  C_12
REMARK    4  A    between atoms: N_14  and  C_15
REMARK    5  A    between atoms: C_15  and  C_17
REMARK    6  A    between atoms: C_15  and  P_23
REMARK    7  A    between atoms: P_23  and  O_25
REMARK    8  A    between atoms: P_23  and  O_32
REMARK    9  A    between atoms: O_25  and  C_26
REMARK   10  A    between atoms: O_32  and  C_33
REMARK                            x       y       z     vdW  Elec       q    Type
REMARK                         _______ _______ _______ _____ _____    ______ ____
ROOT
ATOM      1  C   UNL     1      -0.530   2.734   0.759  0.00  0.00    +0.244 C 
ENDROOT
BRANCH   1   2
ATOM      2  C   UNL     1      -0.564   4.005  -0.050  0.00  0.00    -0.013 A 
ATOM      3  C   UNL     1       0.553   4.816  -0.109  0.00  0.00    +0.006 A 
ATOM      4  C   UNL     1       0.524   5.980  -0.854  0.00  0.00    +0.000 A 
ATOM      5  C   UNL     1      -0.626   6.337  -1.533  0.00  0.00    +0.000 A 
ATOM      6  C   UNL     1      -1.745   5.527  -1.470  0.00  0.00    +0.000 A 
ATOM      7  C   UNL     1      -1.714   4.362  -0.728  0.00  0.00    +0.006 A 
ENDBRANCH   1   2
BRANCH   1  10
ATOM      8  C   UNL     1      -0.127   2.504   3.152  0.00  0.00    +0.234 C 
ATOM      9  O   UNL     1      -1.203   1.952   3.250  0.00  0.00    -0.274 OA
ATOM     10  N   UNL     1       0.302   2.934   1.948  0.00  0.00    -0.295 N 
ATOM     11  H   UNL     1       1.162   3.375   1.870  0.00  0.00    +0.150 HD
BRANCH   8  12
ATOM     12  C   UNL     1       0.729   2.710   4.375  0.00  0.00    +0.222 C 
BRANCH  12  16
ATOM     13  C   UNL     1      -0.165  -1.088   7.388  0.00  0.00    +0.051 C 
ATOM     14  C   UNL     1      -0.379   0.347   6.983  0.00  0.00    +0.030 A 
ATOM     15  C   UNL     1       0.251   0.854   5.902  0.00  0.00    +0.099 A 
ATOM     16  N   UNL     1       0.045   2.160   5.548  0.00  0.00    -0.291 N 
ATOM     17  C   UNL     1      -0.775   2.945   6.270  0.00  0.00    +0.330 A 
ATOM     18  O   UNL     1      -0.940   4.103   5.940  0.00  0.00    -0.246 OA
ATOM     19  N   UNL     1      -1.420   2.464   7.349  0.00  0.00    -0.275 N 
ATOM     20  H   UNL     1      -2.031   3.059   7.870  0.00  0.00    +0.173 HD
ATOM     21  C   UNL     1      -1.244   1.183   7.731  0.00  0.00    +0.257 A 
ATOM     22  O   UNL     1      -1.823   0.748   8.710  0.00  0.00    -0.267 OA
ENDBRANCH  12  16
ENDBRANCH   8  12
ENDBRANCH   1  10
BRANCH   1  23
ATOM     23  P   UNL     1       0.169   1.388  -0.252  0.00  0.00    +0.458 P 
ATOM     24  O   UNL     1       0.151   0.127   0.523  0.00  0.00    -0.230 OA
BRANCH  23  25
ATOM     25  O   UNL     1       1.685   1.750  -0.653  0.00  0.00    -0.414 OA
BRANCH  25  26
ATOM     26  C   UNL     1       2.618   1.243   0.197  0.00  0.00    +0.131 A 
ATOM     27  C   UNL     1       3.136   2.035   1.211  0.00  0.00    +0.046 A 
ATOM     28  C   UNL     1       4.079   1.516   2.077  0.00  0.00    +0.004 A 
ATOM     29  C   UNL     1       4.515   0.213   1.926  0.00  0.00    +0.000 A 
ATOM     30  C   UNL     1       4.003  -0.577   0.912  0.00  0.00    +0.004 A 
ATOM     31  C   UNL     1       3.056  -0.064   0.048  0.00  0.00    +0.046 A 
ENDBRANCH  25  26
ENDBRANCH  23  25
BRANCH  23  32
ATOM     32  O   UNL     1      -0.711   1.208  -1.588  0.00  0.00    -0.414 OA
BRANCH  32  33
ATOM     33  C   UNL     1      -0.301   0.189  -2.388  0.00  0.00    +0.131 A 
ATOM     34  C   UNL     1       0.692   0.403  -3.333  0.00  0.00    +0.046 A 
ATOM     35  C   UNL     1       1.111  -0.637  -4.140  0.00  0.00    +0.004 A 
ATOM     36  C   UNL     1       0.534  -1.887  -4.014  0.00  0.00    +0.000 A 
ATOM     37  C   UNL     1      -0.460  -2.102  -3.077  0.00  0.00    +0.004 A 
ATOM     38  C   UNL     1      -0.878  -1.067  -2.264  0.00  0.00    +0.046 A 
ENDBRANCH  32  33
ENDBRANCH  23  32
ENDBRANCH   1  23
TORSDOF 9
