REMARK  Name = ZINC12501577
REMARK  6 active torsions:
REMARK  status: ('A' for Active; 'I' for Inactive)
REMARK    1  A    between atoms: C_1  and  O_2
REMARK    2  A    between atoms: O_2  and  C_3
REMARK    3  A    between atoms: N_5  and  N_6
REMARK    4  A    between atoms: N_6  and  C_7
REMARK    5  A    between atoms: C_7  and  N_9
REMARK    6  A    between atoms: C_10  and  C_12
REMARK                            x       y       z     vdW  Elec       q    Type
REMARK                         _______ _______ _______ _____ _____    ______ ____
ROOT
ATOM      1  N   UNL     1      -0.011   0.966   0.007  0.00  0.00    -0.263 N 
ATOM      2  C   UNL     1      -1.187   1.624   0.017  0.00  0.00    +0.251 C 
ATOM      3  O   UNL     1      -1.204   2.839   0.023  0.00  0.00    -0.270 OA
ATOM      4  H   UNL     1       0.002  -0.004   0.002  0.00  0.00    +0.157 HD
ENDROOT
BRANCH   2   5
ATOM      5  C   UNL     1      -2.457   0.868   0.018  0.00  0.00    +0.050 A 
ATOM      6  C   UNL     1      -2.441  -0.528   0.005  0.00  0.00    +0.014 A 
ATOM      7  C   UNL     1      -3.630  -1.228   0.012  0.00  0.00    +0.001 A 
ATOM      8  C   UNL     1      -4.836  -0.550   0.022  0.00  0.00    +0.001 A 
ATOM      9  C   UNL     1      -4.859   0.833   0.030  0.00  0.00    +0.015 A 
ATOM     10  C   UNL     1      -3.677   1.546   0.028  0.00  0.00    +0.025 A 
ATOM     11  I   UNL     1      -3.714   3.641   0.039  0.00  0.00    -0.043 I 
ENDBRANCH   2   5
BRANCH   1  12
ATOM     12  C   UNL     1       1.147   1.655   0.000  0.00  0.00    +0.153 C 
ATOM     13  S   UNL     1       1.124   3.367   0.009  0.00  0.00    -0.017 S 
BRANCH  12  14
ATOM     14  N   UNL     1       2.323   0.998  -0.015  0.00  0.00    -0.243 N 
ATOM     15  H   UNL     1       3.156   1.494  -0.020  0.00  0.00    +0.172 HD
BRANCH  14  18
ATOM     16  C   UNL     1       3.518  -1.061  -0.037  0.00  0.00    +0.416 C 
ATOM     17  O   UNL     1       3.535  -2.276  -0.044  0.00  0.00    -0.225 OA
ATOM     18  N   UNL     1       2.342  -0.403  -0.022  0.00  0.00    -0.200 N 
ATOM     19  H   UNL     1       1.509  -0.900  -0.017  0.00  0.00    +0.176 HD
BRANCH  16  21
ATOM     20  C   UNL     1       5.903  -1.146  -0.060  0.00  0.00    +0.282 C 
ATOM     21  O   UNL     1       4.675  -0.372  -0.045  0.00  0.00    -0.453 OA
ENDBRANCH  16  21
ENDBRANCH  14  18
ENDBRANCH  12  14
ENDBRANCH   1  12
TORSDOF 5
