REMARK  Name = ZINC39695441
REMARK  10 active torsions:
REMARK  status: ('A' for Active; 'I' for Inactive)
REMARK    1  A    between atoms: C_1  and  C_2
REMARK    2  A    between atoms: C_2  and  C_3
REMARK    3  A    between atoms: C_3  and  C_4
REMARK    4  A    between atoms: C_4  and  C_6
REMARK    5  A    between atoms: C_4  and  C_7
REMARK    6  A    between atoms: C_11  and  C_20
REMARK    7  A    between atoms: N_22  and  C_23
REMARK    8  A    between atoms: C_23  and  C_24
REMARK    9  A    between atoms: N_29  and  C_30
REMARK   10  A    between atoms: C_30  and  C_31
REMARK                            x       y       z     vdW  Elec       q    Type
REMARK                         _______ _______ _______ _____ _____    ______ ____
ROOT
ATOM      1  C   UNL     1       1.430  -2.531  -2.690  0.00  0.00    +0.218 C 
ATOM      2  O   UNL     1       1.760  -1.758  -3.564  0.00  0.00    -0.275 OA
ATOM      3  N   UNL     1       1.504  -3.860  -2.904  0.00  0.00    -0.300 N 
ATOM      4  C   UNL     1       1.143  -4.952  -1.969  0.00  0.00    +0.121 C 
ATOM      5  C   UNL     1       0.462  -6.017  -2.857  0.00  0.00    +0.100 C 
ATOM      6  C   UNL     1       1.007  -5.755  -4.271  0.00  0.00    -0.004 C 
ATOM      7  C   UNL     1       1.959  -4.560  -4.129  0.00  0.00    +0.115 C 
ATOM      8  C   UNL     1      -0.135  -5.403  -5.220  0.00  0.00    -0.010 C 
ATOM      9  C   UNL     1       0.425  -5.204  -6.632  0.00  0.00    -0.082 C 
ATOM     10  N   UNL     1       1.093  -6.434  -7.073  0.00  0.00    +0.379 N 
ATOM     11  C   UNL     1       2.246  -6.715  -6.209  0.00  0.00    -0.082 C 
ATOM     12  C   UNL     1       1.764  -6.978  -4.780  0.00  0.00    -0.010 C 
ATOM     13  H   UNL     1       0.443  -7.204  -7.025  0.00  0.00    -0.086 HD
ATOM     14  H   UNL     1       1.408  -6.321  -8.025  0.00  0.00    -0.086 HD
ENDROOT
BRANCH   5  15
ATOM     15  C   UNL     1       0.836  -7.402  -2.395  0.00  0.00    +0.218 C 
ATOM     16  O   UNL     1       1.917  -7.599  -1.883  0.00  0.00    -0.275 OA
ATOM     17  N   UNL     1      -0.032  -8.421  -2.552  0.00  0.00    -0.317 N 
ATOM     18  H   UNL     1      -0.896  -8.264  -2.962  0.00  0.00    +0.149 HD
BRANCH  17  19
ATOM     19  C   UNL     1       0.332  -9.768  -2.104  0.00  0.00    +0.089 C 
BRANCH  19  20
ATOM     20  C   UNL     1      -0.820 -10.731  -2.397  0.00  0.00    -0.051 C 
ATOM     21  C   UNL     1      -0.386 -12.179  -2.085  0.00  0.00    -0.016 C 
ATOM     22  C   UNL     1      -1.052 -12.997  -3.223  0.00  0.00    -0.020 C 
ATOM     23  C   UNL     1      -0.944 -12.016  -4.417  0.00  0.00    -0.078 C 
ATOM     24  N   UNL     1      -1.169 -10.675  -3.828  0.00  0.00    +0.382 N 
ATOM     25  H   UNL     1      -0.586  -9.996  -4.294  0.00  0.00    -0.081 HD
BRANCH  24  26
ATOM     26  C   UNL     1      -2.581 -10.297  -3.978  0.00  0.00    -0.082 C 
ATOM     27  C   UNL     1      -2.906 -10.119  -5.462  0.00  0.00    -0.017 C 
ENDBRANCH  24  26
ENDBRANCH  19  20
ENDBRANCH  17  19
ENDBRANCH   5  15
BRANCH   1  28
ATOM     28  C   UNL     1       0.938  -2.007  -1.366  0.00  0.00    +0.072 C 
ATOM     29  C   UNL     1       1.851  -2.511  -0.246  0.00  0.00    +0.017 C 
BRANCH  28  30
ATOM     30  C   UNL     1       0.952  -0.477  -1.386  0.00  0.00    +0.012 C 
BRANCH  30  32
ATOM     31  C   UNL     1       0.350   1.585  -0.111  0.00  0.00    +0.004 C 
ATOM     32  C   UNL     1       0.336   0.055  -0.090  0.00  0.00    -0.003 C 
ENDBRANCH  30  32
ENDBRANCH  28  30
ENDBRANCH   1  28
TORSDOF 7
