REMARK  Name = ZINC13953799
REMARK  8 active torsions:
REMARK  status: ('A' for Active; 'I' for Inactive)
REMARK    1  A    between atoms: C_1  and  C_2
REMARK    2  A    between atoms: C_2  and  C_3
REMARK    3  A    between atoms: C_2  and  C_4
REMARK    4  A    between atoms: C_2  and  C_5
REMARK    5  A    between atoms: C_12  and  N_17
REMARK    6  A    between atoms: C_13  and  C_14
REMARK    7  A    between atoms: C_18  and  C_20
REMARK    8  A    between atoms: C_21  and  C_22
REMARK                            x       y       z     vdW  Elec       q    Type
REMARK                         _______ _______ _______ _____ _____    ______ ____
ROOT
ATOM      1  C   UNL     1      -1.273  12.730  -0.303  0.00  0.00    -0.000 C 
ATOM      2  C   UNL     1      -2.506  12.406   0.544  0.00  0.00    +0.009 C 
ATOM      3  C   UNL     1      -3.117  11.080   0.088  0.00  0.00    +0.037 C 
ATOM      4  C   UNL     1      -2.025  10.017   0.072  0.00  0.00    -0.023 A 
ATOM      5  C   UNL     1      -0.719  10.361   0.061  0.00  0.00    -0.004 A 
ATOM      6  S   UNL     1       0.155   8.822   0.045  0.00  0.00    -0.077 S 
ATOM      7  C   UNL     1      -1.194   7.734   0.053  0.00  0.00    +0.085 A 
ATOM      8  C   UNL     1      -2.289   8.588   0.062  0.00  0.00    +0.068 A 
ATOM      9  C   UNL     1      -0.150  11.747   0.061  0.00  0.00    +0.046 C 
ENDROOT
BRANCH   8  10
ATOM     10  C   UNL     1      -3.659   8.067   0.064  0.00  0.00    +0.244 C 
ATOM     11  O   UNL     1      -4.224   7.846   1.119  0.00  0.00    -0.270 OA
ATOM     12  N   UNL     1      -4.293   7.834  -1.102  0.00  0.00    -0.325 N 
ATOM     13  H   UNL     1      -3.843   8.010  -1.943  0.00  0.00    +0.145 HD
ATOM     14  H   UNL     1      -5.200   7.489  -1.100  0.00  0.00    +0.145 HD
ENDBRANCH   8  10
BRANCH   1  16
ATOM     15  C   UNL     1      -0.462  14.295   1.468  0.00  0.00    +0.011 C 
ATOM     16  C   UNL     1      -0.814  14.161  -0.015  0.00  0.00    -0.035 C 
ATOM     17  C   UNL     1       0.419  14.482  -0.863  0.00  0.00    +0.011 C 
ATOM     18  C   UNL     1      -1.940  15.137  -0.362  0.00  0.00    +0.011 C 
ENDBRANCH   1  16
BRANCH   7  19
ATOM     19  N   UNL     1      -1.183   6.349   0.046  0.00  0.00    -0.276 N 
ATOM     20  C   UNL     1      -0.010   5.685   0.031  0.00  0.00    +0.241 C 
ATOM     21  O   UNL     1       1.039   6.302   0.025  0.00  0.00    -0.270 OA
ATOM     22  H   UNL     1      -2.019   5.858   0.051  0.00  0.00    +0.156 HD
BRANCH  20  23
ATOM     23  C   UNL     1       0.001   4.222   0.024  0.00  0.00    +0.068 C 
ATOM     24  C   UNL     1       1.175   3.557   0.009  0.00  0.00    +0.014 C 
BRANCH  24  25
ATOM     25  C   UNL     1       1.187   2.087   0.002  0.00  0.00    -0.006 A 
ATOM     26  C   UNL     1      -0.017   1.374   0.010  0.00  0.00    +0.011 A 
ATOM     27  C   UNL     1       0.002  -0.004   0.002  0.00  0.00    +0.020 A 
ATOM     28  C   UNL     1       1.209  -0.685  -0.013  0.00  0.00    +0.042 A 
ATOM     29  C   UNL     1       2.405   0.013  -0.021  0.00  0.00    +0.040 A 
ATOM     30  C   UNL     1       2.403   1.393  -0.014  0.00  0.00    +0.049 A 
ATOM     31 CL   UNL     1       3.904   2.266  -0.025  0.00  0.00    -0.083 Cl
ATOM     32 CL   UNL     1       1.222  -2.421  -0.023  0.00  0.00    -0.083 Cl
ENDBRANCH  24  25
ENDBRANCH  20  23
ENDBRANCH   7  19
TORSDOF 5
