REMARK  Name = ZINC39635294
REMARK  5 active torsions:
REMARK  status: ('A' for Active; 'I' for Inactive)
REMARK    1  A    between atoms: C_1  and  C_2
REMARK    2  A    between atoms: C_3  and  C_15
REMARK    3  A    between atoms: C_4  and  C_7
REMARK    4  A    between atoms: C_19  and  C_28
REMARK    5  A    between atoms: N_30  and  C_31
REMARK                            x       y       z     vdW  Elec       q    Type
REMARK                         _______ _______ _______ _____ _____    ______ ____
ROOT
ATOM      1  C   UNL     1      -2.582  -0.086   0.856  0.00  0.00    +0.252 C 
ATOM      2  O   UNL     1      -3.413   0.109  -0.010  0.00  0.00    -0.270 OA
ATOM      3  N   UNL     1      -2.893   0.134   2.149  0.00  0.00    -0.296 N 
ATOM      4  C   UNL     1      -2.057  -0.135   3.343  0.00  0.00    +0.121 C 
ATOM      5  C   UNL     1      -2.315   1.067   4.279  0.00  0.00    +0.100 C 
ATOM      6  C   UNL     1      -3.690   1.609   3.852  0.00  0.00    -0.004 C 
ATOM      7  C   UNL     1      -4.146   0.704   2.698  0.00  0.00    +0.115 C 
ATOM      8  C   UNL     1      -3.563   3.049   3.367  0.00  0.00    -0.010 C 
ATOM      9  C   UNL     1      -4.951   3.584   3.003  0.00  0.00    -0.082 C 
ATOM     10  N   UNL     1      -5.827   3.517   4.179  0.00  0.00    +0.379 N 
ATOM     11  C   UNL     1      -6.018   2.119   4.583  0.00  0.00    -0.082 C 
ATOM     12  C   UNL     1      -4.675   1.522   5.014  0.00  0.00    -0.010 C 
ATOM     13  H   UNL     1      -5.408   4.031   4.939  0.00  0.00    -0.086 HD
ATOM     14  H   UNL     1      -6.722   3.926   3.954  0.00  0.00    -0.086 HD
ENDROOT
BRANCH   1  17
ATOM     15  C   UNL     1      -0.211   1.697  -0.129  0.00  0.00    +0.090 C 
ATOM     16  C   UNL     1      -0.192   0.202   0.062  0.00  0.00    +0.147 A 
ATOM     17  C   UNL     1      -1.237  -0.562   0.493  0.00  0.00    +0.106 A 
ATOM     18  C   UNL     1      -0.760  -1.953   0.526  0.00  0.00    +0.128 A 
ATOM     19  N   UNL     1       0.488  -1.937   0.129  0.00  0.00    -0.077 NA
ATOM     20  O   UNL     1       0.849  -0.603  -0.167  0.00  0.00    -0.359 OA
BRANCH  18  21
ATOM     21  C   UNL     1      -1.542  -3.146   0.930  0.00  0.00    +0.041 A 
ATOM     22  C   UNL     1      -2.709  -3.483   0.245  0.00  0.00    +0.052 A 
ATOM     23  C   UNL     1      -3.434  -4.596   0.626  0.00  0.00    +0.021 A 
ATOM     24  C   UNL     1      -3.005  -5.374   1.686  0.00  0.00    +0.003 A 
ATOM     25  C   UNL     1      -1.849  -5.044   2.370  0.00  0.00    +0.021 A 
ATOM     26  C   UNL     1      -1.112  -3.938   1.995  0.00  0.00    +0.052 A 
ATOM     27 CL   UNL     1       0.342  -3.530   2.850  0.00  0.00    -0.083 Cl
ATOM     28 CL   UNL     1      -3.250  -2.507  -1.085  0.00  0.00    -0.083 Cl
ENDBRANCH  18  21
ENDBRANCH   1  17
BRANCH   5  29
ATOM     29  C   UNL     1      -1.252   2.119   4.088  0.00  0.00    +0.218 C 
ATOM     30  O   UNL     1      -0.773   2.305   2.989  0.00  0.00    -0.275 OA
ATOM     31  N   UNL     1      -0.834   2.853   5.138  0.00  0.00    -0.312 N 
ATOM     32  H   UNL     1      -1.217   2.705   6.016  0.00  0.00    +0.149 HD
BRANCH  31  33
ATOM     33  C   UNL     1       0.199   3.875   4.952  0.00  0.00    +0.073 C 
ATOM     34  C   UNL     1      -0.338   5.314   5.026  0.00  0.00    +0.022 C 
ATOM     35  C   UNL     1      -0.078   5.250   6.540  0.00  0.00    +0.004 C 
ATOM     36  C   UNL     1       0.992   4.189   6.231  0.00  0.00    +0.022 C 
ENDBRANCH  31  33
ENDBRANCH   5  29
TORSDOF 4
