REMARK  Name = ZINC08212138
REMARK  7 active torsions:
REMARK  status: ('A' for Active; 'I' for Inactive)
REMARK    1  A    between atoms: C_1  and  C_2
REMARK    2  A    between atoms: C_2  and  O_3
REMARK    3  A    between atoms: O_3  and  C_4
REMARK    4  A    between atoms: C_11  and  C_13
REMARK    5  A    between atoms: C_11  and  C_14
REMARK    6  A    between atoms: C_11  and  N_63
REMARK    7  A    between atoms: N_19  and  C_20
REMARK                            x       y       z     vdW  Elec       q    Type
REMARK                         _______ _______ _______ _____ _____    ______ ____
ROOT
ATOM      1  C   UNL     1      -1.841   5.052  -2.164  0.00  0.00    +0.207 C 
ATOM      2  O   UNL     1      -1.574   5.597  -1.115  0.00  0.00    -0.277 OA
ATOM      3  N   UNL     1      -2.468   5.738  -3.140  0.00  0.00    -0.242 N 
ATOM      4  C   UNL     1      -2.798   7.031  -2.950  0.00  0.00    +0.306 C 
ATOM      5  O   UNL     1      -2.530   7.578  -1.898  0.00  0.00    -0.252 OA
ATOM      6  N   UNL     1      -3.425   7.717  -3.926  0.00  0.00    -0.294 N 
ATOM      7  H   UNL     1      -2.681   5.301  -3.980  0.00  0.00    +0.159 HD
ATOM      8  H   UNL     1      -3.638   7.280  -4.765  0.00  0.00    +0.151 HD
ENDROOT
BRANCH   6   9
ATOM      9  C   UNL     1      -3.784   9.122  -3.719  0.00  0.00    +0.037 C 
ATOM     10  C   UNL     1      -4.729   9.236  -2.521  0.00  0.00    +0.029 C 
ATOM     11  C   UNL     1      -5.104  10.704  -2.305  0.00  0.00    -0.008 C 
ATOM     12  C   UNL     1      -5.799  11.242  -3.557  0.00  0.00    +0.007 C 
ATOM     13  C   UNL     1      -4.854  11.128  -4.755  0.00  0.00    -0.008 C 
ATOM     14  C   UNL     1      -4.479   9.661  -4.971  0.00  0.00    +0.029 C 
ATOM     15  C   UNL     1      -3.588  11.943  -4.484  0.00  0.00    +0.007 C 
ATOM     16  C   UNL     1      -2.892  11.405  -3.232  0.00  0.00    -0.008 C 
ATOM     17  C   UNL     1      -3.837  11.519  -2.035  0.00  0.00    +0.007 C 
ATOM     18  C   UNL     1      -2.517   9.937  -3.449  0.00  0.00    +0.029 C 
ENDBRANCH   6   9
BRANCH   1  19
ATOM     19  C   UNL     1      -1.472   3.606  -2.377  0.00  0.00    +0.017 C 
ATOM     20  C   UNL     1      -0.080   3.523  -3.008  0.00  0.00    -0.004 C 
BRANCH  19  28
ATOM     21  C   UNL     1      -1.622   2.776   2.987  0.00  0.00    +0.403 C 
ATOM     22  O   UNL     1      -2.705   2.820   3.536  0.00  0.00    -0.226 OA
ATOM     23  N   UNL     1      -1.545   2.492   1.671  0.00  0.00    -0.271 N 
ATOM     24  C   UNL     1      -2.759   2.232   0.883  0.00  0.00    +0.092 C 
ATOM     25  C   UNL     1      -2.731   3.118  -0.367  0.00  0.00    -0.058 C 
ATOM     26  C   UNL     1      -0.316   3.316  -0.270  0.00  0.00    -0.058 C 
ATOM     27  C   UNL     1      -0.244   2.438   0.984  0.00  0.00    +0.092 C 
ATOM     28  N   UNL     1      -1.464   2.877  -1.092  0.00  0.00    +0.389 N 
ATOM     29  H   UNL     1      -1.374   1.872  -1.280  0.00  0.00    -0.081 HD
BRANCH  21  30
ATOM     30  O   UNL     1      -0.499   3.011   3.692  0.00  0.00    -0.451 OA
BRANCH  30  32
ATOM     31  C   UNL     1       0.716   3.546   5.732  0.00  0.00    +0.048 C 
ATOM     32  C   UNL     1      -0.658   3.311   5.104  0.00  0.00    +0.230 C 
ENDBRANCH  30  32
ENDBRANCH  21  30
ENDBRANCH  19  28
ENDBRANCH   1  19
TORSDOF 5
