REMARK  Name = ZINC38547878
REMARK  7 active torsions:
REMARK  status: ('A' for Active; 'I' for Inactive)
REMARK    1  A    between atoms: C_1  and  C_2
REMARK    2  A    between atoms: C_2  and  C_3
REMARK    3  A    between atoms: C_5  and  C_16
REMARK    4  A    between atoms: C_6  and  N_8
REMARK    5  A    between atoms: C_9  and  C_11
REMARK    6  A    between atoms: C_16  and  C_18
REMARK    7  A    between atoms: C_16  and  N_25
REMARK                            x       y       z     vdW  Elec       q    Type
REMARK                         _______ _______ _______ _____ _____    ______ ____
ROOT
ATOM      1  C   UNL     1       0.584  -1.599   4.804  0.00  0.00    +0.135 C 
ENDROOT
BRANCH   1   2
ATOM      2  N   UNL     1      -0.655  -0.861   5.061  0.00  0.00    -0.320 N 
ATOM      3  C   UNL     1      -0.990  -0.496   6.360  0.00  0.00    +0.097 A 
ATOM      4  C   UNL     1      -0.141  -0.830   7.410  0.00  0.00    +0.041 A 
ATOM      5  C   UNL     1      -0.487  -0.462   8.698  0.00  0.00    +0.005 A 
ATOM      6  C   UNL     1      -1.674   0.232   8.892  0.00  0.00    +0.018 A 
ATOM      7  C   UNL     1      -2.469   0.531   7.804  0.00  0.00    +0.084 A 
ATOM      8  N   UNL     1      -2.111   0.171   6.586  0.00  0.00    -0.350 N 
ATOM      9  H   UNL     1      -1.242  -0.626   4.325  0.00  0.00    +0.148 HD
ATOM     10  H   UNL     1      -2.686   0.397   5.838  0.00  0.00    +0.166 HD
ENDBRANCH   1   2
BRANCH   1  11
ATOM     11  C   UNL     1       0.343  -3.072   5.007  0.00  0.00    -0.023 A 
ATOM     12  C   UNL     1      -0.836  -3.646   4.569  0.00  0.00    +0.007 A 
ATOM     13  C   UNL     1      -1.058  -4.998   4.756  0.00  0.00    +0.015 A 
ATOM     14  C   UNL     1      -0.100  -5.776   5.380  0.00  0.00    +0.018 A 
ATOM     15  C   UNL     1       1.080  -5.201   5.818  0.00  0.00    +0.015 A 
ATOM     16  C   UNL     1       1.303  -3.850   5.627  0.00  0.00    +0.007 A 
ATOM     17 BR   UNL     1      -0.403  -7.625   5.636  0.00  0.00    -0.050 Br
ENDBRANCH   1  11
BRANCH   1  20
ATOM     18  C   UNL     1       0.542  -0.825   1.137  0.00  0.00    -0.008 A 
ATOM     19  C   UNL     1       0.108  -1.039   2.402  0.00  0.00    +0.019 A 
ATOM     20  C   UNL     1       1.029  -1.354   3.385  0.00  0.00    +0.006 A 
ATOM     21  C   UNL     1       2.346  -1.438   3.046  0.00  0.00    +0.078 A 
ATOM     22  S   UNL     1       2.302  -1.075   1.299  0.00  0.00    -0.078 S 
BRANCH  21  23
ATOM     23  N   UNL     1       3.445  -1.737   3.855  0.00  0.00    -0.273 N 
ATOM     24  C   UNL     1       4.683  -1.772   3.324  0.00  0.00    +0.284 C 
ATOM     25  O   UNL     1       4.844  -1.542   2.139  0.00  0.00    -0.266 OA
ATOM     26  H   UNL     1       3.316  -1.920   4.799  0.00  0.00    +0.156 HD
BRANCH  24  27
ATOM     27  C   UNL     1       5.836  -2.086   4.173  0.00  0.00    +0.189 A 
ATOM     28  C   UNL     1       7.138  -2.149   3.767  0.00  0.00    +0.054 A 
ATOM     29  C   UNL     1       7.899  -2.478   4.899  0.00  0.00    +0.042 A 
ATOM     30  C   UNL     1       7.039  -2.600   5.934  0.00  0.00    +0.196 A 
ATOM     31  O   UNL     1       5.798  -2.358   5.494  0.00  0.00    -0.458 OA
ENDBRANCH  24  27
ENDBRANCH  21  23
BRANCH  18  33
ATOM     32  C   UNL     1      -0.355   1.049  -0.217  0.00  0.00    +0.009 C 
ATOM     33  C   UNL     1      -0.257  -0.473  -0.092  0.00  0.00    +0.039 C 
ENDBRANCH  18  33
ENDBRANCH   1  20
TORSDOF 6
