REMARK  Name = ZINC32856231
REMARK  8 active torsions:
REMARK  status: ('A' for Active; 'I' for Inactive)
REMARK    1  A    between atoms: C_1  and  C_2
REMARK    2  A    between atoms: C_5  and  C_8
REMARK    3  A    between atoms: C_11  and  S_14
REMARK    4  A    between atoms: N_12  and  N_13
REMARK    5  A    between atoms: S_14  and  C_15
REMARK    6  A    between atoms: C_15  and  C_16
REMARK    7  A    between atoms: C_19  and  C_29
REMARK    8  A    between atoms: C_22  and  C_24
REMARK                            x       y       z     vdW  Elec       q    Type
REMARK                         _______ _______ _______ _____ _____    ______ ____
ROOT
ATOM      1  C   UNL     1       1.371   8.371   0.100  0.00  0.00    +0.175 C 
ENDROOT
BRANCH   1   2
ATOM      2  C   UNL     1       1.938   9.759   0.258  0.00  0.00    +0.246 C 
ATOM      3  O   UNL     1       3.103   9.908   0.559  0.00  0.00    -0.273 OA
ATOM      4  N   UNL     1       1.149  10.835   0.063  0.00  0.00    -0.181 N 
ATOM      5  C   UNL     1       1.572  12.239   0.184  0.00  0.00    +0.173 C 
ATOM      6  C   UNL     1       0.292  13.033  -0.141  0.00  0.00    +0.093 C 
ATOM      7  C   UNL     1      -0.741  11.963  -0.417  0.00  0.00    +0.104 C 
ATOM      8  N   UNL     1      -0.198  10.798  -0.291  0.00  0.00    -0.178 NA
BRANCH   7   9
ATOM      9  C   UNL     1      -2.140  12.211  -0.776  0.00  0.00    +0.150 A 
ATOM     10  C   UNL     1      -3.084  11.258  -1.028  0.00  0.00    +0.051 A 
ATOM     11  C   UNL     1      -4.277  11.939  -1.331  0.00  0.00    +0.042 A 
ATOM     12  C   UNL     1      -4.011  13.259  -1.251  0.00  0.00    +0.196 A 
ATOM     13  O   UNL     1      -2.722  13.420  -0.911  0.00  0.00    -0.462 OA
ENDBRANCH   7   9
BRANCH   5  14
ATOM     14  C   UNL     1       2.661  12.552  -0.811  0.00  0.00    +0.128 A 
ATOM     15  C   UNL     1       3.729  13.338  -0.587  0.00  0.00    +0.046 A 
ATOM     16  C   UNL     1       4.484  13.353  -1.782  0.00  0.00    +0.041 A 
ATOM     17  C   UNL     1       3.832  12.576  -2.665  0.00  0.00    +0.195 A 
ATOM     18  O   UNL     1       2.731  12.089  -2.070  0.00  0.00    -0.466 OA
ENDBRANCH   5  14
ENDBRANCH   1   2
BRANCH   1  19
ATOM     19  S   UNL     1       2.667   7.151   0.425  0.00  0.00    -0.075 S 
BRANCH  19  23
ATOM     20  C   UNL     1       1.172   3.565   0.011  0.00  0.00    +0.182 A 
ATOM     21  N   UNL     1       0.144   4.338  -0.254  0.00  0.00    -0.127 NA
ATOM     22  N   UNL     1       0.486   5.572  -0.150  0.00  0.00    -0.121 NA
ATOM     23  C   UNL     1       1.756   5.663   0.178  0.00  0.00    +0.209 A 
ATOM     24  N   UNL     1       2.236   4.390   0.291  0.00  0.00    -0.224 N 
BRANCH  20  29
ATOM     25  C   UNL     1       1.221  -2.189  -0.021  0.00  0.00    +0.044 C 
ATOM     26  C   UNL     1       1.208  -0.682  -0.013  0.00  0.00    -0.050 A 
ATOM     27  C   UNL     1       0.002  -0.004   0.002  0.00  0.00    +0.004 A 
ATOM     28  C   UNL     1      -0.017   1.375   0.010  0.00  0.00    +0.012 A 
ATOM     29  C   UNL     1       1.184   2.087   0.002  0.00  0.00    +0.021 A 
ATOM     30  C   UNL     1       2.397   1.396  -0.012  0.00  0.00    +0.012 A 
ATOM     31  C   UNL     1       2.402   0.016  -0.020  0.00  0.00    +0.004 A 
ENDBRANCH  20  29
BRANCH  24  32
ATOM     32  N   UNL     1       3.509   4.014   0.616  0.00  0.00    -0.295 N 
ATOM     33  H   UNL     1       4.273   4.779   0.819  0.00  0.00    +0.163 HD
ATOM     34  H   UNL     1       3.769   2.947   0.674  0.00  0.00    +0.163 HD
ENDBRANCH  24  32
ENDBRANCH  19  23
ENDBRANCH   1  19
TORSDOF 7
