REMARK  Name = ZINC63271835
REMARK  4 active torsions:
REMARK  status: ('A' for Active; 'I' for Inactive)
REMARK    1  A    between atoms: C_6  and  C_11
REMARK    2  A    between atoms: C_15  and  C_20
REMARK    3  A    between atoms: C_20  and  O_21
REMARK    4  A    between atoms: O_21  and  C_22
REMARK                            x       y       z     vdW  Elec       q    Type
REMARK                         _______ _______ _______ _____ _____    ______ ____
ROOT
ATOM      1  C   UNL     1       3.664  -2.775   1.204  0.00  0.00    +0.178 C 
ATOM      2  N   UNL     1       3.139  -4.164   1.290  0.00  0.00    -0.265 N 
ATOM      3  N   UNL     1       2.857  -4.595   2.552  0.00  0.00    -0.221 N 
ATOM      4  C   UNL     1       2.700  -5.808   3.200  0.00  0.00    +0.189 A 
ATOM      5  N   UNL     1       2.382  -5.564   4.437  0.00  0.00    -0.128 NA
ATOM      6  N   UNL     1       2.339  -4.294   4.639  0.00  0.00    -0.121 NA
ATOM      7  C   UNL     1       2.636  -3.672   3.541  0.00  0.00    +0.211 A 
ATOM      8  S   UNL     1       2.907  -2.101   2.746  0.00  0.00    -0.058 S 
ATOM      9  H   UNL     1       2.346  -4.290   0.679  0.00  0.00    +0.168 HD
ENDROOT
BRANCH   1  15
ATOM     10  C   UNL     1      -0.016   1.348   0.009  0.00  0.00    +0.001 A 
ATOM     11  C   UNL     1       1.166   2.101   0.002  0.00  0.00    +0.002 A 
ATOM     12  C   UNL     1       2.391   1.535  -0.013  0.00  0.00    +0.026 A 
ATOM     13  C   UNL     1       2.529   0.120  -0.022  0.00  0.00    +0.043 A 
ATOM     14  N   UNL     1       3.587  -0.654  -0.037  0.00  0.00    -0.375 N 
ATOM     15  C   UNL     1       3.143  -2.053  -0.041  0.00  0.00    +0.135 C 
ATOM     16  C   UNL     1       1.631  -2.008  -0.025  0.00  0.00    +0.010 C 
ATOM     17  C   UNL     1       1.295  -0.698  -0.014  0.00  0.00    -0.004 A 
ATOM     18  C   UNL     1       0.002  -0.004   0.002  0.00  0.00    +0.010 A 
ATOM     19  H   UNL     1       4.509  -0.353  -0.045  0.00  0.00    +0.160 HD
ENDBRANCH   1  15
BRANCH   4  20
ATOM     20  C   UNL     1       2.866  -7.171   2.580  0.00  0.00    +0.306 C 
BRANCH  20  21
ATOM     21  O   UNL     1       4.224  -7.594   2.717  0.00  0.00    -0.484 OA
BRANCH  21  22
ATOM     22  C   UNL     1       4.546  -8.813   2.207  0.00  0.00    +0.121 A 
ATOM     23  C   UNL     1       3.575  -9.582   1.583  0.00  0.00    +0.047 A 
ATOM     24  C   UNL     1       3.904 -10.820   1.065  0.00  0.00    +0.023 A 
ATOM     25  C   UNL     1       5.200 -11.293   1.170  0.00  0.00    +0.041 A 
ATOM     26  C   UNL     1       6.170 -10.527   1.793  0.00  0.00    +0.023 A 
ATOM     27  C   UNL     1       5.846  -9.286   2.306  0.00  0.00    +0.047 A 
ATOM     28 CL   UNL     1       5.611 -12.849   0.519  0.00  0.00    -0.084 Cl
ENDBRANCH  21  22
ENDBRANCH  20  21
ENDBRANCH   4  20
TORSDOF 4
