REMARK  Name = ZINC32759615
REMARK  8 active torsions:
REMARK  status: ('A' for Active; 'I' for Inactive)
REMARK    1  A    between atoms: C_1  and  C_2
REMARK    2  A    between atoms: C_3  and  C_14
REMARK    3  A    between atoms: C_4  and  C_13
REMARK    4  A    between atoms: N_5  and  C_7
REMARK    5  A    between atoms: N_21  and  C_22
REMARK    6  A    between atoms: C_22  and  C_23
REMARK    7  A    between atoms: N_25  and  C_26
REMARK    8  A    between atoms: C_32  and  C_34
REMARK                            x       y       z     vdW  Elec       q    Type
REMARK                         _______ _______ _______ _____ _____    ______ ____
ROOT
ATOM      1  C   UNL     1      -3.214   1.596  -0.164  0.00  0.00    +0.054 C 
ATOM      2  C   UNL     1      -3.128   2.535  -1.334  0.00  0.00    +0.204 C 
ATOM      3  O   UNL     1      -2.997   3.721  -1.118  0.00  0.00    -0.277 OA
ATOM      4  N   UNL     1      -3.189   2.117  -2.603  0.00  0.00    -0.318 N 
ATOM      5  C   UNL     1      -3.309   0.709  -2.970  0.00  0.00    +0.085 C 
ATOM      6  C   UNL     1      -3.796  -0.106  -1.771  0.00  0.00    -0.058 C 
ATOM      7  N   UNL     1      -2.957   0.218  -0.606  0.00  0.00    +0.397 N 
ATOM      8  H   UNL     1      -3.145   2.888  -3.386  0.00  0.00    +0.149 HD
ATOM      9  H   UNL     1      -1.901   0.140  -0.903  0.00  0.00    -0.079 HD
ENDROOT
BRANCH   1  12
ATOM     10  C   UNL     1      -0.091   1.090  -0.351  0.00  0.00    +0.068 C 
ATOM     11  C   UNL     1      -0.810   1.766   0.787  0.00  0.00    +0.063 A 
ATOM     12  C   UNL     1      -2.189   1.989   0.869  0.00  0.00    -0.009 A 
ATOM     13  C   UNL     1      -2.441   2.616   2.041  0.00  0.00    +0.044 A 
ATOM     14  N   UNL     1      -1.260   2.793   2.675  0.00  0.00    -0.237 N 
ATOM     15  N   UNL     1      -0.252   2.251   1.867  0.00  0.00    -0.171 NA
ATOM     16  C   UNL     1      -3.794   3.046   2.547  0.00  0.00    +0.066 C 
BRANCH  14  17
ATOM     17  C   UNL     1      -1.076   3.410   3.920  0.00  0.00    +0.066 A 
ATOM     18  C   UNL     1      -1.874   4.485   4.289  0.00  0.00    +0.028 A 
ATOM     19  C   UNL     1      -1.694   5.088   5.518  0.00  0.00    +0.002 A 
ATOM     20  C   UNL     1      -0.713   4.629   6.378  0.00  0.00    +0.000 A 
ATOM     21  C   UNL     1       0.087   3.562   6.012  0.00  0.00    +0.002 A 
ATOM     22  C   UNL     1      -0.092   2.951   4.785  0.00  0.00    +0.028 A 
ENDBRANCH  14  17
ENDBRANCH   1  12
BRANCH   7  23
ATOM     23  C   UNL     1      -3.182  -0.736   0.487  0.00  0.00    +0.020 C 
BRANCH  23  24
ATOM     24  C   UNL     1      -4.642  -0.736   0.861  0.00  0.00    +0.197 C 
ATOM     25  O   UNL     1      -5.399   0.062   0.351  0.00  0.00    -0.278 OA
ATOM     26  N   UNL     1      -5.107  -1.624   1.762  0.00  0.00    -0.314 N 
ATOM     27  H   UNL     1      -4.420  -2.349   2.225  0.00  0.00    +0.149 HD
BRANCH  26  28
ATOM     28  C   UNL     1      -6.526  -1.625   2.126  0.00  0.00    +0.076 C 
ATOM     29  C   UNL     1      -7.311  -2.462   1.114  0.00  0.00    +0.022 C 
ATOM     30  C   UNL     1      -8.793  -2.462   1.494  0.00  0.00    +0.002 C 
ATOM     31  C   UNL     1      -8.962  -3.061   2.892  0.00  0.00    +0.000 C 
ATOM     32  C   UNL     1      -8.176  -2.224   3.903  0.00  0.00    +0.005 C 
ATOM     33  C   UNL     1      -6.694  -2.223   3.524  0.00  0.00    +0.006 C 
ATOM     34  C   UNL     1      -5.909  -1.386   4.535  0.00  0.00    +0.009 C 
ENDBRANCH  26  28
ENDBRANCH  23  24
ENDBRANCH   7  23
TORSDOF 5
