REMARK  Name = ZINC39866492
REMARK  5 active torsions:
REMARK  status: ('A' for Active; 'I' for Inactive)
REMARK    1  A    between atoms: C_1  and  C_2
REMARK    2  A    between atoms: C_5  and  N_7
REMARK    3  A    between atoms: N_9  and  C_22
REMARK    4  A    between atoms: C_13  and  C_14
REMARK    5  A    between atoms: C_17  and  O_20
REMARK                            x       y       z     vdW  Elec       q    Type
REMARK                         _______ _______ _______ _____ _____    ______ ____
ROOT
ATOM      1  N   UNL     1      -1.414  -4.050   0.510  0.00  0.00    -0.198 NA
ATOM      2  C   UNL     1      -1.143  -4.996  -0.365  0.00  0.00    +0.171 C 
ATOM      3  N   UNL     1      -1.073  -4.899  -1.736  0.00  0.00    -0.243 N 
ATOM      4  C   UNL     1      -0.786  -5.958  -2.474  0.00  0.00    +0.259 C 
ATOM      5  O   UNL     1      -0.720  -5.890  -3.687  0.00  0.00    -0.269 OA
ATOM      6  C   UNL     1      -0.549  -7.227  -1.759  0.00  0.00    +0.078 C 
ATOM      7  C   UNL     1      -0.242  -8.452  -2.256  0.00  0.00    +0.028 C 
ATOM      8  S   UNL     1      -0.769  -6.715  -0.061  0.00  0.00    -0.049 S 
ENDROOT
BRANCH   1  13
ATOM      9  C   UNL     1      -3.677   0.625  -1.302  0.00  0.00    +0.075 C 
ATOM     10  C   UNL     1      -2.880  -0.549  -0.794  0.00  0.00    +0.101 A 
ATOM     11  N   UNL     1      -1.603  -0.631  -0.477  0.00  0.00    -0.145 NA
ATOM     12  N   UNL     1      -1.080  -1.701  -0.062  0.00  0.00    -0.121 NA
ATOM     13  C   UNL     1      -1.794  -2.818   0.082  0.00  0.00    +0.217 A 
ATOM     14  S   UNL     1      -3.401  -2.225  -0.443  0.00  0.00    -0.031 S 
ENDBRANCH   1  13
BRANCH   7  15
ATOM     15  C   UNL     1      -0.210  -9.620  -1.366  0.00  0.00    -0.024 A 
ATOM     16  C   UNL     1      -0.841  -9.568  -0.117  0.00  0.00    +0.011 A 
ATOM     17  C   UNL     1      -0.808 -10.665   0.714  0.00  0.00    +0.046 A 
ATOM     18  C   UNL     1      -0.151 -11.823   0.315  0.00  0.00    +0.117 A 
ATOM     19  C   UNL     1       0.477 -11.880  -0.924  0.00  0.00    +0.046 A 
ATOM     20  C   UNL     1       0.445 -10.791  -1.766  0.00  0.00    +0.011 A 
BRANCH  18  21
ATOM     21  O   UNL     1      -0.121 -12.902   1.138  0.00  0.00    -0.507 OA
ATOM     22  H   UNL     1      -0.860 -13.513   1.012  0.00  0.00    +0.292 HD
ENDBRANCH  18  21
ENDBRANCH   7  15
BRANCH   3  23
ATOM     23  C   UNL     1      -1.318  -3.609  -2.385  0.00  0.00    +0.084 C 
ATOM     24  C   UNL     1      -2.622  -3.680  -3.184  0.00  0.00    +0.023 C 
ATOM     25  C   UNL     1      -2.878  -2.332  -3.861  0.00  0.00    +0.002 C 
ATOM     26  C   UNL     1      -1.719  -2.007  -4.806  0.00  0.00    +0.000 C 
ATOM     27  C   UNL     1      -0.416  -1.936  -4.007  0.00  0.00    +0.002 C 
ATOM     28  C   UNL     1      -0.159  -3.284  -3.329  0.00  0.00    +0.023 C 
ENDBRANCH   3  23
TORSDOF 4
