REMARK  Name = ZINC04251684
REMARK  7 active torsions:
REMARK  status: ('A' for Active; 'I' for Inactive)
REMARK    1  A    between atoms: C_1  and  C_2
REMARK    2  A    between atoms: C_15  and  C_17
REMARK    3  A    between atoms: C_17  and  C_19
REMARK    4  A    between atoms: C_17  and  O_20
REMARK    5  A    between atoms: O_20  and  C_21
REMARK    6  A    between atoms: C_21  and  C_23
REMARK    7  A    between atoms: N_27  and  C_28
REMARK                            x       y       z     vdW  Elec       q    Type
REMARK                         _______ _______ _______ _____ _____    ______ ____
ROOT
ATOM      1  C   UNL     1       3.546   2.093  -1.322  0.00  0.00    +0.008 C 
ATOM      2  C   UNL     1       2.194   1.398  -1.157  0.00  0.00    -0.009 C 
ATOM      3  C   UNL     1       1.421   2.037  -0.001  0.00  0.00    +0.008 C 
ATOM      4  C   UNL     1      -0.019   1.522   0.010  0.00  0.00    +0.037 C 
ATOM      5  C   UNL     1       0.002  -0.004   0.002  0.00  0.00    -0.023 A 
ATOM      6  C   UNL     1       1.113  -0.674  -0.386  0.00  0.00    -0.004 A 
ATOM      7  S   UNL     1       0.692  -2.393  -0.240  0.00  0.00    -0.073 S 
ATOM      8  C   UNL     1      -0.965  -2.210   0.338  0.00  0.00    +0.116 A 
ATOM      9  C   UNL     1      -1.139  -0.809   0.399  0.00  0.00    +0.075 A 
ATOM     10  C   UNL     1      -2.417  -0.330   0.843  0.00  0.00    +0.260 A 
ATOM     11  O   UNL     1      -2.669   0.859   0.931  0.00  0.00    -0.267 OA
ATOM     12  N   UNL     1      -3.325  -1.284   1.159  0.00  0.00    -0.307 N 
ATOM     13  H   UNL     1      -4.202  -1.005   1.464  0.00  0.00    +0.170 HD
ATOM     14  C   UNL     1      -3.065  -2.611   1.068  0.00  0.00    +0.152 A 
ATOM     15  N   UNL     1      -1.908  -3.088   0.665  0.00  0.00    -0.223 NA
ATOM     16  C   UNL     1       2.414  -0.088  -0.839  0.00  0.00    +0.046 C 
ENDROOT
BRANCH  14  17
ATOM     17  C   UNL     1      -4.152  -3.584   1.446  0.00  0.00    +0.239 C 
ATOM     18  C   UNL     1      -3.793  -4.977   0.925  0.00  0.00    +0.060 C 
BRANCH  17  19
ATOM     19  O   UNL     1      -4.282  -3.626   2.892  0.00  0.00    -0.449 OA
BRANCH  19  20
ATOM     20  C   UNL     1      -5.505  -3.902   3.389  0.00  0.00    +0.356 C 
ATOM     21  O   UNL     1      -6.437  -4.103   2.633  0.00  0.00    -0.243 OA
BRANCH  20  22
ATOM     22  C   UNL     1      -5.711  -3.962   4.838  0.00  0.00    +0.127 A 
ATOM     23  C   UNL     1      -6.900  -4.233   5.483  0.00  0.00    +0.034 A 
ATOM     24  C   UNL     1      -6.639  -4.187   6.856  0.00  0.00    +0.020 A 
ATOM     25  C   UNL     1      -5.326  -3.896   7.019  0.00  0.00    +0.086 A 
ATOM     26  N   UNL     1      -4.752  -3.763   5.805  0.00  0.00    -0.345 N 
ATOM     27  C   UNL     1      -3.341  -3.454   5.558  0.00  0.00    +0.149 C 
ENDBRANCH  20  22
ENDBRANCH  19  20
ENDBRANCH  17  19
ENDBRANCH  14  17
TORSDOF 4
