REMARK  Name = ZINC18199745
REMARK  5 active torsions:
REMARK  status: ('A' for Active; 'I' for Inactive)
REMARK    1  A    between atoms: C_1  and  O_2
REMARK    2  A    between atoms: O_2  and  C_3
REMARK    3  A    between atoms: C_5  and  C_10
REMARK    4  A    between atoms: C_8  and  O_9
REMARK    5  A    between atoms: C_15  and  C_20
REMARK                            x       y       z     vdW  Elec       q    Type
REMARK                         _______ _______ _______ _____ _____    ______ ____
ROOT
ATOM      1  C   UNL     1       1.044  -2.199   0.618  0.00  0.00    +0.176 C 
ATOM      2  C   UNL     1       1.005  -0.687   0.594  0.00  0.00    +0.041 C 
ATOM      3  C   UNL     1       0.002  -0.004   0.002  0.00  0.00    +0.020 C 
ATOM      4  C   UNL     1      -0.018   1.506   0.010  0.00  0.00    +0.060 C 
ATOM      5  C   UNL     1       1.416   2.039  -0.001  0.00  0.00    +0.039 C 
ATOM      6  C   UNL     1       2.143   1.492   1.232  0.00  0.00    +0.088 C 
ATOM      7  C   UNL     1       2.069  -0.010   1.217  0.00  0.00    +0.164 C 
ATOM      8  O   UNL     1       2.949  -0.653   1.754  0.00  0.00    -0.292 OA
ATOM      9  N   UNL     1      -1.033  -0.645  -0.635  0.00  0.00    -0.287 N 
ATOM     10  C   UNL     1      -0.889  -1.993  -0.918  0.00  0.00    +0.220 A 
ATOM     11  N   UNL     1       0.087  -2.737  -0.341  0.00  0.00    -0.219 N 
ATOM     12  N   UNL     1      -0.046  -4.030  -0.845  0.00  0.00    -0.132 NA
ATOM     13  C   UNL     1      -1.067  -4.010  -1.674  0.00  0.00    +0.233 A 
ATOM     14  N   UNL     1      -1.575  -2.769  -1.712  0.00  0.00    -0.180 NA
ATOM     15  N   UNL     1      -1.545  -5.104  -2.398  0.00  0.00    -0.326 N 
ATOM     16  H   UNL     1      -1.842  -0.168  -0.878  0.00  0.00    +0.155 HD
ATOM     17  H   UNL     1      -1.116  -5.969  -2.309  0.00  0.00    +0.145 HD
ATOM     18  H   UNL     1      -2.307  -4.998  -2.989  0.00  0.00    +0.145 HD
ENDROOT
BRANCH   1  21
ATOM     19  C   UNL     1       1.290  -3.889   3.987  0.00  0.00    +0.162 A 
ATOM     20  C   UNL     1       1.607  -3.443   2.714  0.00  0.00    +0.055 A 
ATOM     21  C   UNL     1       0.696  -2.687   2.000  0.00  0.00    -0.015 A 
ATOM     22  C   UNL     1      -0.536  -2.384   2.549  0.00  0.00    +0.010 A 
ATOM     23  C   UNL     1      -0.860  -2.830   3.817  0.00  0.00    +0.049 A 
ATOM     24  C   UNL     1       0.050  -3.583   4.540  0.00  0.00    +0.158 A 
BRANCH  19  26
ATOM     25  C   UNL     1       3.440  -4.903   4.064  0.00  0.00    +0.277 C 
ATOM     26  O   UNL     1       2.187  -4.628   4.694  0.00  0.00    -0.491 OA
ENDBRANCH  19  26
BRANCH  24  27
ATOM     27  O   UNL     1      -0.268  -4.024   5.787  0.00  0.00    -0.503 OA
ATOM     28  H   UNL     1      -0.696  -4.890   5.801  0.00  0.00    +0.292 HD
ENDBRANCH  24  27
ENDBRANCH   1  21
BRANCH   5  29
ATOM     29  C   UNL     1       1.398   3.546   0.048  0.00  0.00    -0.006 A 
ATOM     30  C   UNL     1       1.901   4.434  -0.843  0.00  0.00    +0.011 A 
ATOM     31  C   UNL     1       1.765   5.786  -0.592  0.00  0.00    +0.008 A 
ATOM     32  C   UNL     1       1.141   6.184   0.544  0.00  0.00    +0.045 A 
ATOM     33  S   UNL     1       0.715   4.622   1.298  0.00  0.00    -0.101 S 
ENDBRANCH   5  29
TORSDOF 4
