REMARK  Name = ZINC19020120
REMARK  5 active torsions:
REMARK  status: ('A' for Active; 'I' for Inactive)
REMARK    1  A    between atoms: C_1  and  C_2
REMARK    2  A    between atoms: N_4  and  C_5
REMARK    3  A    between atoms: C_5  and  C_7
REMARK    4  A    between atoms: C_5  and  C_14
REMARK    5  A    between atoms: C_7  and  C_8
REMARK                            x       y       z     vdW  Elec       q    Type
REMARK                         _______ _______ _______ _____ _____    ______ ____
ROOT
ATOM      1  C   UNL     1      -1.415   0.722   2.016  0.00  0.00    +0.236 C 
ATOM      2  O   UNL     1      -1.450  -0.458   1.739  0.00  0.00    -0.274 OA
ATOM      3  N   UNL     1      -0.733   1.579   1.230  0.00  0.00    -0.300 N 
ATOM      4  C   UNL     1      -0.686   2.977   1.545  0.00  0.00    +0.108 C 
ATOM      5  C   UNL     1      -1.827   3.846   0.960  0.00  0.00    +0.023 C 
ATOM      6  C   UNL     1      -2.126   3.423  -0.496  0.00  0.00    +0.049 C 
ATOM      7  C   UNL     1      -0.861   3.099  -1.240  0.00  0.00    +0.112 C 
ATOM      8  C   UNL     1      -0.974   3.517  -2.701  0.00  0.00    +0.053 C 
ATOM      9  C   UNL     1      -0.944   5.023  -2.869  0.00  0.00    +0.042 C 
ATOM     10  C   UNL     1       0.050   5.672  -1.948  0.00  0.00    -0.006 A 
ATOM     11  C   UNL     1       0.428   6.983  -2.188  0.00  0.00    +0.007 A 
ATOM     12  C   UNL     1       1.335   7.612  -1.358  0.00  0.00    +0.000 A 
ATOM     13  C   UNL     1       1.870   6.931  -0.280  0.00  0.00    +0.004 A 
ATOM     14  C   UNL     1       1.500   5.625  -0.038  0.00  0.00    +0.046 A 
ATOM     15  C   UNL     1       0.589   4.986  -0.874  0.00  0.00    +0.124 A 
ATOM     16  O   UNL     1       0.263   3.700  -0.617  0.00  0.00    -0.485 OA
ATOM     17  C   UNL     1      -0.736   1.578  -1.162  0.00  0.00    +0.067 C 
ATOM     18  C   UNL     1      -0.013   1.086   0.008  0.00  0.00    +0.111 C 
ENDROOT
BRANCH   1  19
ATOM     19  C   UNL     1      -2.134   1.231   3.239  0.00  0.00    +0.165 C 
BRANCH  19  23
ATOM     20  C   UNL     1      -3.852  -1.991   4.389  0.00  0.00    +0.109 C 
ATOM     21  C   UNL     1      -2.800  -0.995   3.973  0.00  0.00    +0.211 C 
ATOM     22  O   UNL     1      -1.633  -1.324   3.937  0.00  0.00    -0.276 OA
ATOM     23  N   UNL     1      -3.156   0.262   3.642  0.00  0.00    -0.304 N 
ATOM     24  H   UNL     1      -4.089   0.526   3.672  0.00  0.00    +0.149 HD
ENDBRANCH  19  23
BRANCH  19  25
ATOM     25  C   UNL     1      -1.131   1.419   4.378  0.00  0.00    +0.086 C 
BRANCH  25  26
ATOM     26  C   UNL     1      -1.825   2.042   5.562  0.00  0.00    +0.038 A 
ATOM     27  C   UNL     1      -2.029   3.357   5.772  0.00  0.00    +0.133 A 
ATOM     28  N   UNL     1      -2.683   3.494   6.934  0.00  0.00    -0.244 NA
ATOM     29  C   UNL     1      -2.885   2.316   7.457  0.00  0.00    +0.196 A 
ATOM     30  N   UNL     1      -2.365   1.382   6.632  0.00  0.00    -0.348 N 
ATOM     31  H   UNL     1      -2.373   0.392   6.776  0.00  0.00    +0.166 HD
ENDBRANCH  25  26
ENDBRANCH  19  25
ENDBRANCH   1  19
TORSDOF 4
