REMARK  Name = ZINC20170894
REMARK  9 active torsions:
REMARK  status: ('A' for Active; 'I' for Inactive)
REMARK    1  A    between atoms: C_1  and  C_2
REMARK    2  A    between atoms: C_2  and  O_3
REMARK    3  A    between atoms: O_3  and  C_4
REMARK    4  A    between atoms: C_4  and  C_6
REMARK    5  A    between atoms: C_8  and  C_26
REMARK    6  A    between atoms: C_13  and  C_20
REMARK    7  A    between atoms: C_14  and  C_18
REMARK    8  A    between atoms: C_15  and  N_17
REMARK    9  A    between atoms: C_24  and  O_25
REMARK                            x       y       z     vdW  Elec       q    Type
REMARK                         _______ _______ _______ _____ _____    ______ ____
ROOT
ATOM      1  C   UNL     1       1.516  -2.381   2.500  0.00  0.00    +0.194 C 
ATOM      2  C   UNL     1       1.466  -3.907   2.427  0.00  0.00    +0.078 C 
ATOM      3  C   UNL     1       2.475  -4.362   1.374  0.00  0.00    +0.020 A 
ATOM      4  C   UNL     1       2.333  -5.511   0.589  0.00  0.00    +0.086 A 
ATOM      5  C   UNL     1       3.386  -5.777  -0.334  0.00  0.00    +0.044 A 
ATOM      6  C   UNL     1       3.418  -6.856  -1.178  0.00  0.00    -0.014 A 
ATOM      7  C   UNL     1       2.307  -7.721  -1.079  0.00  0.00    +0.095 A 
ATOM      8  C   UNL     1       1.284  -7.429  -0.160  0.00  0.00    +0.135 A 
ATOM      9  N   UNL     1       1.289  -6.379   0.638  0.00  0.00    -0.230 NA
ATOM     10  C   UNL     1       4.553  -7.100  -2.139  0.00  0.00    +0.046 C 
ATOM     11  S   UNL     1       4.509  -4.436  -0.083  0.00  0.00    -0.067 S 
ATOM     12  C   UNL     1       3.602  -3.591   1.182  0.00  0.00    +0.111 A 
ATOM     13  N   UNL     1       3.882  -2.451   1.843  0.00  0.00    -0.209 NA
ATOM     14  C   UNL     1       2.929  -1.870   2.516  0.00  0.00    +0.203 C 
ENDROOT
BRANCH   2  15
ATOM     15  C   UNL     1       1.827  -4.494   3.767  0.00  0.00    -0.020 A 
ATOM     16  C   UNL     1       3.061  -4.227   4.329  0.00  0.00    +0.006 A 
ATOM     17  C   UNL     1       3.393  -4.765   5.558  0.00  0.00    +0.000 A 
ATOM     18  C   UNL     1       2.489  -5.571   6.226  0.00  0.00    +0.001 A 
ATOM     19  C   UNL     1       1.255  -5.838   5.666  0.00  0.00    +0.020 A 
ATOM     20  C   UNL     1       0.920  -5.295   4.438  0.00  0.00    +0.045 A 
ATOM     21 CL   UNL     1      -0.633  -5.626   3.736  0.00  0.00    -0.083 Cl
ENDBRANCH   2  15
BRANCH   8  22
ATOM     22  N   UNL     1       0.205  -8.297  -0.087  0.00  0.00    -0.342 N 
ATOM     23  H   UNL     1       0.173  -9.078  -0.661  0.00  0.00    +0.144 HD
ATOM     24  H   UNL     1      -0.516  -8.123   0.537  0.00  0.00    +0.144 HD
ENDBRANCH   8  22
BRANCH   1  25
ATOM     25  C   UNL     1       0.801  -1.808   1.304  0.00  0.00    +0.320 C 
ATOM     26  O   UNL     1       0.324  -2.546   0.475  0.00  0.00    -0.250 OA
BRANCH  25  27
ATOM     27  O   UNL     1       0.693  -0.477   1.160  0.00  0.00    -0.464 OA
BRANCH  27  29
ATOM     28  C   UNL     1      -0.019   1.526   0.010  0.00  0.00    +0.048 C 
ATOM     29  C   UNL     1       0.002  -0.004   0.002  0.00  0.00    +0.229 C 
ENDBRANCH  27  29
ENDBRANCH  25  27
ENDBRANCH   1  25
BRANCH   7  30
ATOM     30  C   UNL     1       2.223  -8.885  -1.908  0.00  0.00    +0.103 C 
ATOM     31  N   UNL     1       2.155  -9.809  -2.566  0.00  0.00    -0.191 NA
ENDBRANCH   7  30
BRANCH  14  32
ATOM     32  O   UNL     1       3.221  -0.777   3.248  0.00  0.00    -0.495 OA
ATOM     33  H   UNL     1       4.150  -0.512   3.207  0.00  0.00    +0.293 HD
ENDBRANCH  14  32
TORSDOF 7
