REMARK  Name = ZINC46813493
REMARK  6 active torsions:
REMARK  status: ('A' for Active; 'I' for Inactive)
REMARK    1  A    between atoms: C_1  and  C_2
REMARK    2  A    between atoms: C_2  and  C_3
REMARK    3  A    between atoms: C_2  and  N_4
REMARK    4  A    between atoms: C_10  and  C_13
REMARK    5  A    between atoms: N_15  and  C_16
REMARK    6  A    between atoms: C_16  and  C_17
REMARK                            x       y       z     vdW  Elec       q    Type
REMARK                         _______ _______ _______ _____ _____    ______ ____
ROOT
ATOM      1  N   UNL     1      -1.372  -0.512   0.012  0.00  0.00    -0.297 N 
ATOM      2  C   UNL     1      -2.051  -0.643  -1.145  0.00  0.00    +0.302 C 
ATOM      3  O   UNL     1      -1.557  -0.255  -2.186  0.00  0.00    -0.253 OA
ATOM      4  N   UNL     1      -3.277  -1.203  -1.147  0.00  0.00    -0.286 N 
ATOM      5  C   UNL     1      -3.935  -1.569   0.115  0.00  0.00    +0.110 C 
ATOM      6  C   UNL     1      -4.353  -3.041   0.043  0.00  0.00    +0.032 C 
ATOM      7  C   UNL     1      -5.214  -3.263  -1.202  0.00  0.00    +0.078 C 
ATOM      8  C   UNL     1      -4.398  -2.931  -2.454  0.00  0.00    +0.032 C 
ATOM      9  C   UNL     1      -3.983  -1.453  -2.411  0.00  0.00    +0.110 C 
ATOM     10  H   UNL     1      -1.794  -0.753   0.852  0.00  0.00    +0.150 HD
ENDROOT
BRANCH   7  11
ATOM     11  C   UNL     1      -5.655  -4.703  -1.258  0.00  0.00    +0.216 C 
ATOM     12  O   UNL     1      -5.315  -5.475  -0.387  0.00  0.00    -0.276 OA
ATOM     13  N   UNL     1      -6.428  -5.132  -2.275  0.00  0.00    -0.311 N 
ATOM     14  H   UNL     1      -6.701  -4.514  -2.971  0.00  0.00    +0.149 HD
BRANCH  13  15
ATOM     15  C   UNL     1      -6.858  -6.532  -2.329  0.00  0.00    +0.142 C 
BRANCH  15  16
ATOM     16  C   UNL     1      -7.705  -6.750  -3.555  0.00  0.00    +0.006 A 
ATOM     17  C   UNL     1      -9.083  -6.773  -3.448  0.00  0.00    +0.023 A 
ATOM     18  C   UNL     1      -9.862  -6.973  -4.574  0.00  0.00    +0.018 A 
ATOM     19  C   UNL     1      -9.262  -7.152  -5.807  0.00  0.00    +0.018 A 
ATOM     20  C   UNL     1      -7.885  -7.130  -5.916  0.00  0.00    +0.040 A 
ATOM     21  C   UNL     1      -7.105  -6.923  -4.790  0.00  0.00    +0.128 A 
ATOM     22  F   UNL     1      -5.758  -6.896  -4.897  0.00  0.00    -0.205 F 
ATOM     23 BR   UNL     1     -11.746  -7.004  -4.426  0.00  0.00    -0.050 Br
ENDBRANCH  15  16
ENDBRANCH  13  15
ENDBRANCH   7  11
BRANCH   1  25
ATOM     24  C   UNL     1      -0.016   1.524   0.010  0.00  0.00    +0.027 C 
ATOM     25  C   UNL     1       0.003  -0.006   0.002  0.00  0.00    +0.068 C 
ATOM     26  C   UNL     1       0.743  -0.514   1.241  0.00  0.00    +0.027 C 
ENDBRANCH   1  25
TORSDOF 4
