REMARK  Name = ZINC13567267
REMARK  8 active torsions:
REMARK  status: ('A' for Active; 'I' for Inactive)
REMARK    1  A    between atoms: C_1  and  O_2
REMARK    2  A    between atoms: O_2  and  C_3
REMARK    3  A    between atoms: C_7  and  C_11
REMARK    4  A    between atoms: C_8  and  O_9
REMARK    5  A    between atoms: O_9  and  C_10
REMARK    6  A    between atoms: C_22  and  S_24
REMARK    7  A    between atoms: S_24  and  C_25
REMARK    8  A    between atoms: C_25  and  C_26
REMARK                            x       y       z     vdW  Elec       q    Type
REMARK                         _______ _______ _______ _____ _____    ______ ____
ROOT
ATOM      1  C   UNL     1      -2.214  -4.490  -0.838  0.00  0.00    +0.070 C 
ATOM      2  C   UNL     1      -2.810  -4.702  -2.231  0.00  0.00    +0.109 C 
ATOM      3  C   UNL     1      -4.312  -4.715  -2.151  0.00  0.00    +0.219 C 
ATOM      4  O   UNL     1      -4.964  -4.246  -3.059  0.00  0.00    -0.275 OA
ATOM      5  N   UNL     1      -4.943  -5.242  -1.085  0.00  0.00    -0.270 N 
ATOM      6  C   UNL     1      -4.217  -5.761  -0.021  0.00  0.00    +0.137 A 
ATOM      7  C   UNL     1      -2.879  -5.420   0.138  0.00  0.00    +0.067 A 
ATOM      8  C   UNL     1      -2.176  -5.953   1.210  0.00  0.00    +0.280 A 
ATOM      9  O   UNL     1      -0.870  -5.644   1.399  0.00  0.00    -0.265 OA
ATOM     10  N   UNL     1      -2.806  -6.772   2.047  0.00  0.00    -0.183 NA
ATOM     11  C   UNL     1      -4.083  -7.077   1.866  0.00  0.00    +0.194 A 
ATOM     12  N   UNL     1      -4.784  -6.585   0.853  0.00  0.00    -0.206 NA
ATOM     13  H   UNL     1      -5.912  -5.258  -1.058  0.00  0.00    +0.156 HD
ENDROOT
BRANCH   1  18
ATOM     14  C   UNL     1      -1.575  -0.891   0.147  0.00  0.00    +0.162 A 
ATOM     15  C   UNL     1      -2.864  -0.442   0.386  0.00  0.00    +0.049 A 
ATOM     16  C   UNL     1      -3.935  -1.302   0.228  0.00  0.00    +0.004 A 
ATOM     17  C   UNL     1      -3.724  -2.609  -0.168  0.00  0.00    +0.008 A 
ATOM     18  C   UNL     1      -2.441  -3.063  -0.407  0.00  0.00    +0.006 A 
ATOM     19  C   UNL     1      -1.363  -2.206  -0.257  0.00  0.00    +0.165 A 
BRANCH  14  21
ATOM     20  C   UNL     1      -0.813   1.288   0.718  0.00  0.00    +0.277 C 
ATOM     21  O   UNL     1      -0.520  -0.047   0.301  0.00  0.00    -0.491 OA
ENDBRANCH  14  21
BRANCH  19  22
ATOM     22  O   UNL     1      -0.100  -2.649  -0.498  0.00  0.00    -0.491 OA
ATOM     23  C   UNL     1       0.659  -3.090   0.629  0.00  0.00    +0.277 C 
ENDBRANCH  19  22
ENDBRANCH   1  18
BRANCH  11  24
ATOM     24  S   UNL     1      -4.872  -8.168   3.003  0.00  0.00    -0.081 S 
BRANCH  24  25
ATOM     25  C   UNL     1      -3.567  -8.581   4.192  0.00  0.00    +0.112 C 
BRANCH  25  26
ATOM     26  C   UNL     1      -4.116  -9.521   5.234  0.00  0.00    -0.037 A 
ATOM     27  C   UNL     1      -4.692  -9.017   6.385  0.00  0.00    +0.006 A 
ATOM     28  C   UNL     1      -5.196  -9.879   7.341  0.00  0.00    +0.020 A 
ATOM     29  C   UNL     1      -5.124 -11.246   7.146  0.00  0.00    +0.041 A 
ATOM     30  C   UNL     1      -4.547 -11.751   5.994  0.00  0.00    +0.020 A 
ATOM     31  C   UNL     1      -4.048 -10.888   5.036  0.00  0.00    +0.006 A 
ATOM     32 CL   UNL     1      -5.756 -12.329   8.346  0.00  0.00    -0.084 Cl
ENDBRANCH  25  26
ENDBRANCH  24  25
ENDBRANCH  11  24
TORSDOF 6
