REMARK  Name = ZINC63039890
REMARK  6 active torsions:
REMARK  status: ('A' for Active; 'I' for Inactive)
REMARK    1  A    between atoms: C_1  and  C_2
REMARK    2  A    between atoms: C_2  and  C_4
REMARK    3  A    between atoms: C_2  and  C_17
REMARK    4  A    between atoms: C_9  and  N_14
REMARK    5  A    between atoms: C_17  and  C_19
REMARK    6  A    between atoms: C_17  and  O_20
REMARK                            x       y       z     vdW  Elec       q    Type
REMARK                         _______ _______ _______ _____ _____    ______ ____
ROOT
ATOM      1  C   UNL     1       0.707  -0.490  -1.238  0.00  0.00    +0.047 A 
ATOM      2  C   UNL     1       1.787   0.238  -1.734  0.00  0.00    +0.024 A 
ATOM      3  C   UNL     1       2.438  -0.187  -2.856  0.00  0.00    +0.012 A 
ATOM      4  C   UNL     1       1.986  -1.365  -3.480  0.00  0.00    +0.003 A 
ATOM      5  C   UNL     1       2.606  -1.864  -4.637  0.00  0.00    +0.042 A 
ATOM      6  C   UNL     1       2.139  -3.007  -5.211  0.00  0.00    +0.127 A 
ATOM      7  C   UNL     1       1.054  -3.689  -4.665  0.00  0.00    +0.035 A 
ATOM      8  C   UNL     1       0.429  -3.234  -3.545  0.00  0.00    +0.030 A 
ATOM      9  C   UNL     1       0.882  -2.057  -2.923  0.00  0.00    +0.071 A 
ATOM     10  N   UNL     1       0.292  -1.590  -1.818  0.00  0.00    -0.251 NA
ENDROOT
BRANCH   6  11
ATOM     11  N   UNL     1       2.794  -3.532  -6.430  0.00  0.00    +0.056 N 
ATOM     12  O   UNL     1       3.736  -2.946  -6.910  0.00  0.00    -0.126 OA
ATOM     13  O   UNL     1       2.386  -4.546  -6.946  0.00  0.00    -0.126 OA
ENDBRANCH   6  11
BRANCH   1  15
ATOM     14  C   UNL     1      -0.019   1.526   0.010  0.00  0.00    +0.016 C 
ATOM     15  C   UNL     1       0.002  -0.004   0.002  0.00  0.00    +0.063 C 
BRANCH  15  16
ATOM     16  C   UNL     1       0.742  -0.511   1.242  0.00  0.00    +0.120 C 
ATOM     17  C   UNL     1       0.763  -2.041   1.233  0.00  0.00    +0.038 C 
BRANCH  16  18
ATOM     18  O   UNL     1       2.083  -0.016   1.231  0.00  0.00    -0.391 OA
ATOM     19  H   UNL     1       2.612  -0.299   1.990  0.00  0.00    +0.210 HD
ENDBRANCH  16  18
ENDBRANCH  15  16
ENDBRANCH   1  15
TORSDOF 4
