REMARK  Name = ZINC03983826
REMARK  4 active torsions:
REMARK  status: ('A' for Active; 'I' for Inactive)
REMARK    1  A    between atoms: C_1  and  C_2
REMARK    2  A    between atoms: C_11  and  C_30
REMARK    3  A    between atoms: C_22  and  C_29
REMARK    4  A    between atoms: C_25  and  O_28
REMARK                            x       y       z     vdW  Elec       q    Type
REMARK                         _______ _______ _______ _____ _____    ______ ____
ROOT
ATOM      1  C   UNL     1      -6.955  -0.191   5.857  0.00  0.00    +0.068 C 
ATOM      2  C   UNL     1      -5.582   0.114   6.399  0.00  0.00    +0.064 A 
ATOM      3  C   UNL     1      -4.366   0.002   5.711  0.00  0.00    +0.002 A 
ATOM      4  C   UNL     1      -3.377   0.326   6.578  0.00  0.00    +0.040 A 
ATOM      5  N   UNL     1      -3.948   0.664   7.756  0.00  0.00    -0.281 N 
ATOM      6  H   UNL     1      -3.466   0.964   8.579  0.00  0.00    +0.189 HD
ATOM      7  N   UNL     1      -5.332   0.521   7.618  0.00  0.00    -0.179 NA
ATOM      8  C   UNL     1      -2.023   0.178   5.919  0.00  0.00    +0.059 C 
ATOM      9  C   UNL     1      -2.323   0.119   4.398  0.00  0.00    +0.009 C 
ATOM     10  C   UNL     1      -3.763  -0.366   4.376  0.00  0.00    -0.000 C 
ATOM     11  C   UNL     1      -4.604   0.065   3.212  0.00  0.00    +0.012 C 
ATOM     12  C   UNL     1      -4.317   1.433   2.639  0.00  0.00    +0.005 C 
ATOM     13  C   UNL     1      -2.840   1.765   2.524  0.00  0.00    -0.001 C 
ATOM     14  C   UNL     1      -2.112   1.501   3.821  0.00  0.00    -0.003 C 
ATOM     15  C   UNL     1      -0.627   1.841   3.729  0.00  0.00    +0.004 C 
ATOM     16  C   UNL     1       0.012   1.167   2.515  0.00  0.00    +0.004 C 
ATOM     17  C   UNL     1      -0.713   1.620   1.250  0.00  0.00    -0.002 C 
ATOM     18  C   UNL     1      -2.177   1.164   1.292  0.00  0.00    -0.026 C 
ATOM     19  C   UNL     1      -2.879   1.697   0.035  0.00  0.00    +0.010 C 
ATOM     20  C   UNL     1      -2.189   1.188  -1.227  0.00  0.00    +0.032 C 
ATOM     21  C   UNL     1      -0.719   1.604  -1.244  0.00  0.00    +0.115 C 
ATOM     22  C   UNL     1      -0.013   1.081   0.008  0.00  0.00    +0.035 C 
ATOM     23  C   UNL     1      -2.248  -0.359   1.289  0.00  0.00    +0.012 C 
ATOM     24  C   UNL     1      -3.708  -1.903   4.340  0.00  0.00    +0.016 C 
ENDROOT
BRANCH  21  25
ATOM     25  O   UNL     1      -0.085   1.062  -2.406  0.00  0.00    -0.392 OA
ATOM     26  H   UNL     1      -0.480   1.350  -3.240  0.00  0.00    +0.210 HD
ENDBRANCH  21  25
TORSDOF 1
