REMARK  Name = ZINC44254901
REMARK  3 active torsions:
REMARK  status: ('A' for Active; 'I' for Inactive)
REMARK    1  A    between atoms: C_9  and  S_12
REMARK    2  A    between atoms: S_12  and  N_15
REMARK    3  A    between atoms: N_15  and  C_16
REMARK                            x       y       z     vdW  Elec       q    Type
REMARK                         _______ _______ _______ _____ _____    ______ ____
ROOT
ATOM      1  S   UNL     1      -3.241  -3.663  -0.005  0.00  0.00    +0.072 S 
ATOM      2  O   UNL     1      -4.175  -2.690   0.442  0.00  0.00    -0.150 OA
ATOM      3  O   UNL     1      -1.983  -3.858   0.627  0.00  0.00    -0.150 OA
ENDROOT
BRANCH   1  12
ATOM      4  C   UNL     1      -3.284  -8.850   0.521  0.00  0.00    +0.018 A 
ATOM      5  C   UNL     1      -3.987 -10.011   0.543  0.00  0.00    +0.092 A 
ATOM      6  C   UNL     1      -5.385  -9.989   0.347  0.00  0.00    +0.337 A 
ATOM      7  O   UNL     1      -6.003 -11.037   0.369  0.00  0.00    -0.245 OA
ATOM      8  O   UNL     1      -6.049  -8.842   0.137  0.00  0.00    -0.422 OA
ATOM      9  C   UNL     1      -5.410  -7.653   0.103  0.00  0.00    +0.139 A 
ATOM     10  C   UNL     1      -4.018  -7.601   0.291  0.00  0.00    +0.019 A 
ATOM     11  C   UNL     1      -3.354  -6.371   0.257  0.00  0.00    +0.040 A 
ATOM     12  C   UNL     1      -4.072  -5.217   0.039  0.00  0.00    +0.109 A 
ATOM     13  C   UNL     1      -5.445  -5.270  -0.146  0.00  0.00    +0.032 A 
ATOM     14  C   UNL     1      -6.114  -6.476  -0.115  0.00  0.00    +0.049 A 
ENDBRANCH   1  12
BRANCH   1  15
ATOM     15  N   UNL     1      -2.924  -3.322  -1.594  0.00  0.00    -0.216 N 
ATOM     16  H   UNL     1      -3.328  -2.546  -2.013  0.00  0.00    +0.174 HD
BRANCH  15  17
ATOM     17  C   UNL     1      -2.074  -4.153  -2.332  0.00  0.00    +0.052 A 
ATOM     18  C   UNL     1      -0.702  -4.100  -2.126  0.00  0.00    +0.028 A 
ATOM     19  C   UNL     1       0.141  -4.921  -2.853  0.00  0.00    +0.051 A 
ATOM     20  C   UNL     1      -0.387  -5.795  -3.788  0.00  0.00    +0.162 A 
ATOM     21  C   UNL     1      -1.758  -5.850  -3.996  0.00  0.00    +0.164 A 
ATOM     22  C   UNL     1      -2.605  -5.034  -3.266  0.00  0.00    +0.074 A 
ATOM     23  O   UNL     1      -2.265  -6.717  -4.920  0.00  0.00    -0.488 OA
ATOM     24  C   UNL     1      -1.964  -6.424  -6.285  0.00  0.00    +0.232 C 
ATOM     25  C   UNL     1      -0.605  -6.986  -6.670  0.00  0.00    +0.082 C 
ATOM     26  C   UNL     1       0.532  -6.325  -5.907  0.00  0.00    +0.232 C 
ATOM     27  O   UNL     1       0.438  -6.611  -4.510  0.00  0.00    -0.488 OA
ENDBRANCH  15  17
ENDBRANCH   1  15
TORSDOF 3
