REMARK  Name = ZINC15229126
REMARK  6 active torsions:
REMARK  status: ('A' for Active; 'I' for Inactive)
REMARK    1  A    between atoms: C_4  and  C_8
REMARK    2  A    between atoms: C_5  and  O_7
REMARK    3  A    between atoms: N_9  and  C_10
REMARK    4  A    between atoms: C_10  and  N_11
REMARK    5  A    between atoms: C_12  and  C_13
REMARK    6  A    between atoms: C_14  and  O_20
REMARK                            x       y       z     vdW  Elec       q    Type
REMARK                         _______ _______ _______ _____ _____    ______ ____
ROOT
ATOM      1  C   UNL     1       3.703  -0.673  -0.038  0.00  0.00    +0.091 C 
ATOM      2  N   UNL     1       3.732  -1.964   0.052  0.00  0.00    -0.371 N 
ATOM      3  H   UNL     1       2.904  -2.469   0.058  0.00  0.00    +0.161 HD
ENDROOT
BRANCH   1   7
ATOM      4  C   UNL     1      -0.020   1.370  -0.083  0.00  0.00    +0.019 A 
ATOM      5  C   UNL     1       1.158   2.073  -0.280  0.00  0.00    +0.019 A 
ATOM      6  C   UNL     1       2.370   1.416  -0.266  0.00  0.00    +0.028 A 
ATOM      7  C   UNL     1       2.411   0.036  -0.053  0.00  0.00    +0.033 A 
ATOM      8  C   UNL     1       1.217  -0.671   0.145  0.00  0.00    +0.125 A 
ATOM      9  C   UNL     1       0.007   0.005   0.128  0.00  0.00    +0.047 A 
ATOM     10 BR   UNL     1       1.103   3.941  -0.568  0.00  0.00    -0.050 Br
BRANCH   8  11
ATOM     11  O   UNL     1       1.246  -2.012   0.352  0.00  0.00    -0.506 OA
ATOM     12  H   UNL     1       1.318  -2.265   1.283  0.00  0.00    +0.292 HD
ENDBRANCH   8  11
ENDBRANCH   1   7
BRANCH   2  13
ATOM     13  C   UNL     1       5.016  -2.664   0.145  0.00  0.00    +0.256 C 
BRANCH  13  14
ATOM     14  N   UNL     1       5.071  -3.419   1.399  0.00  0.00    -0.270 NA
ATOM     15  C   UNL     1       5.221  -4.704   1.375  0.00  0.00    +0.118 C 
BRANCH  15  16
ATOM     16  C   UNL     1       5.276  -5.464   2.636  0.00  0.00    +0.035 A 
ATOM     17  C   UNL     1       5.160  -4.800   3.865  0.00  0.00    +0.125 A 
ATOM     18  C   UNL     1       5.213  -5.524   5.046  0.00  0.00    +0.047 A 
ATOM     19  C   UNL     1       5.380  -6.895   5.011  0.00  0.00    +0.019 A 
ATOM     20  C   UNL     1       5.496  -7.556   3.799  0.00  0.00    +0.019 A 
ATOM     21  C   UNL     1       5.439  -6.851   2.614  0.00  0.00    +0.028 A 
ATOM     22 BR   UNL     1       5.725  -9.433   3.768  0.00  0.00    -0.050 Br
BRANCH  17  23
ATOM     23  O   UNL     1       4.996  -3.453   3.899  0.00  0.00    -0.506 OA
ATOM     24  H   UNL     1       4.072  -3.168   3.882  0.00  0.00    +0.292 HD
ENDBRANCH  17  23
ENDBRANCH  15  16
ENDBRANCH  13  14
ENDBRANCH   2  13
TORSDOF 6
