REMARK  Name = ZINC23870560
REMARK  9 active torsions:
REMARK  status: ('A' for Active; 'I' for Inactive)
REMARK    1  A    between atoms: C_1  and  C_2
REMARK    2  A    between atoms: C_2  and  N_3
REMARK    3  A    between atoms: C_13  and  S_16
REMARK    4  A    between atoms: S_16  and  C_17
REMARK    5  A    between atoms: C_17  and  C_19
REMARK    6  A    between atoms: C_17  and  C_20
REMARK    7  A    between atoms: N_22  and  C_23
REMARK    8  A    between atoms: C_23  and  C_24
REMARK    9  A    between atoms: N_26  and  C_27
REMARK                            x       y       z     vdW  Elec       q    Type
REMARK                         _______ _______ _______ _____ _____    ______ ____
ROOT
ATOM      1  C   UNL     1       5.308   8.025   0.516  0.00  0.00    +0.137 C 
ATOM      2  C   UNL     1       5.877   8.199  -0.893  0.00  0.00    +0.029 C 
ENDROOT
BRANCH   1   3
ATOM      3  C   UNL     1       3.895   7.507   0.427  0.00  0.00    +0.227 C 
ATOM      4  O   UNL     1       2.962   8.281   0.459  0.00  0.00    -0.275 OA
ATOM      5  N   UNL     1       3.669   6.183   0.312  0.00  0.00    -0.306 N 
ATOM      6  H   UNL     1       4.516   5.481   0.283  0.00  0.00    +0.149 HD
BRANCH   5   7
ATOM      7  C   UNL     1       2.296   5.679   0.225  0.00  0.00    +0.200 C 
BRANCH   7   8
ATOM      8  C   UNL     1       2.319   4.177   0.104  0.00  0.00    +0.234 C 
ATOM      9  O   UNL     1       3.378   3.586   0.091  0.00  0.00    -0.274 OA
ATOM     10  N   UNL     1       1.163   3.491   0.009  0.00  0.00    -0.282 N 
ATOM     11  H   UNL     1       0.208   4.031  -0.071  0.00  0.00    +0.155 HD
BRANCH  10  12
ATOM     12  C   UNL     1       1.178   2.090   0.013  0.00  0.00    +0.072 A 
ATOM     13  C   UNL     1       2.230   1.407   0.608  0.00  0.00    +0.029 A 
ATOM     14  C   UNL     1       2.244   0.026   0.611  0.00  0.00    +0.043 A 
ATOM     15  C   UNL     1       1.210  -0.680   0.022  0.00  0.00    +0.161 A 
ATOM     16  C   UNL     1       0.156  -0.003  -0.574  0.00  0.00    +0.195 A 
ATOM     17  C   UNL     1       0.139   1.381  -0.579  0.00  0.00    +0.182 A 
ATOM     18  F   UNL     1      -0.884   2.043  -1.163  0.00  0.00    -0.200 F 
ATOM     19  F   UNL     1      -0.852  -0.694  -1.149  0.00  0.00    -0.199 F 
ATOM     20  F   UNL     1       1.226  -2.031   0.026  0.00  0.00    -0.202 F 
ENDBRANCH  10  12
ENDBRANCH   7   8
ENDBRANCH   5   7
ENDBRANCH   1   3
BRANCH   1  21
ATOM     21  S   UNL     1       5.312   9.621   1.370  0.00  0.00    -0.072 S 
BRANCH  21  32
ATOM     22  N   UNL     1       9.554  12.259   2.639  0.00  0.00    -0.324 N 
ATOM     23  C   UNL     1      10.904  12.003   2.457  0.00  0.00    +0.053 A 
ATOM     24  C   UNL     1      12.047  12.717   2.802  0.00  0.00    +0.026 A 
ATOM     25  C   UNL     1      13.293  12.216   2.492  0.00  0.00    +0.002 A 
ATOM     26  C   UNL     1      13.422  11.001   1.838  0.00  0.00    +0.001 A 
ATOM     27  C   UNL     1      12.301  10.279   1.487  0.00  0.00    +0.012 A 
ATOM     28  C   UNL     1      11.036  10.774   1.794  0.00  0.00    +0.029 A 
ATOM     29  C   UNL     1       9.669  10.272   1.572  0.00  0.00    +0.138 A 
ATOM     30  C   UNL     1       8.799  11.238   2.118  0.00  0.00    +0.165 A 
ATOM     31  N   UNL     1       7.489  11.021   2.046  0.00  0.00    -0.201 NA
ATOM     32  C   UNL     1       7.047   9.912   1.467  0.00  0.00    +0.212 A 
ATOM     33  N   UNL     1       7.887   9.013   0.964  0.00  0.00    -0.122 NA
ATOM     34  N   UNL     1       9.164   9.185   1.007  0.00  0.00    -0.143 NA
BRANCH  22  36
ATOM     35  C   UNL     1       8.864  13.186   4.795  0.00  0.00    +0.027 C 
ATOM     36  C   UNL     1       9.011  13.451   3.295  0.00  0.00    +0.120 C 
ENDBRANCH  22  36
ENDBRANCH  21  32
ENDBRANCH   1  21
TORSDOF 7
