REMARK  Name = ZINC32801686
REMARK  4 active torsions:
REMARK  status: ('A' for Active; 'I' for Inactive)
REMARK    1  A    between atoms: C_13  and  C_15
REMARK    2  A    between atoms: C_15  and  C_16
REMARK    3  A    between atoms: C_16  and  S_17
REMARK    4  A    between atoms: S_17  and  C_18
REMARK                            x       y       z     vdW  Elec       q    Type
REMARK                         _______ _______ _______ _____ _____    ______ ____
ROOT
ATOM      1  C   UNL     1       1.220  -0.660  -0.013  0.00  0.00    +0.005 A 
ATOM      2  C   UNL     1       2.382   0.100  -0.020  0.00  0.00    +0.018 A 
ATOM      3  C   UNL     1       2.289   1.477  -0.012  0.00  0.00    +0.084 A 
ATOM      4  N   UNL     1       1.114   2.076   0.003  0.00  0.00    -0.350 N 
ATOM      5  C   UNL     1      -0.017   1.387   0.010  0.00  0.00    +0.099 A 
ATOM      6  C   UNL     1       0.002  -0.004   0.002  0.00  0.00    +0.042 A 
ATOM      7  N   UNL     1      -1.233   2.059   0.019  0.00  0.00    -0.314 N 
ATOM      8  C   UNL     1      -2.073   1.644  -1.112  0.00  0.00    +0.125 C 
ATOM      9  C   UNL     1      -3.466   2.267  -0.966  0.00  0.00    +0.126 C 
ATOM     10  N   UNL     1      -3.313   3.721  -0.806  0.00  0.00    -0.298 N 
ATOM     11  C   UNL     1      -2.381   4.214   0.219  0.00  0.00    +0.126 C 
ATOM     12  C   UNL     1      -1.031   3.514   0.026  0.00  0.00    +0.125 C 
ATOM     13  C   UNL     1      -4.009   4.579  -1.578  0.00  0.00    +0.216 C 
ATOM     14  O   UNL     1      -3.871   5.775  -1.433  0.00  0.00    -0.276 OA
ATOM     15  H   UNL     1       1.056   3.175   0.009  0.00  0.00    +0.166 HD
ENDROOT
BRANCH  13  16
ATOM     16  C   UNL     1      -4.959   4.051  -2.623  0.00  0.00    +0.107 C 
BRANCH  16  17
ATOM     17  C   UNL     1      -5.616   5.224  -3.353  0.00  0.00    +0.086 C 
BRANCH  17  18
ATOM     18  S   UNL     1      -6.757   4.591  -4.607  0.00  0.00    -0.085 S 
BRANCH  18  19
ATOM     19  C   UNL     1      -7.353   6.110  -5.273  0.00  0.00    +0.191 A 
ATOM     20  N   UNL     1      -8.245   6.085  -6.256  0.00  0.00    -0.207 NA
ATOM     21  C   UNL     1      -8.729   7.191  -6.795  0.00  0.00    +0.129 A 
ATOM     22  C   UNL     1      -8.284   8.453  -6.311  0.00  0.00    +0.047 A 
ATOM     23  C   UNL     1      -8.660   9.793  -6.733  0.00  0.00    +0.021 A 
ATOM     24  C   UNL     1      -8.103  10.850  -6.125  0.00  0.00    +0.048 A 
ATOM     25  S   UNL     1      -7.014  10.114  -4.921  0.00  0.00    -0.077 S 
ATOM     26  C   UNL     1      -7.336   8.404  -5.266  0.00  0.00    +0.114 A 
ATOM     27  N   UNL     1      -6.906   7.257  -4.779  0.00  0.00    -0.215 NA
ATOM     28  N   UNL     1      -9.657   7.122  -7.817  0.00  0.00    -0.343 N 
ATOM     29  H   UNL     1     -10.056   8.047  -8.261  0.00  0.00    +0.144 HD
ATOM     30  H   UNL     1      -9.997   6.144  -8.187  0.00  0.00    +0.144 HD
ENDBRANCH  18  19
ENDBRANCH  17  18
ENDBRANCH  16  17
ENDBRANCH  13  16
TORSDOF 4
