REMARK  Name = ZINC02573647
REMARK  8 active torsions:
REMARK  status: ('A' for Active; 'I' for Inactive)
REMARK    1  A    between atoms: C_1  and  C_2
REMARK    2  A    between atoms: C_2  and  C_36
REMARK    3  A    between atoms: C_6  and  C_24
REMARK    4  A    between atoms: C_8  and  C_22
REMARK    5  A    between atoms: C_9  and  N_21
REMARK    6  A    between atoms: N_10  and  C_11
REMARK    7  A    between atoms: C_15  and  C_17
REMARK    8  A    between atoms: C_27  and  N_30
REMARK                            x       y       z     vdW  Elec       q    Type
REMARK                         _______ _______ _______ _____ _____    ______ ____
ROOT
ATOM      1  C   UNL     1       2.507   6.745   2.558  0.00  0.00    +0.011 C 
ATOM      2  C   UNL     1       3.245   6.165   1.350  0.00  0.00    -0.023 C 
ATOM      3  C   UNL     1       2.329   5.190   0.607  0.00  0.00    +0.058 C 
ATOM      4  C   UNL     1       1.110   5.925   0.106  0.00  0.00    +0.025 C 
ATOM      5  C   UNL     1       1.177   7.227  -0.243  0.00  0.00    +0.025 C 
ATOM      6  C   UNL     1      -0.036   7.952  -0.768  0.00  0.00    +0.097 C 
ATOM      7  C   UNL     1      -1.298   7.217  -0.424  0.00  0.00    +0.077 C 
ATOM      8  C   UNL     1      -1.270   5.909  -0.064  0.00  0.00    +0.107 C 
ATOM      9  N   UNL     1      -0.071   5.236   0.009  0.00  0.00    -0.260 N 
ATOM     10  C   UNL     1       2.380   7.946  -0.130  0.00  0.00    +0.162 C 
ATOM     11  O   UNL     1       2.409   9.115  -0.460  0.00  0.00    -0.292 OA
ATOM     12  C   UNL     1       3.632   7.295   0.391  0.00  0.00    +0.086 C 
ATOM     13  C   UNL     1       4.503   5.431   1.820  0.00  0.00    +0.011 C 
ENDROOT
BRANCH   9  14
ATOM     14  C   UNL     1      -0.058   3.837  -0.021  0.00  0.00    +0.040 A 
ATOM     15  C   UNL     1      -0.203   3.114   1.156  0.00  0.00    +0.024 A 
ATOM     16  C   UNL     1      -0.190   1.733   1.123  0.00  0.00    +0.002 A 
ATOM     17  C   UNL     1      -0.032   1.070  -0.080  0.00  0.00    +0.012 A 
ATOM     18  C   UNL     1       0.118   1.787  -1.253  0.00  0.00    +0.057 A 
ATOM     19  C   UNL     1       0.100   3.168  -1.228  0.00  0.00    +0.036 A 
BRANCH  18  20
ATOM     20  C   UNL     1       0.296   1.061  -2.562  0.00  0.00    +0.417 C 
ATOM     21  F   UNL     1       0.276  -0.320  -2.335  0.00  0.00    -0.166 F 
ATOM     22  F   UNL     1      -0.743   1.406  -3.432  0.00  0.00    -0.166 F 
ATOM     23  F   UNL     1       1.522   1.421  -3.132  0.00  0.00    -0.166 F 
ENDBRANCH  18  20
ENDBRANCH   9  14
BRANCH   6  24
ATOM     24  C   UNL     1       0.072   8.075  -2.266  0.00  0.00    -0.035 A 
ATOM     25  C   UNL     1       0.158   6.939  -3.048  0.00  0.00    +0.007 A 
ATOM     26  C   UNL     1       0.253   7.051  -4.423  0.00  0.00    +0.033 A 
ATOM     27  C   UNL     1       0.271   8.301  -5.014  0.00  0.00    +0.126 A 
ATOM     28  C   UNL     1       0.190   9.437  -4.232  0.00  0.00    +0.033 A 
ATOM     29  C   UNL     1       0.090   9.324  -2.857  0.00  0.00    +0.007 A 
BRANCH  27  30
ATOM     30  N   UNL     1       0.378   8.421  -6.486  0.00  0.00    +0.056 N 
ATOM     31  O   UNL     1       0.395   9.522  -7.007  0.00  0.00    -0.126 OA
ATOM     32  O   UNL     1       0.450   7.420  -7.175  0.00  0.00    -0.126 OA
ENDBRANCH  27  30
ENDBRANCH   6  24
BRANCH   8  33
ATOM     33  N   UNL     1      -2.442   5.256   0.233  0.00  0.00    -0.345 N 
ATOM     34  H   UNL     1      -2.423   4.196   0.525  0.00  0.00    +0.144 HD
ATOM     35  H   UNL     1      -3.400   5.795   0.179  0.00  0.00    +0.144 HD
ENDBRANCH   8  33
BRANCH   7  36
ATOM     36  C   UNL     1      -2.552   7.905  -0.483  0.00  0.00    +0.099 C 
ATOM     37  N   UNL     1      -3.547   8.451  -0.529  0.00  0.00    -0.191 NA
ENDBRANCH   7  36
TORSDOF 6
