REMARK  Name = ZINC09081014
REMARK  11 active torsions:
REMARK  status: ('A' for Active; 'I' for Inactive)
REMARK    1  A    between atoms: C_1  and  N_2
REMARK    2  A    between atoms: N_2  and  C_3
REMARK    3  A    between atoms: N_2  and  C_4
REMARK    4  A    between atoms: C_7  and  C_10
REMARK    5  A    between atoms: C_10  and  C_12
REMARK    6  A    between atoms: C_10  and  S_27
REMARK    7  A    between atoms: C_12  and  N_13
REMARK    8  A    between atoms: C_14  and  C_16
REMARK    9  A    between atoms: N_18  and  N_19
REMARK   10  A    between atoms: C_20  and  C_22
REMARK   11  A    between atoms: S_27  and  C_30
REMARK                            x       y       z     vdW  Elec       q    Type
REMARK                         _______ _______ _______ _____ _____    ______ ____
ROOT
ATOM      1  C   UNL     1      -0.005  -2.813  -4.924  0.00  0.00    +0.183 C 
ENDROOT
BRANCH   1   5
ATOM      2  C   UNL     1       0.000  -0.696  -1.211  0.00  0.00    +0.029 A 
ATOM      3  C   UNL     1       0.025  -2.085  -1.221  0.00  0.00    +0.023 A 
ATOM      4  C   UNL     1       0.018  -2.766  -2.422  0.00  0.00    +0.007 A 
ATOM      5  C   UNL     1      -0.003  -2.066  -3.615  0.00  0.00    -0.021 A 
ATOM      6  C   UNL     1      -0.022  -0.684  -3.609  0.00  0.00    +0.007 A 
ATOM      7  C   UNL     1      -0.021   0.004  -2.411  0.00  0.00    +0.023 A 
BRANCH   2   9
ATOM      8  C   UNL     1      -0.018   1.461   0.010  0.00  0.00    +0.129 C 
ATOM      9  N   UNL     1       0.002  -0.004   0.002  0.00  0.00    -0.336 N 
ATOM     10  C   UNL     1       0.024  -0.743   1.267  0.00  0.00    +0.129 C 
ENDBRANCH   2   9
ENDBRANCH   1   5
BRANCH   1  11
ATOM     11  S   UNL     1       1.489  -3.834  -5.040  0.00  0.00    +0.005 S 
ATOM     12  O   UNL     1       1.418  -4.678  -6.182  0.00  0.00    -0.169 OA
ATOM     13  O   UNL     1       2.643  -3.043  -4.795  0.00  0.00    -0.169 OA
BRANCH  11  14
ATOM     14  C   UNL     1       1.396  -4.931  -3.665  0.00  0.00    +0.089 A 
ATOM     15  C   UNL     1       1.958  -4.571  -2.454  0.00  0.00    +0.028 A 
ATOM     16  C   UNL     1       1.881  -5.428  -1.373  0.00  0.00    +0.022 A 
ATOM     17  C   UNL     1       1.250  -6.652  -1.506  0.00  0.00    +0.041 A 
ATOM     18  C   UNL     1       0.692  -7.015  -2.719  0.00  0.00    +0.022 A 
ATOM     19  C   UNL     1       0.765  -6.154  -3.797  0.00  0.00    +0.028 A 
ATOM     20 CL   UNL     1       1.157  -7.733  -0.150  0.00  0.00    -0.084 Cl
ENDBRANCH  11  14
ENDBRANCH   1  11
BRANCH   1  21
ATOM     21  C   UNL     1      -1.243  -3.709  -4.998  0.00  0.00    +0.136 C 
BRANCH  21  22
ATOM     22  N   UNL     1      -1.245  -4.435  -6.271  0.00  0.00    -0.305 N 
ATOM     23  C   UNL     1      -2.247  -5.290  -6.558  0.00  0.00    +0.301 C 
ATOM     24  O   UNL     1      -3.147  -5.458  -5.761  0.00  0.00    -0.265 OA
ATOM     25  H   UNL     1      -0.526  -4.300  -6.907  0.00  0.00    +0.149 HD
BRANCH  23  26
ATOM     26  C   UNL     1      -2.249  -6.030  -7.856  0.00  0.00    +0.315 C 
ATOM     27  O   UNL     1      -1.349  -5.861  -8.652  0.00  0.00    -0.264 OA
ATOM     28  N   UNL     1      -3.251  -6.885  -8.142  0.00  0.00    -0.226 N 
ATOM     29  H   UNL     1      -3.970  -7.019  -7.506  0.00  0.00    +0.173 HD
BRANCH  28  30
ATOM     30  N   UNL     1      -3.253  -7.579  -9.360  0.00  0.00    -0.227 N 
ATOM     31  C   UNL     1      -4.255  -8.433  -9.646  0.00  0.00    +0.295 C 
ATOM     32  O   UNL     1      -5.158  -8.602  -8.848  0.00  0.00    -0.265 OA
ATOM     33  H   UNL     1      -2.533  -7.444  -9.996  0.00  0.00    +0.173 HD
BRANCH  31  34
ATOM     34  C   UNL     1      -4.257  -9.160 -10.920  0.00  0.00    +0.190 A 
ATOM     35  C   UNL     1      -5.205 -10.050 -11.334  0.00  0.00    +0.054 A 
ATOM     36  C   UNL     1      -4.810 -10.500 -12.604  0.00  0.00    +0.042 A 
ATOM     37  C   UNL     1      -3.652  -9.872 -12.905  0.00  0.00    +0.196 A 
ATOM     38  O   UNL     1      -3.325  -9.061 -11.891  0.00  0.00    -0.458 OA
ENDBRANCH  31  34
ENDBRANCH  28  30
ENDBRANCH  23  26
ENDBRANCH  21  22
ENDBRANCH   1  21
TORSDOF 9
