REMARK  Name = ZINC15955966
REMARK  4 active torsions:
REMARK  status: ('A' for Active; 'I' for Inactive)
REMARK    1  A    between atoms: C_1  and  C_2
REMARK    2  A    between atoms: C_4  and  O_21
REMARK    3  A    between atoms: C_5  and  C_20
REMARK    4  A    between atoms: C_17  and  C_19
REMARK                            x       y       z     vdW  Elec       q    Type
REMARK                         _______ _______ _______ _____ _____    ______ ____
ROOT
ATOM      1  C   UNL     1       2.296   0.033   6.838  0.00  0.00    +0.044 C 
ATOM      2  C   UNL     1       0.920  -0.246   6.290  0.00  0.00    -0.043 A 
ATOM      3  C   UNL     1       0.101  -1.144   6.939  0.00  0.00    +0.049 A 
ATOM      4  C   UNL     1      -1.168  -1.407   6.444  0.00  0.00    +0.120 A 
ATOM      5  C   UNL     1      -1.602  -0.754   5.301  0.00  0.00    -0.002 A 
ATOM      6  C   UNL     1      -0.781   0.151   4.657  0.00  0.00    +0.003 A 
ATOM      7  C   UNL     1       0.497   0.405   5.138  0.00  0.00    -0.037 A 
ATOM      8  C   UNL     1       1.473   1.331   4.462  0.00  0.00    +0.036 C 
ATOM      9  C   UNL     1       0.861   2.092   3.256  0.00  0.00    +0.013 C 
ATOM     10  C   UNL     1      -0.010   1.087   2.526  0.00  0.00    +0.048 C 
ATOM     11  C   UNL     1      -1.248   0.869   3.445  0.00  0.00    +0.211 C 
ATOM     12  O   UNL     1      -2.175   0.231   2.547  0.00  0.00    -0.456 OA
ATOM     13  C   UNL     1      -2.113   0.943   1.385  0.00  0.00    +0.311 C 
ATOM     14  O   UNL     1      -3.007   1.052   0.580  0.00  0.00    -0.251 OA
ATOM     15  C   UNL     1      -0.729   1.579   1.267  0.00  0.00    +0.102 C 
ATOM     16  C   UNL     1      -0.013   1.086   0.008  0.00  0.00    +0.019 C 
ATOM     17  C   UNL     1      -2.979  -1.034   4.757  0.00  0.00    +0.048 C 
ENDROOT
BRANCH   4  18
ATOM     18  O   UNL     1      -1.978  -2.298   7.073  0.00  0.00    -0.506 OA
ATOM     19  H   UNL     1      -2.543  -1.905   7.753  0.00  0.00    +0.292 HD
ENDBRANCH   4  18
TORSDOF 1
