REMARK  Name = ZINC00065671
REMARK  2 active torsions:
REMARK  status: ('A' for Active; 'I' for Inactive)
REMARK    1  A    between atoms: C_4  and  C_7
REMARK    2  A    between atoms: C_12  and  C_22
REMARK                            x       y       z     vdW  Elec       q    Type
REMARK                         _______ _______ _______ _____ _____    ______ ____
ROOT
ATOM      1  C   UNL     1       3.699  -0.689  -0.037  0.00  0.00    +0.183 A 
ATOM      2  N   UNL     1       4.913  -0.113  -0.041  0.00  0.00    -0.193 NA
ATOM      3  C   UNL     1       5.833  -1.036  -0.058  0.00  0.00    +0.219 A 
ATOM      4  N   UNL     1       5.218  -2.247  -0.061  0.00  0.00    -0.220 N 
ATOM      5  N   UNL     1       3.846  -1.999  -0.046  0.00  0.00    -0.147 NA
ATOM      6  C   UNL     1       5.940  -3.513  -0.067  0.00  0.00    +0.175 C 
ATOM      7  C   UNL     1       7.395  -3.278  -0.412  0.00  0.00    +0.041 C 
ATOM      8  C   UNL     1       7.945  -2.045  -0.402  0.00  0.00    +0.020 C 
ATOM      9  N   UNL     1       7.214  -0.928  -0.076  0.00  0.00    -0.287 N 
ATOM     10  C   UNL     1       9.399  -1.841  -0.758  0.00  0.00    +0.052 C 
ATOM     11  C   UNL     1      10.206  -3.077  -0.356  0.00  0.00    +0.014 C 
ATOM     12  C   UNL     1       9.623  -4.292  -1.085  0.00  0.00    +0.080 C 
ATOM     13  C   UNL     1       8.162  -4.408  -0.748  0.00  0.00    +0.163 C 
ATOM     14  O   UNL     1       7.633  -5.502  -0.766  0.00  0.00    -0.292 OA
ATOM     15  H   UNL     1       7.652  -0.089   0.136  0.00  0.00    +0.155 HD
ENDROOT
BRANCH   1  19
ATOM     16  C   UNL     1      -0.017   1.379   0.010  0.00  0.00    +0.000 A 
ATOM     17  C   UNL     1       1.169   2.092   0.002  0.00  0.00    +0.001 A 
ATOM     18  C   UNL     1       2.377   1.426  -0.013  0.00  0.00    +0.011 A 
ATOM     19  C   UNL     1       2.402   0.033  -0.021  0.00  0.00    +0.021 A 
ATOM     20  C   UNL     1       1.205  -0.680  -0.013  0.00  0.00    +0.011 A 
ATOM     21  C   UNL     1       0.002  -0.004   0.002  0.00  0.00    +0.001 A 
ENDBRANCH   1  19
BRANCH   6  22
ATOM     22  C   UNL     1       5.849  -4.148   1.296  0.00  0.00    -0.018 A 
ATOM     23  C   UNL     1       6.340  -3.482   2.403  0.00  0.00    +0.006 A 
ATOM     24  C   UNL     1       6.256  -4.064   3.654  0.00  0.00    +0.000 A 
ATOM     25  C   UNL     1       5.680  -5.312   3.798  0.00  0.00    +0.000 A 
ATOM     26  C   UNL     1       5.188  -5.978   2.691  0.00  0.00    +0.000 A 
ATOM     27  C   UNL     1       5.268  -5.394   1.441  0.00  0.00    +0.006 A 
ENDBRANCH   6  22
TORSDOF 2
