REMARK  Name = ZINC35705891
REMARK  8 active torsions:
REMARK  status: ('A' for Active; 'I' for Inactive)
REMARK    1  A    between atoms: C_6  and  C_7
REMARK    2  A    between atoms: C_7  and  N_8
REMARK    3  A    between atoms: N_8  and  C_9
REMARK    4  A    between atoms: N_8  and  C_18
REMARK    5  A    between atoms: C_9  and  C_10
REMARK    6  A    between atoms: C_18  and  C_19
REMARK    7  A    between atoms: C_21  and  C_24
REMARK    8  A    between atoms: N_26  and  C_27
REMARK                            x       y       z     vdW  Elec       q    Type
REMARK                         _______ _______ _______ _____ _____    ______ ____
ROOT
ATOM      1  N   UNL     1      -1.615  -0.991  -1.400  0.00  0.00    +0.391 N 
ATOM      2  H   UNL     1      -0.903  -1.519  -1.883  0.00  0.00    -0.080 HD
ENDROOT
BRANCH   1   3
ATOM      3  C   UNL     1      -1.197  -0.762  -0.010  0.00  0.00    -0.042 C 
BRANCH   3   9
ATOM      4  C   UNL     1       0.397  -2.630   0.471  0.00  0.00    +0.005 A 
ATOM      5  C   UNL     1       0.710  -3.840   1.063  0.00  0.00    +0.050 A 
ATOM      6  C   UNL     1      -0.237  -4.505   1.823  0.00  0.00    +0.166 A 
ATOM      7  C   UNL     1      -1.505  -3.952   1.990  0.00  0.00    +0.166 A 
ATOM      8  C   UNL     1      -1.812  -2.740   1.395  0.00  0.00    +0.051 A 
ATOM      9  C   UNL     1      -0.861  -2.081   0.637  0.00  0.00    -0.060 A 
ATOM     10  O   UNL     1      -2.247  -4.790   2.772  0.00  0.00    -0.453 OA
ATOM     11  C   UNL     1      -1.557  -6.053   2.744  0.00  0.00    +0.466 C 
ATOM     12  O   UNL     1      -0.185  -5.689   2.501  0.00  0.00    -0.453 OA
ENDBRANCH   3   9
ENDBRANCH   1   3
BRANCH   1  13
ATOM     13  C   UNL     1      -1.808   0.301  -2.072  0.00  0.00    -0.040 C 
BRANCH  13  14
ATOM     14  C   UNL     1      -0.484   1.013  -2.181  0.00  0.00    -0.046 A 
ATOM     15  C   UNL     1      -0.199   2.074  -1.342  0.00  0.00    +0.004 A 
ATOM     16  C   UNL     1       1.015   2.727  -1.441  0.00  0.00    +0.020 A 
ATOM     17  C   UNL     1       1.946   2.319  -2.380  0.00  0.00    +0.042 A 
ATOM     18  C   UNL     1       1.661   1.258  -3.220  0.00  0.00    +0.040 A 
ATOM     19  C   UNL     1       0.448   0.601  -3.117  0.00  0.00    +0.044 A 
ATOM     20 CL   UNL     1       0.092  -0.736  -4.166  0.00  0.00    -0.083 Cl
ATOM     21 CL   UNL     1       3.470   3.141  -2.505  0.00  0.00    -0.083 Cl
ENDBRANCH  13  14
ENDBRANCH   1  13
BRANCH   1  22
ATOM     22  C   UNL     1      -2.877  -1.744  -1.414  0.00  0.00    +0.020 C 
BRANCH  22  23
ATOM     23  C   UNL     1      -3.242  -2.085  -2.836  0.00  0.00    +0.179 A 
ATOM     24  N   UNL     1      -2.889  -3.165  -3.465  0.00  0.00    -0.210 NA
ATOM     25  C   UNL     1      -3.405  -3.120  -4.723  0.00  0.00    +0.163 A 
ATOM     26  C   UNL     1      -4.096  -1.952  -4.830  0.00  0.00    +0.230 A 
ATOM     27  O   UNL     1      -3.989  -1.324  -3.649  0.00  0.00    -0.449 OA
BRANCH  25  28
ATOM     28  C   UNL     1      -3.247  -4.144  -5.772  0.00  0.00    +0.266 C 
ATOM     29  O   UNL     1      -3.762  -3.983  -6.861  0.00  0.00    -0.268 OA
ATOM     30  N   UNL     1      -2.530  -5.258  -5.523  0.00  0.00    -0.307 N 
ATOM     31  H   UNL     1      -2.119  -5.387  -4.654  0.00  0.00    +0.149 HD
BRANCH  30  32
ATOM     32  C   UNL     1      -2.373  -6.276  -6.565  0.00  0.00    +0.073 C 
ATOM     33  C   UNL     1      -2.529  -7.740  -6.152  0.00  0.00    +0.024 C 
ATOM     34  C   UNL     1      -1.144  -7.184  -6.486  0.00  0.00    +0.024 C 
ENDBRANCH  30  32
ENDBRANCH  25  28
ENDBRANCH  22  23
ENDBRANCH   1  22
TORSDOF 8
