REMARK  Name = ZINC59446998
REMARK  5 active torsions:
REMARK  status: ('A' for Active; 'I' for Inactive)
REMARK    1  A    between atoms: C_1  and  C_2
REMARK    2  A    between atoms: C_5  and  S_8
REMARK    3  A    between atoms: S_8  and  O_11
REMARK    4  A    between atoms: O_11  and  N_12
REMARK    5  A    between atoms: C_13  and  C_24
REMARK                            x       y       z     vdW  Elec       q    Type
REMARK                         _______ _______ _______ _____ _____    ______ ____
ROOT
ATOM      1  N   UNL     1       1.984  -4.722   1.133  0.00  0.00    -0.122 N 
ATOM      2  C   UNL     1       2.452  -3.382   1.487  0.00  0.00    +0.258 C 
ATOM      3  N   UNL     1       3.579  -3.468   2.425  0.00  0.00    -0.317 N 
ATOM      4  C   UNL     1       3.492  -4.362   3.486  0.00  0.00    +0.041 A 
ATOM      5  C   UNL     1       4.129  -4.130   4.693  0.00  0.00    +0.024 A 
ATOM      6  C   UNL     1       4.008  -5.050   5.717  0.00  0.00    +0.002 A 
ATOM      7  C   UNL     1       3.254  -6.200   5.546  0.00  0.00    +0.001 A 
ATOM      8  C   UNL     1       2.614  -6.447   4.348  0.00  0.00    +0.015 A 
ATOM      9  C   UNL     1       2.729  -5.529   3.307  0.00  0.00    +0.060 A 
ATOM     10  C   UNL     1       2.069  -5.746   2.007  0.00  0.00    +0.275 C 
ATOM     11  O   UNL     1       1.610  -6.836   1.724  0.00  0.00    -0.268 OA
ATOM     12  H   UNL     1       4.365  -2.913   2.306  0.00  0.00    +0.148 HD
ENDROOT
BRANCH   2  13
ATOM     13  C   UNL     1       1.327  -2.615   2.132  0.00  0.00    +0.145 A 
ATOM     14  C   UNL     1       1.459  -1.694   3.104  0.00  0.00    +0.048 A 
ATOM     15  C   UNL     1       0.158  -1.232   3.410  0.00  0.00    +0.041 A 
ATOM     16  C   UNL     1      -0.691  -1.898   2.606  0.00  0.00    +0.195 A 
ATOM     17  O   UNL     1       0.024  -2.730   1.831  0.00  0.00    -0.464 OA
ENDBRANCH   2  13
BRANCH   1  18
ATOM     18  O   UNL     1       1.426  -4.947  -0.149  0.00  0.00    -0.114 OA
BRANCH  18  19
ATOM     19  S   UNL     1       2.457  -5.238  -1.230  0.00  0.00    +0.131 S 
ATOM     20  O   UNL     1       3.554  -4.368  -0.991  0.00  0.00    -0.140 OA
ATOM     21  O   UNL     1       1.756  -5.258  -2.466  0.00  0.00    -0.140 OA
BRANCH  19  26
ATOM     22  C   UNL     1       4.476 -10.849  -0.307  0.00  0.00    +0.044 C 
ATOM     23  C   UNL     1       3.972  -9.447  -0.538  0.00  0.00    -0.050 A 
ATOM     24  C   UNL     1       2.800  -9.242  -1.242  0.00  0.00    +0.005 A 
ATOM     25  C   UNL     1       2.338  -7.956  -1.453  0.00  0.00    +0.030 A 
ATOM     26  C   UNL     1       3.046  -6.877  -0.960  0.00  0.00    +0.119 A 
ATOM     27  C   UNL     1       4.217  -7.083  -0.255  0.00  0.00    +0.030 A 
ATOM     28  C   UNL     1       4.678  -8.368  -0.040  0.00  0.00    +0.005 A 
ENDBRANCH  19  26
ENDBRANCH  18  19
ENDBRANCH   1  18
TORSDOF 4
