REMARK  Name = ZINC02382554
REMARK  8 active torsions:
REMARK  status: ('A' for Active; 'I' for Inactive)
REMARK    1  A    between atoms: C_1  and  C_2
REMARK    2  A    between atoms: C_2  and  C_3
REMARK    3  A    between atoms: C_2  and  C_4
REMARK    4  A    between atoms: C_7  and  C_10
REMARK    5  A    between atoms: N_11  and  N_12
REMARK    6  A    between atoms: C_13  and  N_34
REMARK    7  A    between atoms: C_14  and  S_25
REMARK    8  A    between atoms: S_25  and  C_28
REMARK                            x       y       z     vdW  Elec       q    Type
REMARK                         _______ _______ _______ _____ _____    ______ ____
ROOT
ATOM      1  N   UNL     1      -3.493   4.665   6.107  0.00  0.00    -0.197 N 
ATOM      2  C   UNL     1      -4.840   4.918   6.211  0.00  0.00    +0.148 A 
ATOM      3  C   UNL     1      -5.152   5.339   7.459  0.00  0.00    +0.162 A 
ATOM      4  C   UNL     1      -3.960   5.378   8.222  0.00  0.00    +0.137 A 
ATOM      5  C   UNL     1      -2.889   4.934   7.319  0.00  0.00    +0.184 A 
ATOM      6  N   UNL     1      -1.653   4.868   7.759  0.00  0.00    -0.224 NA
ATOM      7  C   UNL     1      -1.376   5.207   9.025  0.00  0.00    +0.092 A 
ATOM      8  C   UNL     1      -0.055   5.140   9.504  0.00  0.00    +0.030 A 
ATOM      9  C   UNL     1       0.218   5.485  10.791  0.00  0.00    +0.002 A 
ATOM     10  C   UNL     1      -0.796   5.907  11.650  0.00  0.00    +0.002 A 
ATOM     11  C   UNL     1      -2.085   5.984  11.224  0.00  0.00    +0.030 A 
ATOM     12  C   UNL     1      -2.407   5.635   9.898  0.00  0.00    +0.090 A 
ATOM     13  N   UNL     1      -3.672   5.708   9.470  0.00  0.00    -0.240 NA
ENDROOT
BRANCH   3  14
ATOM     14  S   UNL     1      -6.762   5.769   8.034  0.00  0.00    +0.030 S 
ATOM     15  O   UNL     1      -7.687   5.085   7.201  0.00  0.00    -0.164 OA
ATOM     16  O   UNL     1      -6.745   5.610   9.446  0.00  0.00    -0.164 OA
BRANCH  14  17
ATOM     17  C   UNL     1      -6.982   7.490   7.724  0.00  0.00    +0.094 A 
ATOM     18  C   UNL     1      -6.622   8.417   8.684  0.00  0.00    +0.027 A 
ATOM     19  C   UNL     1      -6.790   9.767   8.439  0.00  0.00    +0.002 A 
ATOM     20  C   UNL     1      -7.330  10.189   7.238  0.00  0.00    +0.000 A 
ATOM     21  C   UNL     1      -7.696   9.262   6.280  0.00  0.00    +0.002 A 
ATOM     22  C   UNL     1      -7.522   7.912   6.523  0.00  0.00    +0.027 A 
ENDBRANCH  14  17
ENDBRANCH   3  14
BRANCH   2  23
ATOM     23  N   UNL     1      -5.753   4.761   5.183  0.00  0.00    -0.341 N 
ATOM     24  H   UNL     1      -5.455   4.452   4.313  0.00  0.00    +0.144 HD
ATOM     25  H   UNL     1      -6.690   4.960   5.331  0.00  0.00    +0.144 HD
ENDBRANCH   2  23
BRANCH   1  27
ATOM     26  C   UNL     1      -2.704   2.941   4.740  0.00  0.00    +0.141 C 
ATOM     27  N   UNL     1      -2.837   4.213   4.954  0.00  0.00    -0.171 NA
BRANCH  26  31
ATOM     28  C   UNL     1      -0.718   1.572   1.248  0.00  0.00    -0.045 A 
ATOM     29  C   UNL     1      -0.854   2.930   1.475  0.00  0.00    +0.004 A 
ATOM     30  C   UNL     1      -1.503   3.382   2.605  0.00  0.00    +0.010 A 
ATOM     31  C   UNL     1      -2.014   2.465   3.527  0.00  0.00    -0.005 A 
ATOM     32  C   UNL     1      -1.868   1.095   3.294  0.00  0.00    +0.010 A 
ATOM     33  C   UNL     1      -1.222   0.658   2.156  0.00  0.00    +0.004 A 
BRANCH  28  35
ATOM     34  C   UNL     1       1.423   1.615  -0.003  0.00  0.00    +0.012 C 
ATOM     35  C   UNL     1      -0.013   1.086   0.008  0.00  0.00    +0.013 C 
ATOM     36  C   UNL     1      -0.753   1.593  -1.232  0.00  0.00    +0.012 C 
ENDBRANCH  28  35
ENDBRANCH  26  31
ENDBRANCH   1  27
TORSDOF 6
