REMARK  Name = ZINC63737644
REMARK  5 active torsions:
REMARK  status: ('A' for Active; 'I' for Inactive)
REMARK    1  A    between atoms: C_1  and  C_2
REMARK    2  A    between atoms: C_9  and  S_11
REMARK    3  A    between atoms: S_11  and  N_14
REMARK    4  A    between atoms: N_14  and  C_15
REMARK    5  A    between atoms: C_19  and  C_21
REMARK                            x       y       z     vdW  Elec       q    Type
REMARK                         _______ _______ _______ _____ _____    ______ ____
ROOT
ATOM      1  C   UNL     1      -4.733   3.752   0.554  0.00  0.00    +0.048 A 
ATOM      2  C   UNL     1      -4.765   4.110  -0.788  0.00  0.00    +0.024 A 
ATOM      3  C   UNL     1      -5.840   4.820  -1.286  0.00  0.00    +0.002 A 
ATOM      4  C   UNL     1      -6.883   5.175  -0.450  0.00  0.00    +0.006 A 
ATOM      5  C   UNL     1      -6.854   4.821   0.886  0.00  0.00    -0.020 A 
ATOM      6  C   UNL     1      -5.785   4.106   1.389  0.00  0.00    +0.030 A 
ENDROOT
BRANCH   5   7
ATOM      7  C   UNL     1      -7.992   5.211   1.794  0.00  0.00    +0.133 C 
ATOM      8  C   UNL     1      -9.174   4.293   1.572  0.00  0.00    +0.012 C 
ATOM      9  C   UNL     1     -10.190   5.084   1.157  0.00  0.00    -0.001 A 
ATOM     10  C   UNL     1     -11.580   4.800   0.783  0.00  0.00    +0.048 A 
ATOM     11  C   UNL     1     -12.379   5.824   0.401  0.00  0.00    +0.124 A 
ATOM     12  C   UNL     1     -11.910   7.147   0.353  0.00  0.00    +0.040 A 
ATOM     13  C   UNL     1     -10.646   7.484   0.682  0.00  0.00    +0.029 A 
ATOM     14  C   UNL     1      -9.720   6.487   1.099  0.00  0.00    +0.043 A 
ATOM     15  N   UNL     1      -8.462   6.561   1.464  0.00  0.00    -0.374 N 
ATOM     16  F   UNL     1     -13.660   5.567   0.055  0.00  0.00    -0.205 F 
ATOM     17  H   UNL     1      -7.932   7.372   1.508  0.00  0.00    +0.161 HD
ENDBRANCH   5   7
BRANCH   1  18
ATOM     18  N   UNL     1      -3.648   3.034   1.061  0.00  0.00    -0.216 N 
ATOM     19  H   UNL     1      -3.237   3.301   1.898  0.00  0.00    +0.174 HD
BRANCH  18  20
ATOM     20  S   UNL     1      -3.062   1.725   0.233  0.00  0.00    +0.079 S 
ATOM     21  O   UNL     1      -2.049   1.149   1.046  0.00  0.00    -0.150 OA
ATOM     22  O   UNL     1      -2.814   2.162  -1.096  0.00  0.00    -0.150 OA
BRANCH  20  31
ATOM     23  C   UNL     1      -4.451   0.523   2.615  0.00  0.00    +0.065 C 
ATOM     24  C   UNL     1      -4.931   0.056   1.264  0.00  0.00    +0.049 A 
ATOM     25  N   UNL     1      -5.945  -0.858   1.173  0.00  0.00    -0.310 N 
ATOM     26  C   UNL     1      -6.381  -1.280  -0.028  0.00  0.00    +0.327 A 
ATOM     27  O   UNL     1      -7.283  -2.093  -0.086  0.00  0.00    -0.247 OA
ATOM     28  N   UNL     1      -5.832  -0.816  -1.165  0.00  0.00    -0.273 N 
ATOM     29  C   UNL     1      -4.830   0.086  -1.118  0.00  0.00    +0.281 A 
ATOM     30  O   UNL     1      -4.333   0.506  -2.147  0.00  0.00    -0.266 OA
ATOM     31  C   UNL     1      -4.365   0.542   0.139  0.00  0.00    +0.191 A 
ATOM     32  H   UNL     1      -6.353  -1.204   1.982  0.00  0.00    +0.170 HD
ATOM     33  H   UNL     1      -6.158  -1.131  -2.023  0.00  0.00    +0.173 HD
ENDBRANCH  20  31
ENDBRANCH  18  20
ENDBRANCH   1  18
TORSDOF 4
