REMARK  Name = ZINC39449099
REMARK  4 active torsions:
REMARK  status: ('A' for Active; 'I' for Inactive)
REMARK    1  A    between atoms: C_4  and  C_7
REMARK    2  A    between atoms: C_7  and  C_8
REMARK    3  A    between atoms: C_18  and  S_21
REMARK    4  A    between atoms: S_21  and  C_24
REMARK                            x       y       z     vdW  Elec       q    Type
REMARK                         _______ _______ _______ _____ _____    ______ ____
ROOT
ATOM      1  C   UNL     1       4.171  -0.963   1.399  0.00  0.00    +0.082 C 
ATOM      2  C   UNL     1       5.560  -1.613   1.389  0.00  0.00    +0.104 C 
ATOM      3  C   UNL     1       5.454  -3.008   0.831  0.00  0.00    +0.187 C 
ATOM      4  O   UNL     1       6.398  -3.493   0.240  0.00  0.00    -0.290 OA
ATOM      5  C   UNL     1       4.266  -3.760   0.989  0.00  0.00    +0.154 A 
ATOM      6  C   UNL     1       3.171  -3.189   1.610  0.00  0.00    +0.085 A 
ATOM      7  C   UNL     1       1.939  -3.973   1.781  0.00  0.00    +0.099 A 
ATOM      8  C   UNL     1       1.917  -5.295   1.287  0.00  0.00    +0.072 A 
ATOM      9  C   UNL     1       0.758  -6.058   1.437  0.00  0.00    +0.044 A 
ATOM     10  C   UNL     1      -0.326  -5.476   2.070  0.00  0.00    +0.112 A 
ATOM     11  C   UNL     1      -0.231  -4.170   2.530  0.00  0.00    +0.138 A 
ATOM     12  N   UNL     1       0.870  -3.465   2.379  0.00  0.00    -0.251 NA
ATOM     13  C   UNL     1       3.118  -5.829   0.630  0.00  0.00    +0.297 A 
ATOM     14  O   UNL     1       3.119  -6.966   0.195  0.00  0.00    -0.264 OA
ATOM     15  N   UNL     1       4.216  -5.061   0.508  0.00  0.00    -0.088 N 
ATOM     16  O   UNL     1       5.359  -5.599  -0.131  0.00  0.00    -0.160 OA
ATOM     17  N   UNL     1       3.236  -1.885   2.063  0.00  0.00    -0.337 N 
ATOM     18  H   UNL     1       2.681  -1.584   2.799  0.00  0.00    +0.146 HD
ENDROOT
BRANCH  10  19
ATOM     19  S   UNL     1      -1.818  -6.386   2.290  0.00  0.00    +0.027 S 
ATOM     20  O   UNL     1      -2.861  -5.431   2.424  0.00  0.00    -0.164 OA
ATOM     21  O   UNL     1      -1.831  -7.394   1.288  0.00  0.00    -0.164 OA
BRANCH  19  22
ATOM     22  C   UNL     1      -1.696  -7.219   3.838  0.00  0.00    +0.094 A 
ATOM     23  C   UNL     1      -1.148  -8.486   3.901  0.00  0.00    +0.027 A 
ATOM     24  C   UNL     1      -1.053  -9.139   5.115  0.00  0.00    +0.002 A 
ATOM     25  C   UNL     1      -1.505  -8.524   6.268  0.00  0.00    +0.000 A 
ATOM     26  C   UNL     1      -2.052  -7.256   6.206  0.00  0.00    +0.002 A 
ATOM     27  C   UNL     1      -2.144  -6.602   4.992  0.00  0.00    +0.027 A 
ENDBRANCH  19  22
ENDBRANCH  10  19
BRANCH   1  28
ATOM     28  C   UNL     1       3.711  -0.707  -0.038  0.00  0.00    +0.057 C 
BRANCH  28  32
ATOM     29  C   UNL     1      -0.017   1.378   0.010  0.00  0.00    +0.000 A 
ATOM     30  C   UNL     1       1.171   2.086   0.002  0.00  0.00    +0.000 A 
ATOM     31  C   UNL     1       2.377   1.411  -0.013  0.00  0.00    +0.004 A 
ATOM     32  C   UNL     1       2.396   0.029  -0.020  0.00  0.00    -0.046 A 
ATOM     33  C   UNL     1       1.208  -0.679  -0.012  0.00  0.00    +0.004 A 
ATOM     34  C   UNL     1       0.002  -0.004   0.002  0.00  0.00    +0.000 A 
ENDBRANCH  28  32
ENDBRANCH   1  28
TORSDOF 4
