REMARK  Name = ZINC02205881
REMARK  10 active torsions:
REMARK  status: ('A' for Active; 'I' for Inactive)
REMARK    1  A    between atoms: C_1  and  C_2
REMARK    2  A    between atoms: C_2  and  C_3
REMARK    3  A    between atoms: C_2  and  C_4
REMARK    4  A    between atoms: C_4  and  C_5
REMARK    5  A    between atoms: C_11  and  N_15
REMARK    6  A    between atoms: N_15  and  C_16
REMARK    7  A    between atoms: C_16  and  C_17
REMARK    8  A    between atoms: C_17  and  N_54
REMARK    9  A    between atoms: C_22  and  C_25
REMARK   10  A    between atoms: C_22  and  C_26
REMARK                            x       y       z     vdW  Elec       q    Type
REMARK                         _______ _______ _______ _____ _____    ______ ____
ROOT
ATOM      1  C   UNL     1      -3.165   3.255   7.145  0.00  0.00    +0.051 A 
ATOM      2  C   UNL     1      -2.207   2.604   7.908  0.00  0.00    +0.004 A 
ATOM      3  C   UNL     1      -1.199   1.912   7.271  0.00  0.00    -0.023 A 
ATOM      4  C   UNL     1      -1.185   1.899   5.877  0.00  0.00    +0.070 A 
ATOM      5  C   UNL     1      -0.308   1.295   4.861  0.00  0.00    +0.124 A 
ATOM      6  C   UNL     1      -0.853   1.667   3.626  0.00  0.00    +0.196 A 
ATOM      7  C   UNL     1      -0.208   1.223   2.466  0.00  0.00    +0.165 A 
ATOM      8  N   UNL     1       0.880   0.469   2.588  0.00  0.00    -0.217 NA
ATOM      9  C   UNL     1       1.361   0.147   3.774  0.00  0.00    +0.224 A 
ATOM     10  N   UNL     1       0.788   0.542   4.892  0.00  0.00    -0.231 NA
ATOM     11  O   UNL     1      -1.950   2.421   3.846  0.00  0.00    -0.432 OA
ATOM     12  C   UNL     1      -2.184   2.582   5.166  0.00  0.00    +0.231 A 
ATOM     13  N   UNL     1      -3.132   3.229   5.830  0.00  0.00    -0.217 NA
ATOM     14  C   UNL     1      -0.136   1.180   8.043  0.00  0.00    +0.070 C 
ATOM     15  C   UNL     1      -0.119   1.673   9.492  0.00  0.00    +0.068 C 
ATOM     16  O   UNL     1      -1.460   1.662   9.992  0.00  0.00    -0.369 OA
ATOM     17  C   UNL     1      -2.287   2.670   9.409  0.00  0.00    +0.197 C 
ATOM     18  C   UNL     1       0.754   0.745  10.340  0.00  0.00    +0.041 C 
ATOM     19  C   UNL     1       0.442   3.095   9.544  0.00  0.00    +0.041 C 
ENDROOT
BRANCH   7  20
ATOM     20  N   UNL     1      -0.698   1.558   1.213  0.00  0.00    -0.328 N 
ATOM     21  H   UNL     1      -1.495   2.106   1.135  0.00  0.00    +0.147 HD
BRANCH  20  22
ATOM     22  C   UNL     1      -0.013   1.086   0.008  0.00  0.00    +0.083 C 
BRANCH  22  23
ATOM     23  C   UNL     1      -0.753   1.593  -1.232  0.00  0.00    -0.068 C 
BRANCH  23  26
ATOM     24  H   UNL     1      -0.535   1.441  -3.273  0.00  0.00    -0.090 HD
ATOM     25  H   UNL     1       0.903   1.401  -2.439  0.00  0.00    -0.090 HD
ATOM     26  N   UNL     1      -0.068   1.094  -2.437  0.00  0.00    +0.379 N 
ATOM     27  H   UNL     1      -0.094   0.068  -2.440  0.00  0.00    -0.090 HD
ENDBRANCH  23  26
ENDBRANCH  22  23
ENDBRANCH  20  22
ENDBRANCH   7  20
BRANCH   1  28
ATOM     28  C   UNL     1      -4.271   4.009   7.838  0.00  0.00    +0.059 C 
BRANCH  28  30
ATOM     29  C   UNL     1      -3.649   6.157   6.722  0.00  0.00    +0.007 C 
ATOM     30  C   UNL     1      -3.833   5.457   8.070  0.00  0.00    -0.011 C 
ATOM     31  C   UNL     1      -4.902   6.189   8.884  0.00  0.00    +0.007 C 
ENDBRANCH  28  30
ENDBRANCH   1  28
TORSDOF 6
