REMARK  Name = ZINC33369996
REMARK  10 active torsions:
REMARK  status: ('A' for Active; 'I' for Inactive)
REMARK    1  A    between atoms: C_1  and  C_2
REMARK    2  A    between atoms: C_2  and  C_3
REMARK    3  A    between atoms: C_3  and  C_4
REMARK    4  A    between atoms: C_4  and  C_5
REMARK    5  A    between atoms: C_5  and  C_7
REMARK    6  A    between atoms: C_5  and  C_9
REMARK    7  A    between atoms: C_7  and  C_8
REMARK    8  A    between atoms: C_18  and  C_22
REMARK    9  A    between atoms: N_24  and  C_25
REMARK   10  A    between atoms: C_25  and  C_26
REMARK                            x       y       z     vdW  Elec       q    Type
REMARK                         _______ _______ _______ _____ _____    ______ ____
ROOT
ATOM      1  C   UNL     1      10.024  -1.547  -5.038  0.00  0.00    +0.219 C 
ATOM      2  O   UNL     1      10.443  -0.755  -5.855  0.00  0.00    -0.275 OA
ATOM      3  N   UNL     1       8.802  -1.373  -4.497  0.00  0.00    -0.301 N 
ATOM      4  C   UNL     1       8.021  -0.163  -4.788  0.00  0.00    +0.107 C 
ATOM      5  C   UNL     1       6.646  -0.583  -5.322  0.00  0.00    +0.017 C 
ATOM      6  C   UNL     1       6.000  -1.555  -4.347  0.00  0.00    -0.016 C 
ATOM      7  C   UNL     1       6.852  -2.798  -4.145  0.00  0.00    +0.017 C 
ATOM      8  C   UNL     1       8.229  -2.391  -3.605  0.00  0.00    +0.107 C 
ATOM      9  N   UNL     1       5.710  -0.896  -3.056  0.00  0.00    +0.397 N 
ATOM     10  C   UNL     1       4.377  -0.261  -3.048  0.00  0.00    +0.028 C 
ATOM     11  C   UNL     1       3.335  -1.284  -3.595  0.00  0.00    +0.061 C 
ATOM     12  S   UNL     1       4.334  -2.032  -4.954  0.00  0.00    -0.174 S 
ATOM     13  H   UNL     1       5.741  -1.642  -2.248  0.00  0.00    -0.083 HD
ATOM     14  H   UNL     1       6.463  -0.117  -2.865  0.00  0.00    -0.083 HD
ENDROOT
BRANCH  10  15
ATOM     15  C   UNL     1       4.011   0.131  -1.640  0.00  0.00    +0.200 C 
ATOM     16  O   UNL     1       4.777  -0.098  -0.728  0.00  0.00    -0.278 OA
ATOM     17  N   UNL     1       2.832   0.736  -1.393  0.00  0.00    -0.313 N 
ATOM     18  H   UNL     1       2.137   0.943  -2.220  0.00  0.00    +0.149 HD
BRANCH  17  19
ATOM     19  C   UNL     1       2.476   1.117  -0.024  0.00  0.00    +0.139 C 
BRANCH  19  20
ATOM     20  C   UNL     1       1.118   1.770  -0.021  0.00  0.00    -0.027 A 
ATOM     21  C   UNL     1       1.011   3.139  -0.184  0.00  0.00    +0.009 A 
ATOM     22  C   UNL     1      -0.232   3.743  -0.181  0.00  0.00    +0.050 A 
ATOM     23  C   UNL     1      -1.375   2.977  -0.017  0.00  0.00    +0.166 A 
ATOM     24  C   UNL     1      -1.267   1.598   0.142  0.00  0.00    +0.167 A 
ATOM     25  C   UNL     1      -0.018   1.000   0.144  0.00  0.00    +0.054 A 
ATOM     26  O   UNL     1      -2.521   1.075   0.277  0.00  0.00    -0.453 OA
ATOM     27  C   UNL     1      -3.416   2.091  -0.213  0.00  0.00    +0.466 C 
ATOM     28  O   UNL     1      -2.696   3.319   0.022  0.00  0.00    -0.453 OA
ENDBRANCH  19  20
ENDBRANCH  17  19
ENDBRANCH  10  15
BRANCH   1  29
ATOM     29  C   UNL     1      10.868  -2.727  -4.630  0.00  0.00    +0.075 C 
BRANCH  29  30
ATOM     30  C   UNL     1      10.327  -3.996  -5.291  0.00  0.00    +0.009 C 
ATOM     31  C   UNL     1      10.481  -3.885  -6.809  0.00  0.00    +0.004 C 
ENDBRANCH  29  30
BRANCH  29  32
ATOM     32  C   UNL     1      12.314  -2.497  -5.074  0.00  0.00    +0.013 C 
BRANCH  32  33
ATOM     33  C   UNL     1      13.193  -3.638  -4.560  0.00  0.00    +0.000 C 
BRANCH  33  35
ATOM     34  C   UNL     1      15.537  -4.486  -4.378  0.00  0.00    +0.004 C 
ATOM     35  C   UNL     1      14.657  -3.345  -4.893  0.00  0.00    -0.003 C 
ENDBRANCH  33  35
ENDBRANCH  32  33
ENDBRANCH  29  32
ENDBRANCH   1  29
TORSDOF 8
