REMARK  Name = ZINC56646070
REMARK  10 active torsions:
REMARK  status: ('A' for Active; 'I' for Inactive)
REMARK    1  A    between atoms: C_1  and  C_2
REMARK    2  A    between atoms: C_4  and  N_23
REMARK    3  A    between atoms: C_7  and  N_8
REMARK    4  A    between atoms: N_11  and  C_12
REMARK    5  A    between atoms: C_12  and  C_14
REMARK    6  A    between atoms: C_12  and  C_15
REMARK    7  A    between atoms: C_15  and  C_16
REMARK    8  A    between atoms: C_19  and  O_22
REMARK    9  A    between atoms: N_23  and  C_24
REMARK   10  A    between atoms: N_23  and  C_25
REMARK                            x       y       z     vdW  Elec       q    Type
REMARK                         _______ _______ _______ _____ _____    ______ ____
ROOT
ATOM      1  N   UNL     1      -0.070   0.285   2.450  0.00  0.00    -0.269 N 
ATOM      2  C   UNL     1       0.000  -0.256   3.682  0.00  0.00    +0.304 C 
ATOM      3  O   UNL     1       0.189  -1.450   3.812  0.00  0.00    -0.253 OA
ATOM      4  N   UNL     1      -0.138   0.527   4.771  0.00  0.00    -0.296 N 
ATOM      5  H   UNL     1      -0.165   1.245   2.346  0.00  0.00    +0.156 HD
ATOM      6  H   UNL     1      -0.288   1.479   4.667  0.00  0.00    +0.151 HD
ENDROOT
BRANCH   1  13
ATOM      7  C   UNL     1      -1.294   1.203   0.052  0.00  0.00    +0.046 C 
ATOM      8  C   UNL     1      -0.592  -0.129   0.127  0.00  0.00    -0.027 A 
ATOM      9  C   UNL     1      -0.525  -0.938  -0.990  0.00  0.00    +0.028 A 
ATOM     10  C   UNL     1       0.122  -2.164  -0.921  0.00  0.00    +0.030 A 
ATOM     11  C   UNL     1       0.702  -2.577   0.272  0.00  0.00    +0.025 A 
ATOM     12  C   UNL     1       0.635  -1.768   1.388  0.00  0.00    +0.025 A 
ATOM     13  C   UNL     1      -0.008  -0.539   1.317  0.00  0.00    +0.038 A 
BRANCH  10  14
ATOM     14  N   UNL     1       0.189  -2.985  -2.052  0.00  0.00    -0.336 N 
ATOM     15  C   UNL     1      -0.528  -2.609  -3.273  0.00  0.00    +0.129 C 
ATOM     16  C   UNL     1       0.976  -4.220  -2.016  0.00  0.00    +0.129 C 
ENDBRANCH  10  14
ENDBRANCH   1  13
BRANCH   4  17
ATOM     17  C   UNL     1      -0.061  -0.062   6.110  0.00  0.00    +0.076 C 
ATOM     18  C   UNL     1       1.403  -0.154   6.543  0.00  0.00    +0.028 C 
BRANCH  17  19
ATOM     19  C   UNL     1      -0.831   0.817   7.098  0.00  0.00    +0.057 C 
BRANCH  19  20
ATOM     20  C   UNL     1      -2.295   0.809   6.742  0.00  0.00    -0.045 A 
ATOM     21  C   UNL     1      -2.797   1.750   5.862  0.00  0.00    +0.007 A 
ATOM     22  C   UNL     1      -4.139   1.744   5.535  0.00  0.00    +0.045 A 
ATOM     23  C   UNL     1      -4.984   0.794   6.090  0.00  0.00    +0.117 A 
ATOM     24  C   UNL     1      -4.478  -0.149   6.972  0.00  0.00    +0.045 A 
ATOM     25  C   UNL     1      -3.134  -0.143   7.292  0.00  0.00    +0.007 A 
BRANCH  23  26
ATOM     26  O   UNL     1      -6.304   0.787   5.770  0.00  0.00    -0.507 OA
ATOM     27  H   UNL     1      -6.520   0.242   5.001  0.00  0.00    +0.292 HD
ENDBRANCH  23  26
ENDBRANCH  19  20
ENDBRANCH  17  19
ENDBRANCH   4  17
TORSDOF 6
