REMARK  Name = ZINC53551775
REMARK  6 active torsions:
REMARK  status: ('A' for Active; 'I' for Inactive)
REMARK    1  A    between atoms: C_1  and  C_2
REMARK    2  A    between atoms: C_2  and  C_4
REMARK    3  A    between atoms: C_2  and  C_24
REMARK    4  A    between atoms: C_4  and  N_5
REMARK    5  A    between atoms: N_11  and  C_14
REMARK    6  A    between atoms: C_14  and  C_15
REMARK                            x       y       z     vdW  Elec       q    Type
REMARK                         _______ _______ _______ _____ _____    ______ ____
ROOT
ATOM      1  N   UNL     1       2.148  -0.104   1.172  0.00  0.00    -0.299 N 
ATOM      2  C   UNL     1       2.997  -0.441   2.162  0.00  0.00    +0.302 C 
ATOM      3  O   UNL     1       2.579  -1.004   3.156  0.00  0.00    -0.253 OA
ATOM      4  N   UNL     1       4.309  -0.155   2.051  0.00  0.00    -0.283 N 
ATOM      5  C   UNL     1       4.818   0.625   0.913  0.00  0.00    +0.124 C 
ATOM      6  C   UNL     1       5.990  -0.137   0.286  0.00  0.00    +0.104 C 
ATOM      7  N   UNL     1       6.984  -0.441   1.324  0.00  0.00    -0.294 NA
ATOM      8  C   UNL     1       6.425  -1.329   2.353  0.00  0.00    +0.104 C 
ATOM      9  C   UNL     1       5.270  -0.610   3.068  0.00  0.00    +0.124 C 
ATOM     10  H   UNL     1       2.467   0.409   0.413  0.00  0.00    +0.150 HD
ENDROOT
BRANCH   1  11
ATOM     11  C   UNL     1       0.743  -0.512   1.241  0.00  0.00    +0.113 C 
BRANCH  11  13
ATOM     12  C   UNL     1      -0.020   1.524   0.011  0.00  0.00    +0.014 C 
ATOM     13  C   UNL     1       0.002  -0.005   0.001  0.00  0.00    +0.033 C 
BRANCH  13  14
ATOM     14  C   UNL     1      -1.411  -0.528   0.011  0.00  0.00    -0.043 A 
ATOM     15  C   UNL     1      -2.259  -0.209   1.055  0.00  0.00    +0.004 A 
ATOM     16  C   UNL     1      -3.555  -0.689   1.064  0.00  0.00    +0.000 A 
ATOM     17  C   UNL     1      -4.004  -1.488   0.029  0.00  0.00    +0.000 A 
ATOM     18  C   UNL     1      -3.156  -1.807  -1.015  0.00  0.00    +0.000 A 
ATOM     19  C   UNL     1      -1.861  -1.323  -1.026  0.00  0.00    +0.004 A 
ENDBRANCH  13  14
ENDBRANCH  11  13
ENDBRANCH   1  11
BRANCH   7  20
ATOM     20  C   UNL     1       8.200  -1.018   0.735  0.00  0.00    +0.139 C 
BRANCH  20  21
ATOM     21  C   UNL     1       9.281  -1.089   1.784  0.00  0.00    +0.048 A 
ATOM     22  C   UNL     1      10.240  -0.161   1.990  0.00  0.00    +0.115 A 
ATOM     23  N   UNL     1      11.014  -0.604   3.029  0.00  0.00    -0.308 N 
ATOM     24  C   UNL     1      12.107  -0.079   3.655  0.00  0.00    +0.092 A 
ATOM     25  C   UNL     1      12.694  -0.735   4.678  0.00  0.00    +0.018 A 
ATOM     26  C   UNL     1      12.186  -1.971   5.112  0.00  0.00    +0.005 A 
ATOM     27  C   UNL     1      11.097  -2.505   4.497  0.00  0.00    +0.045 A 
ATOM     28  C   UNL     1      10.495  -1.807   3.430  0.00  0.00    +0.115 A 
ATOM     29  N   UNL     1       9.445  -2.077   2.667  0.00  0.00    -0.342 N 
ATOM     30  H   UNL     1       8.887  -2.867   2.737  0.00  0.00    +0.167 HD
ENDBRANCH  20  21
ENDBRANCH   7  20
TORSDOF 5
