REMARK  Name = ZINC13261609
REMARK  5 active torsions:
REMARK  status: ('A' for Active; 'I' for Inactive)
REMARK    1  A    between atoms: C_3  and  C_23
REMARK    2  A    between atoms: C_6  and  C_7
REMARK    3  A    between atoms: C_7  and  N_8
REMARK    4  A    between atoms: C_9  and  C_11
REMARK    5  A    between atoms: C_11  and  C_12
REMARK                            x       y       z     vdW  Elec       q    Type
REMARK                         _______ _______ _______ _____ _____    ______ ____
ROOT
ATOM      1  N   UNL     1       5.661  -3.818   3.459  0.00  0.00    -0.311 N 
ATOM      2  C   UNL     1       4.687  -3.150   2.809  0.00  0.00    +0.218 C 
ATOM      3  O   UNL     1       4.740  -3.022   1.604  0.00  0.00    -0.275 OA
ATOM      4  H   UNL     1       5.618  -3.920   4.423  0.00  0.00    +0.149 HD
ENDROOT
BRANCH   1   5
ATOM      5  C   UNL     1       6.783  -4.389   2.710  0.00  0.00    +0.139 C 
BRANCH   5  11
ATOM      6  C   UNL     1       8.770  -4.371   4.231  0.00  0.00    +0.006 A 
ATOM      7  C   UNL     1       9.632  -4.994   5.109  0.00  0.00    +0.015 A 
ATOM      8  C   UNL     1       9.455  -6.344   5.417  0.00  0.00    +0.063 A 
ATOM      9  C   UNL     1       8.401  -7.053   4.837  0.00  0.00    +0.015 A 
ATOM     10  C   UNL     1       7.543  -6.417   3.965  0.00  0.00    +0.006 A 
ATOM     11  C   UNL     1       7.724  -5.078   3.664  0.00  0.00    -0.030 A 
BRANCH   8  12
ATOM     12  C   UNL     1      10.378  -7.019   6.352  0.00  0.00    +0.387 C 
ATOM     13  O   UNL     1      10.221  -8.194   6.619  0.00  0.00    -0.241 OA
ATOM     14  O   UNL     1      11.394  -6.332   6.910  0.00  0.00    -0.241 OA
ENDBRANCH   8  12
ENDBRANCH   5  11
ENDBRANCH   1   5
BRANCH   2  15
ATOM     15  C   UNL     1       3.533  -2.562   3.579  0.00  0.00    +0.131 C 
BRANCH  15  16
ATOM     16  C   UNL     1       2.591  -1.873   2.625  0.00  0.00    -0.034 A 
ATOM     17  C   UNL     1       2.771  -0.536   2.323  0.00  0.00    +0.053 A 
ATOM     18  C   UNL     1       1.906   0.101   1.446  0.00  0.00    +0.164 A 
ATOM     19  C   UNL     1       0.860  -0.609   0.869  0.00  0.00    +0.180 A 
ATOM     20  C   UNL     1       0.685  -1.951   1.176  0.00  0.00    +0.086 A 
ATOM     21  C   UNL     1       1.550  -2.579   2.053  0.00  0.00    +0.028 A 
ATOM     22 CL   UNL     1      -0.622  -2.841   0.460  0.00  0.00    -0.080 Cl
ATOM     23  O   UNL     1       0.002  -0.004   0.002  0.00  0.00    -0.483 OA
ATOM     24  C   UNL     1      -0.017   1.428   0.010  0.00  0.00    +0.270 C 
ATOM     25  C   UNL     1       1.433   1.928  -0.001  0.00  0.00    +0.270 C 
ATOM     26  O   UNL     1       2.092   1.420   1.164  0.00  0.00    -0.485 OA
ENDBRANCH  15  16
ENDBRANCH   2  15
TORSDOF 5
