REMARK  Name = ZINC06286468
REMARK  7 active torsions:
REMARK  status: ('A' for Active; 'I' for Inactive)
REMARK    1  A    between atoms: C_1  and  C_2
REMARK    2  A    between atoms: C_4  and  C_14
REMARK    3  A    between atoms: C_5  and  C_13
REMARK    4  A    between atoms: N_6  and  C_7
REMARK    5  A    between atoms: N_16  and  N_17
REMARK    6  A    between atoms: C_18  and  C_19
REMARK    7  A    between atoms: C_22  and  C_25
REMARK                            x       y       z     vdW  Elec       q    Type
REMARK                         _______ _______ _______ _____ _____    ______ ____
ROOT
ATOM      1  C   UNL     1      -6.258   7.330   0.069  0.00  0.00    +0.265 C 
ATOM      2  O   UNL     1      -5.213   7.952   0.068  0.00  0.00    -0.268 OA
ATOM      3  N   UNL     1      -6.240   5.982   0.062  0.00  0.00    -0.203 N 
ATOM      4  H   UNL     1      -7.074   5.486   0.062  0.00  0.00    +0.178 HD
ENDROOT
BRANCH   1   8
ATOM      5  C   UNL     1     -11.257   8.352   0.096  0.00  0.00    +0.064 C 
ATOM      6  C   UNL     1      -9.755   8.479   0.090  0.00  0.00    +0.022 A 
ATOM      7  C   UNL     1      -8.885   7.454   0.081  0.00  0.00    +0.036 A 
ATOM      8  C   UNL     1      -7.543   8.048   0.078  0.00  0.00    +0.059 A 
ATOM      9  C   UNL     1      -7.726   9.404   0.092  0.00  0.00    +0.033 A 
ATOM     10  N   UNL     1      -9.057   9.653   0.094  0.00  0.00    -0.317 N 
ATOM     11  C   UNL     1      -6.633  10.442   0.100  0.00  0.00    +0.064 C 
BRANCH  10  12
ATOM     12  C   UNL     1      -9.634  10.931   0.104  0.00  0.00    +0.047 A 
ATOM     13  C   UNL     1      -9.459  11.782  -0.978  0.00  0.00    +0.026 A 
ATOM     14  C   UNL     1     -10.033  13.039  -0.966  0.00  0.00    +0.002 A 
ATOM     15  C   UNL     1     -10.774  13.452   0.126  0.00  0.00    +0.000 A 
ATOM     16  C   UNL     1     -10.946  12.608   1.207  0.00  0.00    +0.002 A 
ATOM     17  C   UNL     1     -10.379  11.348   1.200  0.00  0.00    +0.026 A 
ENDBRANCH  10  12
ENDBRANCH   1   8
BRANCH   3  18
ATOM     18  N   UNL     1      -5.018   5.298   0.053  0.00  0.00    -0.187 NA
ATOM     19  C   UNL     1      -5.000   3.999   0.046  0.00  0.00    +0.138 C 
BRANCH  19  20
ATOM     20  C   UNL     1      -3.714   3.280   0.037  0.00  0.00    -0.005 A 
ATOM     21  C   UNL     1      -3.695   1.882   0.029  0.00  0.00    +0.010 A 
ATOM     22  C   UNL     1      -2.503   1.215   0.021  0.00  0.00    +0.016 A 
ATOM     23  C   UNL     1      -1.302   1.931   0.019  0.00  0.00    +0.063 A 
ATOM     24  C   UNL     1      -1.321   3.329   0.032  0.00  0.00    +0.016 A 
ATOM     25  C   UNL     1      -2.513   3.996   0.036  0.00  0.00    +0.010 A 
BRANCH  23  26
ATOM     26  C   UNL     1      -0.014   1.211   0.009  0.00  0.00    +0.387 C 
ATOM     27  O   UNL     1       0.002  -0.004   0.002  0.00  0.00    -0.241 OA
ATOM     28  O   UNL     1       1.143   1.900   0.001  0.00  0.00    -0.241 OA
ENDBRANCH  23  26
ENDBRANCH  19  20
ENDBRANCH   3  18
TORSDOF 5
