REMARK  Name = ZINC20558265
REMARK  5 active torsions:
REMARK  status: ('A' for Active; 'I' for Inactive)
REMARK    1  A    between atoms: C_4  and  C_7
REMARK    2  A    between atoms: C_7  and  N_8
REMARK    3  A    between atoms: C_20  and  C_28
REMARK    4  A    between atoms: C_22  and  C_26
REMARK    5  A    between atoms: C_23  and  N_25
REMARK                            x       y       z     vdW  Elec       q    Type
REMARK                         _______ _______ _______ _____ _____    ______ ____
ROOT
ATOM      1  N   UNL     1       0.997   3.286  -0.039  0.00  0.00    -0.198 N 
ATOM      2  C   UNL     1       0.881   1.906  -0.245  0.00  0.00    +0.062 A 
ATOM      3  C   UNL     1      -0.388   1.353  -0.359  0.00  0.00    +0.025 A 
ATOM      4  C   UNL     1      -0.538  -0.008  -0.542  0.00  0.00    +0.002 A 
ATOM      5  C   UNL     1       0.577  -0.825  -0.613  0.00  0.00    +0.001 A 
ATOM      6  C   UNL     1       1.841  -0.288  -0.506  0.00  0.00    +0.013 A 
ATOM      7  C   UNL     1       2.011   1.090  -0.324  0.00  0.00    +0.042 A 
ATOM      8  C   UNL     1       3.396   1.612  -0.236  0.00  0.00    +0.162 C 
ATOM      9  C   UNL     1       3.658   2.815   0.265  0.00  0.00    +0.141 C 
ATOM     10  S   UNL     1       2.312   3.812   0.837  0.00  0.00    +0.076 S 
ATOM     11  O   UNL     1       2.579   5.146   0.425  0.00  0.00    -0.150 OA
ATOM     12  O   UNL     1       2.078   3.458   2.193  0.00  0.00    -0.150 OA
ATOM     13  C   UNL     1       5.061   3.346   0.358  0.00  0.00    +0.119 C 
ATOM     14  C   UNL     1       6.051   2.221   0.232  0.00  0.00    +0.099 C 
ATOM     15  C   UNL     1       5.665   1.025  -0.281  0.00  0.00    +0.199 C 
ATOM     16  O   UNL     1       4.402   0.818  -0.689  0.00  0.00    -0.439 OA
ENDROOT
BRANCH  13  17
ATOM     17  C   UNL     1       5.294   4.339  -0.751  0.00  0.00    -0.015 A 
ATOM     18  C   UNL     1       5.172   3.943  -2.070  0.00  0.00    +0.006 A 
ATOM     19  C   UNL     1       5.386   4.854  -3.088  0.00  0.00    +0.000 A 
ATOM     20  C   UNL     1       5.721   6.161  -2.788  0.00  0.00    +0.001 A 
ATOM     21  C   UNL     1       5.844   6.558  -1.470  0.00  0.00    +0.020 A 
ATOM     22  C   UNL     1       5.625   5.648  -0.450  0.00  0.00    +0.045 A 
ATOM     23 CL   UNL     1       5.771   6.147   1.206  0.00  0.00    -0.083 Cl
ENDBRANCH  13  17
BRANCH  15  24
ATOM     24  N   UNL     1       6.582   0.009  -0.385  0.00  0.00    -0.328 N 
ATOM     25  H   UNL     1       6.279  -0.964  -0.799  0.00  0.00    +0.145 HD
ATOM     26  H   UNL     1       7.619   0.168  -0.054  0.00  0.00    +0.145 HD
ENDBRANCH  15  24
BRANCH  14  27
ATOM     27  C   UNL     1       7.406   2.411   0.655  0.00  0.00    +0.101 C 
ATOM     28  N   UNL     1       8.481   2.562   0.991  0.00  0.00    -0.191 NA
ENDBRANCH  14  27
BRANCH   1  29
ATOM     29  C   UNL     1       0.005   4.225  -0.569  0.00  0.00    +0.166 C 
BRANCH  29  33
ATOM     30  C   UNL     1       0.905   5.091  -4.654  0.00  0.00    +0.000 A 
ATOM     31  C   UNL     1       0.166   3.968  -4.332  0.00  0.00    +0.000 A 
ATOM     32  C   UNL     1      -0.125   3.688  -3.010  0.00  0.00    +0.005 A 
ATOM     33  C   UNL     1       0.323   4.530  -2.010  0.00  0.00    -0.028 A 
ATOM     34  C   UNL     1       1.058   5.656  -2.332  0.00  0.00    +0.005 A 
ATOM     35  C   UNL     1       1.354   5.933  -3.654  0.00  0.00    +0.000 A 
ENDBRANCH  29  33
ENDBRANCH   1  29
TORSDOF 5
