REMARK  Name = ZINC08716246
REMARK  7 active torsions:
REMARK  status: ('A' for Active; 'I' for Inactive)
REMARK    1  A    between atoms: C_1  and  C_2
REMARK    2  A    between atoms: C_9  and  C_14
REMARK    3  A    between atoms: C_14  and  O_16
REMARK    4  A    between atoms: O_16  and  C_17
REMARK    5  A    between atoms: C_17  and  C_19
REMARK    6  A    between atoms: C_17  and  C_20
REMARK    7  A    between atoms: N_22  and  C_23
REMARK                            x       y       z     vdW  Elec       q    Type
REMARK                         _______ _______ _______ _____ _____    ______ ____
ROOT
ATOM      1  O   UNL     1      -4.386   6.921   1.002  0.00  0.00    -0.449 OA
ENDROOT
BRANCH   1   2
ATOM      2  C   UNL     1      -4.159   5.593   0.969  0.00  0.00    +0.340 C 
ATOM      3  O   UNL     1      -5.020   4.821   1.343  0.00  0.00    -0.245 OA
BRANCH   2  11
ATOM      4  C   UNL     1       1.697   2.277   1.367  0.00  0.00    +0.029 C 
ATOM      5  C   UNL     1       1.288   1.949  -0.070  0.00  0.00    +0.134 C 
ATOM      6  C   UNL     1      -0.029   1.223  -0.066  0.00  0.00    +0.230 C 
ATOM      7  O   UNL     1      -0.015   0.010  -0.083  0.00  0.00    -0.274 OA
ATOM      8  N   UNL     1      -1.209   1.836  -0.050  0.00  0.00    -0.284 N 
ATOM      9  C   UNL     1      -1.423   3.212  -0.014  0.00  0.00    +0.048 A 
ATOM     10  C   UNL     1      -2.635   3.701   0.446  0.00  0.00    +0.039 A 
ATOM     11  C   UNL     1      -2.868   5.078   0.480  0.00  0.00    +0.061 A 
ATOM     12  C   UNL     1      -1.879   5.968   0.051  0.00  0.00    +0.016 A 
ATOM     13  C   UNL     1      -0.673   5.483  -0.405  0.00  0.00    +0.017 A 
ATOM     14  C   UNL     1      -0.442   4.114  -0.438  0.00  0.00    +0.030 A 
ATOM     15  S   UNL     1       1.104   3.489  -1.019  0.00  0.00    -0.111 S 
ATOM     16  H   UNL     1      -1.997   1.270  -0.061  0.00  0.00    +0.155 HD
ENDBRANCH   2  11
ENDBRANCH   1   2
BRANCH   1  17
ATOM     17  C   UNL     1      -5.680   7.357   1.496  0.00  0.00    +0.259 C 
ATOM     18  C   UNL     1      -6.665   7.454   0.329  0.00  0.00    +0.062 C 
BRANCH  17  19
ATOM     19  C   UNL     1      -5.539   8.709   2.147  0.00  0.00    +0.258 C 
ATOM     20  O   UNL     1      -4.476   9.292   2.112  0.00  0.00    -0.271 OA
ATOM     21  N   UNL     1      -6.595   9.270   2.770  0.00  0.00    -0.280 N 
ATOM     22  H   UNL     1      -7.461   8.835   2.743  0.00  0.00    +0.155 HD
BRANCH  21  23
ATOM     23  C   UNL     1      -6.441  10.483   3.455  0.00  0.00    +0.072 A 
ATOM     24  C   UNL     1      -5.562  11.445   2.977  0.00  0.00    +0.029 A 
ATOM     25  C   UNL     1      -5.412  12.640   3.653  0.00  0.00    +0.043 A 
ATOM     26  C   UNL     1      -6.136  12.881   4.808  0.00  0.00    +0.161 A 
ATOM     27  C   UNL     1      -7.014  11.923   5.290  0.00  0.00    +0.195 A 
ATOM     28  C   UNL     1      -7.172  10.726   4.612  0.00  0.00    +0.182 A 
ATOM     29  F   UNL     1      -8.032   9.793   5.077  0.00  0.00    -0.200 F 
ATOM     30  F   UNL     1      -7.719  12.159   6.418  0.00  0.00    -0.199 F 
ATOM     31  F   UNL     1      -5.987  14.052   5.466  0.00  0.00    -0.202 F 
ENDBRANCH  21  23
ENDBRANCH  17  19
ENDBRANCH   1  17
TORSDOF 5
