REMARK  Name = ZINC04473599
REMARK  9 active torsions:
REMARK  status: ('A' for Active; 'I' for Inactive)
REMARK    1  A    between atoms: C_1  and  O_2
REMARK    2  A    between atoms: O_2  and  C_3
REMARK    3  A    between atoms: C_7  and  C_11
REMARK    4  A    between atoms: C_8  and  O_9
REMARK    5  A    between atoms: O_9  and  C_10
REMARK    6  A    between atoms: C_20  and  C_26
REMARK    7  A    between atoms: C_20  and  C_28
REMARK    8  A    between atoms: C_21  and  N_25
REMARK    9  A    between atoms: C_22  and  C_23
REMARK                            x       y       z     vdW  Elec       q    Type
REMARK                         _______ _______ _______ _____ _____    ______ ____
ROOT
ATOM      1  C   UNL     1       1.364   3.479  -0.662  0.00  0.00    +0.072 C 
ATOM      2  C   UNL     1       1.389   2.097   0.000  0.00  0.00    +0.030 C 
ATOM      3  C   UNL     1      -0.019   1.522   0.010  0.00  0.00    +0.009 C 
ATOM      4  C   UNL     1       0.002  -0.004   0.002  0.00  0.00    +0.005 C 
ATOM      5  C   UNL     1       0.684  -0.468  -1.291  0.00  0.00    +0.027 C 
ATOM      6  C   UNL     1       2.072   0.111  -1.322  0.00  0.00    -0.024 C 
ATOM      7  C   UNL     1       2.372   1.233  -0.741  0.00  0.00    -0.030 C 
ATOM      8  C   UNL     1       3.814   1.710  -0.781  0.00  0.00    +0.202 C 
ATOM      9  C   UNL     1       3.834   3.194  -1.006  0.00  0.00    +0.054 C 
ATOM     10  C   UNL     1       2.752   3.967  -0.935  0.00  0.00    +0.057 C 
ENDROOT
BRANCH   1  15
ATOM     11  C   UNL     1      -1.229   4.078  -3.355  0.00  0.00    +0.162 A 
ATOM     12  C   UNL     1      -0.783   3.228  -4.354  0.00  0.00    +0.049 A 
ATOM     13  C   UNL     1       0.352   2.464  -4.156  0.00  0.00    +0.004 A 
ATOM     14  C   UNL     1       1.048   2.550  -2.965  0.00  0.00    +0.008 A 
ATOM     15  C   UNL     1       0.606   3.392  -1.962  0.00  0.00    +0.007 A 
ATOM     16  C   UNL     1      -0.531   4.160  -2.153  0.00  0.00    +0.165 A 
BRANCH  11  18
ATOM     17  C   UNL     1      -3.010   4.693  -4.805  0.00  0.00    +0.277 C 
ATOM     18  O   UNL     1      -2.346   4.830  -3.547  0.00  0.00    -0.491 OA
ENDBRANCH  11  18
BRANCH  16  19
ATOM     19  O   UNL     1      -0.965   4.993  -1.169  0.00  0.00    -0.491 OA
ATOM     20  C   UNL     1      -0.458   6.328  -1.179  0.00  0.00    +0.277 C 
ENDBRANCH  16  19
ENDBRANCH   1  15
BRANCH   9  21
ATOM     21  N   UNL     1       5.033   3.787  -1.303  0.00  0.00    -0.358 N 
ATOM     22  H   UNL     1       5.083   4.872  -1.474  0.00  0.00    +0.142 HD
ATOM     23  H   UNL     1       5.946   3.177  -1.370  0.00  0.00    +0.142 HD
ENDBRANCH   9  21
BRANCH  10  24
ATOM     24  C   UNL     1       2.931   5.373  -1.135  0.00  0.00    +0.097 C 
ATOM     25  N   UNL     1       3.073   6.489  -1.294  0.00  0.00    -0.191 NA
ENDBRANCH  10  24
BRANCH   8  26
ATOM     26  C   UNL     1       4.471   1.398   0.499  0.00  0.00    +0.095 C 
ATOM     27  N   UNL     1       4.978   1.158   1.487  0.00  0.00    -0.194 NA
ENDBRANCH   8  26
BRANCH   8  28
ATOM     28  C   UNL     1       4.525   1.034  -1.878  0.00  0.00    +0.095 C 
ATOM     29  N   UNL     1       5.074   0.513  -2.725  0.00  0.00    -0.194 NA
ENDBRANCH   8  28
TORSDOF 7
