REMARK  Name = ZINC66354547
REMARK  6 active torsions:
REMARK  status: ('A' for Active; 'I' for Inactive)
REMARK    1  A    between atoms: C_1  and  C_2
REMARK    2  A    between atoms: C_2  and  C_3
REMARK    3  A    between atoms: C_3  and  C_28
REMARK    4  A    between atoms: C_16  and  S_18
REMARK    5  A    between atoms: S_18  and  C_19
REMARK    6  A    between atoms: C_19  and  C_20
REMARK                            x       y       z     vdW  Elec       q    Type
REMARK                         _______ _______ _______ _____ _____    ______ ____
ROOT
ATOM      1  C   UNL     1       0.718  -0.497  -1.257  0.00  0.00    +0.071 C 
ATOM      2  C   UNL     1       0.749  -2.028  -1.257  0.00  0.00    +0.067 C 
ATOM      3  C   UNL     1       1.247  -2.501  -2.616  0.00  0.00    -0.042 C 
ATOM      4  C   UNL     1       1.198  -1.664  -3.671  0.00  0.00    +0.013 C 
ATOM      5  C   UNL     1       0.742  -0.240  -3.639  0.00  0.00    +0.202 C 
ATOM      6  O   UNL     1       0.025  -0.023  -2.414  0.00  0.00    -0.368 OA
ATOM      7  S   UNL     1       1.723  -2.601  -5.098  0.00  0.00    -0.099 S 
ATOM      8  C   UNL     1       1.491  -4.264  -4.359  0.00  0.00    +0.184 C 
ATOM      9  C   UNL     1       1.851  -3.817  -2.903  0.00  0.00    +0.114 C 
ATOM     10  C   UNL     1       1.685  -5.002  -2.030  0.00  0.00    +0.105 C 
ATOM     11  N   UNL     1       2.178  -6.126  -2.546  0.00  0.00    -0.211 NA
ATOM     12  C   UNL     1       2.811  -6.110  -3.752  0.00  0.00    +0.187 C 
ATOM     13  N   UNL     1       2.505  -5.241  -4.719  0.00  0.00    -0.244 NA
ATOM     14  N   UNL     1       1.085  -4.947  -0.810  0.00  0.00    -0.346 N 
ATOM     15  C   UNL     1       2.152   0.037  -1.268  0.00  0.00    +0.042 C 
ATOM     16  H   UNL     1       0.742  -4.103  -0.477  0.00  0.00    +0.143 HD
ATOM     17  H   UNL     1       1.000  -5.751  -0.275  0.00  0.00    +0.143 HD
ENDROOT
BRANCH   1  19
ATOM     18  C   UNL     1      -0.019   1.526   0.010  0.00  0.00    +0.007 C 
ATOM     19  C   UNL     1       0.002  -0.004   0.002  0.00  0.00    +0.032 C 
ENDBRANCH   1  19
BRANCH  12  20
ATOM     20  S   UNL     1       4.070  -7.303  -4.062  0.00  0.00    -0.082 S 
BRANCH  20  21
ATOM     21  C   UNL     1       4.628  -6.925  -5.746  0.00  0.00    +0.114 C 
BRANCH  21  22
ATOM     22  C   UNL     1       5.720  -7.885  -6.141  0.00  0.00    -0.019 A 
ATOM     23  C   UNL     1       7.041  -7.577  -5.876  0.00  0.00    +0.006 A 
ATOM     24  C   UNL     1       8.043  -8.458  -6.239  0.00  0.00    +0.000 A 
ATOM     25  C   UNL     1       7.724  -9.648  -6.866  0.00  0.00    +0.001 A 
ATOM     26  C   UNL     1       6.403  -9.957  -7.131  0.00  0.00    +0.020 A 
ATOM     27  C   UNL     1       5.400  -9.079  -6.763  0.00  0.00    +0.045 A 
ATOM     28 CL   UNL     1       3.740  -9.470  -7.090  0.00  0.00    -0.083 Cl
ENDBRANCH  21  22
ENDBRANCH  20  21
ENDBRANCH  12  20
TORSDOF 4
