REMARK  Name = ZINC02208708
REMARK  5 active torsions:
REMARK  status: ('A' for Active; 'I' for Inactive)
REMARK    1  A    between atoms: C_1  and  C_2
REMARK    2  A    between atoms: C_2  and  C_3
REMARK    3  A    between atoms: C_3  and  C_4
REMARK    4  A    between atoms: C_10  and  O_14
REMARK    5  A    between atoms: O_14  and  C_15
REMARK                            x       y       z     vdW  Elec       q    Type
REMARK                         _______ _______ _______ _____ _____    ______ ____
ROOT
ATOM      1  C   UNL     1       0.739  -2.004  -1.265  0.00  0.00    +0.049 A 
ATOM      2  C   UNL     1       1.808  -2.669  -0.676  0.00  0.00    -0.022 A 
ATOM      3  C   UNL     1       1.819  -4.045  -0.675  0.00  0.00    -0.028 A 
ATOM      4  C   UNL     1       0.755  -4.713  -1.287  0.00  0.00    +0.070 A 
ATOM      5  C   UNL     1       0.418  -6.130  -1.496  0.00  0.00    +0.126 A 
ATOM      6  C   UNL     1      -0.800  -6.127  -2.190  0.00  0.00    +0.218 A 
ATOM      7  C   UNL     1      -1.362  -7.361  -2.526  0.00  0.00    +0.262 A 
ATOM      8  N   UNL     1      -0.725  -8.471  -2.177  0.00  0.00    -0.198 NA
ATOM      9  C   UNL     1       0.421  -8.427  -1.523  0.00  0.00    +0.225 A 
ATOM     10  N   UNL     1       0.989  -7.289  -1.184  0.00  0.00    -0.231 NA
ATOM     11  O   UNL     1      -1.181  -4.849  -2.391  0.00  0.00    -0.430 OA
ATOM     12  C   UNL     1      -0.288  -3.979  -1.871  0.00  0.00    +0.231 A 
ATOM     13  N   UNL     1      -0.253  -2.654  -1.833  0.00  0.00    -0.217 NA
ATOM     14  C   UNL     1       2.921  -4.851  -0.045  0.00  0.00    +0.036 C 
ATOM     15  C   UNL     1       4.167  -3.984   0.156  0.00  0.00    +0.005 C 
ATOM     16  C   UNL     1       3.747  -2.705   0.889  0.00  0.00    +0.005 C 
ATOM     17  C   UNL     1       2.913  -1.851  -0.065  0.00  0.00    +0.037 C 
ENDROOT
BRANCH   7  18
ATOM     18  O   UNL     1      -2.539  -7.423  -3.197  0.00  0.00    -0.477 OA
ATOM     19  C   UNL     1      -3.044  -8.725  -3.501  0.00  0.00    +0.279 C 
ENDBRANCH   7  18
BRANCH   1  20
ATOM     20  C   UNL     1       0.718  -0.497  -1.257  0.00  0.00    +0.055 C 
BRANCH  20  22
ATOM     21  C   UNL     1      -0.019   1.526   0.010  0.00  0.00    +0.004 C 
ATOM     22  C   UNL     1       0.002  -0.004   0.002  0.00  0.00    +0.003 C 
ENDBRANCH  20  22
ENDBRANCH   1  20
TORSDOF 3
