REMARK  Name = ZINC35565229
REMARK  10 active torsions:
REMARK  status: ('A' for Active; 'I' for Inactive)
REMARK    1  A    between atoms: C_1  and  C_2
REMARK    2  A    between atoms: C_5  and  C_9
REMARK    3  A    between atoms: C_7  and  C_8
REMARK    4  A    between atoms: C_18  and  C_32
REMARK    5  A    between atoms: C_21  and  C_24
REMARK    6  A    between atoms: C_27  and  C_31
REMARK    7  A    between atoms: C_28  and  C_30
REMARK    8  A    between atoms: C_32  and  C_34
REMARK    9  A    between atoms: C_32  and  O_36
REMARK   10  A    between atoms: C_34  and  O_35
REMARK                            x       y       z     vdW  Elec       q    Type
REMARK                         _______ _______ _______ _____ _____    ______ ____
ROOT
ATOM      1  C   UNL     1       0.059  -4.275  -0.021  0.00  0.00    +0.282 C 
ATOM      2  O   UNL     1      -1.029  -4.766   0.762  0.00  0.00    -0.345 OA
ATOM      3  C   UNL     1      -2.328  -4.432   0.255  0.00  0.00    +0.197 C 
ATOM      4  C   UNL     1      -2.431  -4.964  -1.174  0.00  0.00    +0.179 C 
ATOM      5  C   UNL     1      -1.275  -4.367  -1.991  0.00  0.00    +0.184 C 
ATOM      6  O   UNL     1      -0.051  -4.744  -1.371  0.00  0.00    -0.339 OA
ATOM      7  C   UNL     1      -1.378  -4.899  -3.420  0.00  0.00    +0.184 C 
ATOM      8  O   UNL     1      -2.677  -4.565  -3.927  0.00  0.00    -0.339 OA
ATOM      9  C   UNL     1      -3.765  -5.056  -3.144  0.00  0.00    +0.283 C 
ATOM     10  O   UNL     1      -3.659  -4.588  -1.794  0.00  0.00    -0.339 OA
ENDROOT
BRANCH   1  15
ATOM     11  C   UNL     1      -0.018   1.503   0.009  0.00  0.00    +0.044 C 
ATOM     12  C   UNL     1       0.002  -0.004   0.001  0.00  0.00    -0.048 A 
ATOM     13  C   UNL     1       0.600  -0.682  -1.046  0.00  0.00    +0.004 A 
ATOM     14  C   UNL     1       0.618  -2.064  -1.053  0.00  0.00    +0.009 A 
ATOM     15  C   UNL     1       0.040  -2.768  -0.013  0.00  0.00    +0.008 A 
ATOM     16  C   UNL     1      -0.556  -2.091   1.034  0.00  0.00    +0.012 A 
ATOM     17  C   UNL     1      -0.571  -0.708   1.043  0.00  0.00    -0.047 A 
ATOM     18  C   UNL     1      -1.216   0.031   2.187  0.00  0.00    +0.044 C 
ENDBRANCH   1  15
BRANCH   9  19
ATOM     19  C   UNL     1      -5.064  -4.571  -3.735  0.00  0.00    +0.008 A 
ATOM     20  C   UNL     1      -5.055  -3.782  -4.870  0.00  0.00    +0.009 A 
ATOM     21  C   UNL     1      -6.246  -3.337  -5.412  0.00  0.00    +0.004 A 
ATOM     22  C   UNL     1      -7.446  -3.682  -4.820  0.00  0.00    -0.048 A 
ATOM     23  C   UNL     1      -7.456  -4.472  -3.686  0.00  0.00    -0.047 A 
ATOM     24  C   UNL     1      -6.264  -4.920  -3.146  0.00  0.00    +0.012 A 
ATOM     25  C   UNL     1      -8.764  -4.847  -3.039  0.00  0.00    +0.044 C 
ATOM     26  C   UNL     1      -8.745  -3.196  -5.410  0.00  0.00    +0.044 C 
ENDBRANCH   9  19
BRANCH   7  27
ATOM     27  C   UNL     1      -0.300  -4.250  -4.292  0.00  0.00    +0.171 C 
BRANCH  27  28
ATOM     28  O   UNL     1      -0.411  -2.828  -4.207  0.00  0.00    -0.387 OA
ATOM     29  H   UNL     1      -1.264  -2.482  -4.503  0.00  0.00    +0.210 HD
ENDBRANCH  27  28
BRANCH  27  30
ATOM     30  C   UNL     1      -0.486  -4.691  -5.745  0.00  0.00    +0.189 C 
BRANCH  30  31
ATOM     31  O   UNL     1       0.587  -4.180  -6.538  0.00  0.00    -0.392 OA
ATOM     32  H   UNL     1       0.534  -4.420  -7.473  0.00  0.00    +0.210 HD
ENDBRANCH  30  31
ENDBRANCH  27  30
ENDBRANCH   7  27
TORSDOF 6
