REMARK  Name = ZINC39662543
REMARK  5 active torsions:
REMARK  status: ('A' for Active; 'I' for Inactive)
REMARK    1  A    between atoms: C_4  and  C_7
REMARK    2  A    between atoms: C_7  and  C_9
REMARK    3  A    between atoms: C_7  and  N_11
REMARK    4  A    between atoms: C_12  and  C_14
REMARK    5  A    between atoms: C_25  and  C_27
REMARK                            x       y       z     vdW  Elec       q    Type
REMARK                         _______ _______ _______ _____ _____    ______ ____
ROOT
ATOM      1  C   UNL     1       4.676  -4.138   2.183  0.00  0.00    +0.100 C 
ATOM      2  C   UNL     1       3.946  -3.573   3.421  0.00  0.00    +0.121 C 
ATOM      3  N   UNL     1       4.672  -4.147   4.578  0.00  0.00    -0.296 N 
ATOM      4  C   UNL     1       6.098  -4.108   4.175  0.00  0.00    +0.115 C 
ATOM      5  C   UNL     1       6.088  -4.488   2.681  0.00  0.00    -0.004 C 
ATOM      6  C   UNL     1       7.133  -3.674   1.923  0.00  0.00    -0.010 C 
ATOM      7  C   UNL     1       8.531  -4.080   2.395  0.00  0.00    -0.082 C 
ATOM      8  N   UNL     1       8.732  -5.515   2.156  0.00  0.00    +0.379 N 
ATOM      9  C   UNL     1       7.784  -6.294   2.962  0.00  0.00    -0.082 C 
ATOM     10  C   UNL     1       6.353  -5.981   2.514  0.00  0.00    -0.010 C 
ATOM     11  C   UNL     1       4.153  -4.604   5.736  0.00  0.00    +0.248 C 
ATOM     12  O   UNL     1       4.892  -4.963   6.634  0.00  0.00    -0.270 OA
ATOM     13  H   UNL     1       8.586  -5.716   1.179  0.00  0.00    -0.086 HD
ATOM     14  H   UNL     1       9.675  -5.768   2.412  0.00  0.00    -0.086 HD
ENDROOT
BRANCH  11  15
ATOM     15  C   UNL     1       2.697  -4.668   5.912  0.00  0.00    +0.052 A 
ATOM     16  C   UNL     1       1.882  -3.736   5.353  0.00  0.00    +0.059 A 
ATOM     17  S   UNL     1       0.327  -4.179   5.797  0.00  0.00    -0.096 S 
ATOM     18  C   UNL     1       0.675  -5.630   6.753  0.00  0.00    +0.020 A 
ATOM     19  C   UNL     1       2.078  -5.741   6.693  0.00  0.00    +0.001 A 
ATOM     20  C   UNL     1       2.668  -6.825   7.369  0.00  0.00    +0.010 A 
ATOM     21  C   UNL     1       1.889  -7.728   8.049  0.00  0.00    +0.001 A 
ATOM     22  C   UNL     1       0.508  -7.599   8.088  0.00  0.00    +0.001 A 
ATOM     23  C   UNL     1      -0.098  -6.539   7.443  0.00  0.00    +0.015 A 
ENDBRANCH  11  15
BRANCH   1  25
ATOM     24  N   UNL     1       4.780  -3.477  -0.199  0.00  0.00    -0.296 N 
ATOM     25  C   UNL     1       4.746  -3.098   1.094  0.00  0.00    +0.219 C 
ATOM     26  O   UNL     1       4.771  -1.920   1.382  0.00  0.00    -0.275 OA
ATOM     27  H   UNL     1       4.760  -4.419  -0.429  0.00  0.00    +0.150 HD
BRANCH  24  28
ATOM     28  C   UNL     1       4.848  -2.465  -1.256  0.00  0.00    +0.207 C 
BRANCH  28  32
ATOM     29  C   UNL     1       3.226  -4.069  -4.868  0.00  0.00    +0.000 A 
ATOM     30  C   UNL     1       2.959  -2.760  -4.511  0.00  0.00    +0.000 A 
ATOM     31  C   UNL     1       3.484  -2.242  -3.343  0.00  0.00    +0.006 A 
ATOM     32  C   UNL     1       4.276  -3.031  -2.530  0.00  0.00    -0.013 A 
ATOM     33  C   UNL     1       4.542  -4.340  -2.886  0.00  0.00    +0.006 A 
ATOM     34  C   UNL     1       4.019  -4.859  -4.056  0.00  0.00    +0.000 A 
ENDBRANCH  28  32
BRANCH  28  35
ATOM     35  C   UNL     1       6.252  -2.081  -1.478  0.00  0.00    +0.090 C 
ATOM     36  N   UNL     1       7.335  -1.784  -1.649  0.00  0.00    -0.194 NA
ENDBRANCH  28  35
ENDBRANCH  24  28
ENDBRANCH   1  25
TORSDOF 5
