REMARK  Name = ZINC14160980
REMARK  9 active torsions:
REMARK  status: ('A' for Active; 'I' for Inactive)
REMARK    1  A    between atoms: C_1  and  C_2
REMARK    2  A    between atoms: C_6  and  N_9
REMARK    3  A    between atoms: C_7  and  C_8
REMARK    4  A    between atoms: N_9  and  C_10
REMARK    5  A    between atoms: C_10  and  N_12
REMARK    6  A    between atoms: C_17  and  C_22
REMARK    7  A    between atoms: C_19  and  C_21
REMARK    8  A    between atoms: N_26  and  C_29
REMARK    9  A    between atoms: C_29  and  C_30
REMARK                            x       y       z     vdW  Elec       q    Type
REMARK                         _______ _______ _______ _____ _____    ______ ____
ROOT
ATOM      1  N   UNL     1       0.103  -4.666   3.676  0.00  0.00    -0.163 NA
ATOM      2  C   UNL     1       0.044  -5.986   3.709  0.00  0.00    +0.180 C 
ATOM      3  N   UNL     1      -0.054  -6.637   4.909  0.00  0.00    -0.258 N 
ATOM      4  C   UNL     1      -0.064  -8.025   4.947  0.00  0.00    +0.222 A 
ATOM      5  N   UNL     1       0.119  -8.704   3.825  0.00  0.00    -0.219 NA
ATOM      6  C   UNL     1       0.115 -10.026   3.826  0.00  0.00    +0.044 A 
ATOM      7  C   UNL     1      -0.083 -10.701   5.021  0.00  0.00    +0.046 A 
ATOM      8  C   UNL     1      -0.271  -9.959   6.177  0.00  0.00    +0.044 A 
ATOM      9  N   UNL     1      -0.250  -8.638   6.106  0.00  0.00    -0.219 NA
ATOM     10  C   UNL     1      -0.490 -10.649   7.498  0.00  0.00    +0.066 C 
ATOM     11  C   UNL     1       0.323 -10.791   2.544  0.00  0.00    +0.066 C 
ATOM     12  N   UNL     1       0.081  -6.700   2.546  0.00  0.00    -0.302 N 
ATOM     13  C   UNL     1       1.362  -7.104   1.949  0.00  0.00    +0.123 C 
ATOM     14  C   UNL     1       1.369  -6.678   0.477  0.00  0.00    +0.103 C 
ATOM     15  N   UNL     1       0.176  -7.216  -0.190  0.00  0.00    -0.295 NA
ATOM     16  C   UNL     1      -1.054  -6.660   0.389  0.00  0.00    +0.103 C 
ATOM     17  C   UNL     1      -1.161  -7.090   1.861  0.00  0.00    +0.123 C 
ATOM     18  H   UNL     1      -0.117  -6.129   5.733  0.00  0.00    +0.157 HD
ENDROOT
BRANCH   1  19
ATOM     19  C   UNL     1       0.020  -4.020   2.505  0.00  0.00    +0.161 C 
ATOM     20  S   UNL     1      -1.443  -4.043   1.616  0.00  0.00    -0.016 S 
BRANCH  19  21
ATOM     21  N   UNL     1       1.089  -3.352   2.026  0.00  0.00    -0.295 N 
ATOM     22  H   UNL     1       1.939  -3.402   2.489  0.00  0.00    +0.154 HD
BRANCH  21  28
ATOM     23  C   UNL     1       2.926  -1.932  -2.307  0.00  0.00    +0.044 C 
ATOM     24  C   UNL     1       1.847  -1.880  -1.256  0.00  0.00    -0.046 A 
ATOM     25  C   UNL     1       0.738  -1.075  -1.444  0.00  0.00    +0.004 A 
ATOM     26  C   UNL     1      -0.254  -1.024  -0.483  0.00  0.00    +0.002 A 
ATOM     27  C   UNL     1      -0.141  -1.778   0.669  0.00  0.00    +0.023 A 
ATOM     28  C   UNL     1       0.971  -2.588   0.861  0.00  0.00    +0.036 A 
ATOM     29  C   UNL     1       1.963  -2.641  -0.110  0.00  0.00    -0.026 A 
ATOM     30  C   UNL     1       3.169  -3.522   0.091  0.00  0.00    +0.046 C 
ENDBRANCH  21  28
ENDBRANCH  19  21
ENDBRANCH   1  19
BRANCH  15  31
ATOM     31  C   UNL     1       0.230  -6.976  -1.639  0.00  0.00    +0.119 C 
BRANCH  31  32
ATOM     32  C   UNL     1      -0.874  -7.746  -2.317  0.00  0.00    -0.030 A 
ATOM     33  C   UNL     1      -0.648  -9.040  -2.750  0.00  0.00    +0.009 A 
ATOM     34  C   UNL     1      -1.658  -9.750  -3.372  0.00  0.00    +0.050 A 
ATOM     35  C   UNL     1      -2.900  -9.166  -3.563  0.00  0.00    +0.166 A 
ATOM     36  C   UNL     1      -3.127  -7.864  -3.127  0.00  0.00    +0.167 A 
ATOM     37  C   UNL     1      -2.112  -7.160  -2.499  0.00  0.00    +0.054 A 
ATOM     38  O   UNL     1      -4.414  -7.521  -3.429  0.00  0.00    -0.453 OA
ATOM     39  C   UNL     1      -4.844  -8.477  -4.416  0.00  0.00    +0.466 C 
ATOM     40  O   UNL     1      -4.043  -9.640  -4.138  0.00  0.00    -0.453 OA
ENDBRANCH  31  32
ENDBRANCH  15  31
TORSDOF 5
