REMARK  Name = ZINC67387756
REMARK  5 active torsions:
REMARK  status: ('A' for Active; 'I' for Inactive)
REMARK    1  A    between atoms: C_1  and  C_2
REMARK    2  A    between atoms: C_3  and  C_13
REMARK    3  A    between atoms: C_5  and  C_7
REMARK    4  A    between atoms: C_13  and  N_14
REMARK    5  A    between atoms: N_17  and  C_18
REMARK                            x       y       z     vdW  Elec       q    Type
REMARK                         _______ _______ _______ _____ _____    ______ ____
ROOT
ATOM      1  N   UNL     1       1.367   0.042  -3.054  0.00  0.00    -0.295 N 
ATOM      2  C   UNL     1       1.600   0.510  -4.296  0.00  0.00    +0.300 C 
ATOM      3  O   UNL     1       0.668   0.775  -5.030  0.00  0.00    -0.253 OA
ATOM      4  N   UNL     1       2.866   0.686  -4.723  0.00  0.00    -0.293 N 
ATOM      5  H   UNL     1       2.110  -0.170  -2.468  0.00  0.00    +0.151 HD
ATOM      6  H   UNL     1       3.609   0.475  -4.137  0.00  0.00    +0.151 HD
ENDROOT
BRANCH   4   7
ATOM      7  C   UNL     1       3.119   1.196  -6.073  0.00  0.00    +0.106 C 
ATOM      8  C   UNL     1       4.494   0.722  -6.540  0.00  0.00    +0.027 C 
ATOM      9  C   UNL     1       4.833   1.447  -7.848  0.00  0.00    +0.008 C 
ATOM     10  C   UNL     1       5.070   2.922  -7.528  0.00  0.00    +0.054 C 
ATOM     11  C   UNL     1       3.929   3.482  -6.718  0.00  0.00    +0.024 A 
ATOM     12  C   UNL     1       3.053   2.700  -6.056  0.00  0.00    -0.008 A 
ATOM     13  C   UNL     1       2.018   3.294  -5.306  0.00  0.00    +0.012 A 
ATOM     14  C   UNL     1       1.905   4.650  -5.258  0.00  0.00    +0.070 A 
ATOM     15  C   UNL     1       2.832   5.435  -5.966  0.00  0.00    +0.249 A 
ATOM     16  O   UNL     1       2.748   6.652  -5.940  0.00  0.00    -0.268 OA
ATOM     17  N   UNL     1       3.806   4.842  -6.670  0.00  0.00    -0.326 N 
ATOM     18  H   UNL     1       4.440   5.391  -7.157  0.00  0.00    +0.169 HD
ENDBRANCH   4   7
BRANCH   1  19
ATOM     19  C   UNL     1      -0.010  -0.149  -2.589  0.00  0.00    +0.150 C 
BRANCH  19  22
ATOM     20  C   UNL     1      -0.018   1.503   0.010  0.00  0.00    +0.066 C 
ATOM     21  C   UNL     1       0.002  -0.004   0.002  0.00  0.00    +0.051 A 
ATOM     22  C   UNL     1       0.005  -0.679  -1.179  0.00  0.00    +0.030 A 
ATOM     23  S   UNL     1       0.031  -2.368  -0.593  0.00  0.00    -0.070 S 
ATOM     24  C   UNL     1       0.035  -1.993   1.155  0.00  0.00    +0.109 A 
ATOM     25  N   UNL     1       0.022  -0.667   1.134  0.00  0.00    -0.244 NA
BRANCH  24  26
ATOM     26  C   UNL     1       0.053  -2.913   2.313  0.00  0.00    +0.007 A 
ATOM     27  C   UNL     1       0.076  -4.293   2.110  0.00  0.00    +0.010 A 
ATOM     28  C   UNL     1       0.092  -5.146   3.194  0.00  0.00    +0.001 A 
ATOM     29  C   UNL     1       0.086  -4.636   4.480  0.00  0.00    +0.000 A 
ATOM     30  C   UNL     1       0.063  -3.268   4.688  0.00  0.00    +0.001 A 
ATOM     31  C   UNL     1       0.053  -2.404   3.612  0.00  0.00    +0.010 A 
ENDBRANCH  24  26
ENDBRANCH  19  22
ENDBRANCH   1  19
TORSDOF 4
