REMARK  Name = ZINC35657526
REMARK  5 active torsions:
REMARK  status: ('A' for Active; 'I' for Inactive)
REMARK    1  A    between atoms: C_1  and  C_2
REMARK    2  A    between atoms: C_5  and  C_7
REMARK    3  A    between atoms: C_5  and  O_11
REMARK    4  A    between atoms: C_12  and  C_14
REMARK    5  A    between atoms: C_23  and  N_26
REMARK                            x       y       z     vdW  Elec       q    Type
REMARK                         _______ _______ _______ _____ _____    ______ ____
ROOT
ATOM      1  C   UNL     1       0.026  -2.703  -3.190  0.00  0.00    +0.052 C 
ATOM      2  C   UNL     1      -1.236  -1.897  -3.505  0.00  0.00    +0.020 C 
ATOM      3  C   UNL     1      -1.247  -1.526  -4.989  0.00  0.00    -0.007 C 
ATOM      4  C   UNL     1      -0.011  -0.686  -5.314  0.00  0.00    +0.007 C 
ATOM      5  C   UNL     1       1.251  -1.492  -4.999  0.00  0.00    -0.007 C 
ATOM      6  C   UNL     1       1.263  -1.863  -3.515  0.00  0.00    +0.020 C 
ATOM      7  C   UNL     1       1.265  -2.768  -5.844  0.00  0.00    +0.034 C 
ATOM      8  C   UNL     1       0.029  -3.608  -5.519  0.00  0.00    +0.067 C 
ATOM      9  C   UNL     1      -1.233  -2.802  -5.833  0.00  0.00    +0.034 C 
ATOM     10  C   UNL     1       0.040  -3.979  -4.035  0.00  0.00    +0.046 C 
ENDROOT
BRANCH   1  17
ATOM     11  C   UNL     1      -0.018   1.503   0.010  0.00  0.00    +0.062 C 
ATOM     12  C   UNL     1       0.002  -0.004   0.002  0.00  0.00    +0.039 C 
ATOM     13  N   UNL     1       0.008  -0.729  -1.041  0.00  0.00    -0.184 NA
ATOM     14  N   UNL     1       0.028  -2.099  -0.791  0.00  0.00    -0.152 N 
ATOM     15  C   UNL     1       0.038  -2.314   0.665  0.00  0.00    +0.256 C 
ATOM     16  C   UNL     1       0.026  -0.880   1.234  0.00  0.00    +0.118 C 
ATOM     17  C   UNL     1       0.037  -3.068  -1.728  0.00  0.00    +0.244 C 
ATOM     18  O   UNL     1       0.055  -4.234  -1.394  0.00  0.00    -0.273 OA
BRANCH  15  19
ATOM     19  C   UNL     1      -1.208  -3.085   1.106  0.00  0.00    +0.438 C 
ATOM     20  F   UNL     1      -1.238  -4.328   0.466  0.00  0.00    -0.166 F 
ATOM     21  F   UNL     1      -1.174  -3.275   2.492  0.00  0.00    -0.166 F 
ATOM     22  F   UNL     1      -2.353  -2.357   0.763  0.00  0.00    -0.166 F 
ENDBRANCH  15  19
BRANCH  15  23
ATOM     23  O   UNL     1       1.225  -3.001   1.066  0.00  0.00    -0.363 OA
ATOM     24  H   UNL     1       1.281  -3.167   2.017  0.00  0.00    +0.212 HD
ENDBRANCH  15  23
ENDBRANCH   1  17
BRANCH   8  25
ATOM     25  N   UNL     1       0.043  -4.830  -6.327  0.00  0.00    -0.244 N 
ATOM     26  C   UNL     1      -0.235  -4.930  -7.639  0.00  0.00    +0.221 A 
ATOM     27  N   UNL     1      -0.112  -6.186  -7.985  0.00  0.00    -0.205 NA
ATOM     28  C   UNL     1       0.242  -6.914  -6.926  0.00  0.00    +0.242 A 
ATOM     29  N   UNL     1       0.354  -6.127  -5.888  0.00  0.00    -0.137 NA
ATOM     30 CL   UNL     1       0.516  -8.629  -6.926  0.00  0.00    -0.040 Cl
ENDBRANCH   8  25
TORSDOF 4
