REMARK  Name = ZINC09328556
REMARK  12 active torsions:
REMARK  status: ('A' for Active; 'I' for Inactive)
REMARK    1  A    between atoms: C_1  and  N_63
REMARK    2  A    between atoms: C_2  and  N_63
REMARK    3  A    between atoms: C_3  and  C_4
REMARK    4  A    between atoms: C_3  and  N_63
REMARK    5  A    between atoms: C_4  and  N_5
REMARK    6  A    between atoms: C_6  and  C_29
REMARK    7  A    between atoms: C_9  and  C_10
REMARK    8  A    between atoms: C_9  and  O_24
REMARK    9  A    between atoms: C_13  and  O_16
REMARK   10  A    between atoms: O_16  and  C_17
REMARK   11  A    between atoms: C_17  and  C_18
REMARK   12  A    between atoms: C_32  and  O_35
REMARK                            x       y       z     vdW  Elec       q    Type
REMARK                         _______ _______ _______ _____ _____    ______ ____
ROOT
ATOM      1  N   UNL     1       1.277  -0.372   0.754  0.00  0.00    -0.285 N 
ATOM      2  C   UNL     1       2.159   0.722   0.336  0.00  0.00    +0.144 C 
ATOM      3  C   UNL     1       1.319   1.978   0.333  0.00  0.00    +0.071 C 
ATOM      4  C   UNL     1       1.734   3.254   0.003  0.00  0.00    +0.133 C 
ATOM      5  C   UNL     1       0.032   1.588   0.733  0.00  0.00    +0.249 C 
ATOM      6  O   UNL     1      -0.933   2.322   0.849  0.00  0.00    -0.282 OA
ATOM      7  C   UNL     1       0.049   0.122   0.985  0.00  0.00    +0.288 C 
ATOM      8  O   UNL     1      -0.908  -0.533   1.345  0.00  0.00    -0.266 OA
ENDROOT
BRANCH   4   9
ATOM      9  C   UNL     1       0.753   4.345  -0.093  0.00  0.00    +0.017 A 
ATOM     10  C   UNL     1      -0.397   4.189  -0.876  0.00  0.00    +0.015 A 
ATOM     11  C   UNL     1      -1.315   5.211  -0.958  0.00  0.00    +0.046 A 
ATOM     12  C   UNL     1      -1.096   6.402  -0.274  0.00  0.00    +0.121 A 
ATOM     13  C   UNL     1       0.048   6.564   0.500  0.00  0.00    +0.046 A 
ATOM     14  C   UNL     1       0.969   5.546   0.593  0.00  0.00    +0.015 A 
BRANCH  12  15
ATOM     15  O   UNL     1      -2.001   7.409  -0.362  0.00  0.00    -0.487 OA
BRANCH  15  16
ATOM     16  C   UNL     1      -3.154   7.176  -1.174  0.00  0.00    +0.264 C 
BRANCH  16  17
ATOM     17  C   UNL     1      -4.039   8.395  -1.152  0.00  0.00    -0.010 A 
ATOM     18  C   UNL     1      -5.029   8.513  -0.195  0.00  0.00    +0.007 A 
ATOM     19  C   UNL     1      -5.838   9.634  -0.171  0.00  0.00    +0.000 A 
ATOM     20  C   UNL     1      -5.663  10.632  -1.112  0.00  0.00    +0.000 A 
ATOM     21  C   UNL     1      -4.676  10.511  -2.072  0.00  0.00    +0.000 A 
ATOM     22  C   UNL     1      -3.864   9.393  -2.092  0.00  0.00    +0.007 A 
ENDBRANCH  16  17
ENDBRANCH  15  16
ENDBRANCH  12  15
ENDBRANCH   4   9
BRANCH   2  23
ATOM     23  C   UNL     1       2.692   0.454  -1.049  0.00  0.00    -0.022 A 
ATOM     24  C   UNL     1       1.865  -0.091  -2.013  0.00  0.00    +0.009 A 
ATOM     25  C   UNL     1       2.349  -0.332  -3.284  0.00  0.00    +0.046 A 
ATOM     26  C   UNL     1       3.670  -0.037  -3.589  0.00  0.00    +0.117 A 
ATOM     27  C   UNL     1       4.499   0.505  -2.618  0.00  0.00    +0.046 A 
ATOM     28  C   UNL     1       4.008   0.750  -1.350  0.00  0.00    +0.009 A 
BRANCH  26  29
ATOM     29  O   UNL     1       4.151  -0.279  -4.837  0.00  0.00    -0.507 OA
ATOM     30  H   UNL     1       4.529  -1.162  -4.949  0.00  0.00    +0.292 HD
ENDBRANCH  26  29
ENDBRANCH   2  23
BRANCH   4  31
ATOM     31  O   UNL     1       3.041   3.498  -0.232  0.00  0.00    -0.506 OA
ATOM     32  H   UNL     1       3.164   4.465  -0.456  0.00  0.00    +0.292 HD
ENDBRANCH   4  31
BRANCH   1  33
ATOM     33  C   UNL     1       1.671  -1.775   0.897  0.00  0.00    +0.090 C 
BRANCH  33  34
ATOM     34  C   UNL     1       1.454  -2.504  -0.430  0.00  0.00    -0.060 C 
BRANCH  34  37
ATOM     35  C   UNL     1       1.436  -4.697  -1.458  0.00  0.00    -0.097 C 
ATOM     36  C   UNL     1       3.294  -4.032  -0.055  0.00  0.00    -0.097 C 
ATOM     37  N   UNL     1       1.835  -3.923  -0.263  0.00  0.00    +0.377 N 
ATOM     38  H   UNL     1       1.351  -4.304   0.558  0.00  0.00    -0.083 HD
ENDBRANCH  34  37
ENDBRANCH  33  34
ENDBRANCH   1  33
TORSDOF 10
