REMARK  Name = ZINC63497996
REMARK  6 active torsions:
REMARK  status: ('A' for Active; 'I' for Inactive)
REMARK    1  A    between atoms: C_1  and  C_2
REMARK    2  A    between atoms: C_3  and  N_23
REMARK    3  A    between atoms: C_5  and  C_7
REMARK    4  A    between atoms: C_16  and  S_18
REMARK    5  A    between atoms: S_18  and  N_21
REMARK    6  A    between atoms: N_21  and  C_22
REMARK                            x       y       z     vdW  Elec       q    Type
REMARK                         _______ _______ _______ _____ _____    ______ ____
ROOT
ATOM      1  C   UNL     1       1.076  -3.942  -0.025  0.00  0.00    +0.258 C 
ATOM      2  O   UNL     1       0.342  -4.913  -0.026  0.00  0.00    -0.269 OA
ATOM      3  N   UNL     1       2.413  -4.108  -0.032  0.00  0.00    -0.266 N 
ATOM      4  C   UNL     1       3.394  -3.019  -0.025  0.00  0.00    +0.119 C 
ATOM      5  C   UNL     1       4.766  -3.713  -0.038  0.00  0.00    +0.056 C 
ATOM      6  C   UNL     1       4.445  -5.191  -0.052  0.00  0.00    -0.023 A 
ATOM      7  C   UNL     1       3.067  -5.343  -0.042  0.00  0.00    +0.040 A 
ATOM      8  C   UNL     1       2.527  -6.630  -0.046  0.00  0.00    +0.026 A 
ATOM      9  C   UNL     1       3.356  -7.732  -0.055  0.00  0.00    +0.030 A 
ATOM     10  C   UNL     1       4.729  -7.569  -0.061  0.00  0.00    +0.106 A 
ATOM     11  C   UNL     1       5.271  -6.298  -0.066  0.00  0.00    +0.034 A 
ENDROOT
BRANCH   1  16
ATOM     12  C   UNL     1      -0.018   1.503   0.010  0.00  0.00    +0.054 C 
ATOM     13  C   UNL     1       0.002  -0.004   0.002  0.00  0.00    +0.018 A 
ATOM     14  C   UNL     1      -1.056  -0.852   0.002  0.00  0.00    +0.137 A 
ATOM     15  C   UNL     1      -0.827  -2.207  -0.007  0.00  0.00    +0.053 A 
ATOM     16  C   UNL     1       0.505  -2.592  -0.015  0.00  0.00    +0.077 A 
ATOM     17  S   UNL     1       1.341  -1.018  -0.017  0.00  0.00    -0.087 S 
BRANCH  14  18
ATOM     18  N   UNL     1      -2.440  -0.324   0.012  0.00  0.00    +0.057 N 
ATOM     19  O   UNL     1      -3.377  -1.088   0.012  0.00  0.00    -0.126 OA
ATOM     20  O   UNL     1      -2.632   0.869   0.020  0.00  0.00    -0.126 OA
ENDBRANCH  14  18
ENDBRANCH   1  16
BRANCH  10  21
ATOM     21  S   UNL     1       5.785  -8.980  -0.074  0.00  0.00    +0.058 S 
ATOM     22  O   UNL     1       7.028  -8.562   0.472  0.00  0.00    -0.153 OA
ATOM     23  O   UNL     1       5.034 -10.054   0.475  0.00  0.00    -0.153 OA
BRANCH  21  24
ATOM     24  N   UNL     1       6.070  -9.364  -1.660  0.00  0.00    -0.193 NA
ATOM     25  C   UNL     1       6.809  -8.434  -2.517  0.00  0.00    +0.127 C 
ATOM     26  H   UNL     1       5.748 -10.204  -2.021  0.00  0.00    +0.148 HD
ENDBRANCH  21  24
ENDBRANCH  10  21
TORSDOF 4
