REMARK  Name = ZINC65374437
REMARK  2 active torsions:
REMARK  status: ('A' for Active; 'I' for Inactive)
REMARK    1  A    between atoms: C_3  and  C_6
REMARK    2  A    between atoms: C_16  and  C_18
REMARK                            x       y       z     vdW  Elec       q    Type
REMARK                         _______ _______ _______ _____ _____    ______ ____
ROOT
ATOM      1  C   UNL     1       3.575   0.619  -0.029  0.00  0.00    +0.133 A 
ATOM      2  C   UNL     1       4.382  -0.333   0.602  0.00  0.00    +0.027 A 
ATOM      3  C   UNL     1       5.686  -0.018   0.342  0.00  0.00    +0.124 A 
ATOM      4  N   UNL     1       5.699   1.097  -0.414  0.00  0.00    -0.263 N 
ATOM      5  H   UNL     1       6.489   1.553  -0.745  0.00  0.00    +0.190 HD
ATOM      6  N   UNL     1       4.368   1.478  -0.646  0.00  0.00    -0.169 NA
ATOM      7  N   UNL     1       6.741  -0.797   0.820  0.00  0.00    -0.270 N 
ATOM      8  C   UNL     1       6.448  -1.989   1.380  0.00  0.00    +0.219 C 
ATOM      9  O   UNL     1       7.322  -2.593   1.966  0.00  0.00    -0.275 OA
ATOM     10  C   UNL     1       5.074  -2.593   1.301  0.00  0.00    +0.104 C 
ATOM     11  C   UNL     1       3.989  -1.521   1.443  0.00  0.00    +0.036 C 
ATOM     12  H   UNL     1       7.659  -0.490   0.750  0.00  0.00    +0.156 HD
ENDROOT
BRANCH   1  15
ATOM     13  C   UNL     1      -0.016   1.343   0.009  0.00  0.00    +0.042 A 
ATOM     14  C   UNL     1       1.326   1.774  -0.001  0.00  0.00    +0.051 A 
ATOM     15  C   UNL     1       2.097   0.654  -0.014  0.00  0.00    +0.155 A 
ATOM     16  O   UNL     1       1.280  -0.417  -0.012  0.00  0.00    -0.461 OA
ATOM     17  C   UNL     1       0.002  -0.004   0.002  0.00  0.00    +0.196 A 
ENDBRANCH   1  15
BRANCH  11  18
ATOM     18  C   UNL     1       3.870  -1.098   2.909  0.00  0.00    -0.003 C 
ATOM     19  C   UNL     1       3.399  -2.290   3.767  0.00  0.00    +0.004 C 
ATOM     20  C   UNL     1       2.455  -1.654   4.817  0.00  0.00    +0.000 C 
ATOM     21  C   UNL     1       1.717  -0.566   3.998  0.00  0.00    +0.000 C 
ATOM     22  C   UNL     1       2.801  -0.001   3.056  0.00  0.00    +0.004 C 
ENDBRANCH  11  18
TORSDOF 2
