REMARK  Name = ZINC32117038
REMARK  3 active torsions:
REMARK  status: ('A' for Active; 'I' for Inactive)
REMARK    1  A    between atoms: C_4  and  C_7
REMARK    2  A    between atoms: C_14  and  C_15
REMARK    3  A    between atoms: C_20  and  O_21
REMARK                            x       y       z     vdW  Elec       q    Type
REMARK                         _______ _______ _______ _____ _____    ______ ____
ROOT
ATOM      1  C   UNL     1       3.688  -0.685  -0.048  0.00  0.00    +0.062 C 
ATOM      2  C   UNL     1       4.815   0.030  -0.061  0.00  0.00    +0.074 C 
ATOM      3  S   UNL     1       6.377  -0.785  -0.087  0.00  0.00    -0.056 S 
ATOM      4  C   UNL     1       5.974  -2.438  -0.545  0.00  0.00    +0.187 C 
ATOM      5  N   UNL     1       4.751  -2.865  -0.480  0.00  0.00    -0.157 NA
ATOM      6  N   UNL     1       3.685  -2.086  -0.046  0.00  0.00    -0.234 N 
ATOM      7  N   UNL     1       6.950  -3.270  -0.971  0.00  0.00    -0.339 N 
ATOM      8  C   UNL     1       6.659  -4.499  -1.313  0.00  0.00    +0.096 C 
ATOM      9  H   UNL     1       2.889  -2.538   0.275  0.00  0.00    +0.174 HD
ATOM     10  H   UNL     1       7.866  -2.956  -1.022  0.00  0.00    +0.167 HD
ENDROOT
BRANCH   8  11
ATOM     11  C   UNL     1       7.697  -5.369  -1.879  0.00  0.00    +0.033 A 
ATOM     12  C   UNL     1       7.366  -6.643  -2.354  0.00  0.00    +0.029 A 
ATOM     13  C   UNL     1       8.347  -7.454  -2.885  0.00  0.00    +0.033 A 
ATOM     14  C   UNL     1       9.660  -7.012  -2.950  0.00  0.00    +0.035 A 
ATOM     15  C   UNL     1      10.000  -5.755  -2.484  0.00  0.00    +0.062 A 
ATOM     16  C   UNL     1       9.028  -4.925  -1.952  0.00  0.00    +0.126 A 
ATOM     17 BR   UNL     1      10.994  -8.136  -3.680  0.00  0.00    -0.049 Br
ATOM     18 BR   UNL     1       7.899  -9.176  -3.526  0.00  0.00    -0.049 Br
BRANCH  16  19
ATOM     19  O   UNL     1       9.360  -3.689  -1.500  0.00  0.00    -0.506 OA
ATOM     20  H   UNL     1       9.613  -3.667  -0.566  0.00  0.00    +0.292 HD
ENDBRANCH  16  19
ENDBRANCH   8  11
BRANCH   1  24
ATOM     21  C   UNL     1      -0.031   1.365   0.004  0.00  0.00    +0.000 A 
ATOM     22  C   UNL     1       1.151   2.084  -0.014  0.00  0.00    +0.001 A 
ATOM     23  C   UNL     1       2.363   1.425  -0.031  0.00  0.00    +0.010 A 
ATOM     24  C   UNL     1       2.394   0.028  -0.029  0.00  0.00    -0.002 A 
ATOM     25  C   UNL     1       1.197  -0.691  -0.010  0.00  0.00    +0.010 A 
ATOM     26  C   UNL     1      -0.007  -0.019   0.006  0.00  0.00    +0.001 A 
ENDBRANCH   1  24
TORSDOF 3
