REMARK  Name = ZINC39561546
REMARK  12 active torsions:
REMARK  status: ('A' for Active; 'I' for Inactive)
REMARK    1  A    between atoms: C_1  and  C_2
REMARK    2  A    between atoms: C_2  and  O_3
REMARK    3  A    between atoms: O_3  and  C_4
REMARK    4  A    between atoms: C_4  and  C_6
REMARK    5  A    between atoms: C_7  and  C_32
REMARK    6  A    between atoms: C_8  and  C_13
REMARK    7  A    between atoms: C_11  and  C_12
REMARK    8  A    between atoms: C_13  and  O_15
REMARK    9  A    between atoms: O_15  and  C_16
REMARK   10  A    between atoms: C_16  and  C_17
REMARK   11  A    between atoms: C_19  and  O_20
REMARK   12  A    between atoms: C_29  and  C_31
REMARK                            x       y       z     vdW  Elec       q    Type
REMARK                         _______ _______ _______ _____ _____    ______ ____
ROOT
ATOM      1  C   UNL     1       5.098  -4.617  -6.247  0.00  0.00    +0.269 C 
ENDROOT
BRANCH   1   2
ATOM      2  C   UNL     1       5.376  -4.958  -7.689  0.00  0.00    +0.007 A 
ATOM      3  C   UNL     1       5.179  -4.023  -8.685  0.00  0.00    +0.095 A 
ATOM      4  C   UNL     1       5.440  -4.355 -10.007  0.00  0.00    +0.285 A 
ATOM      5  O   UNL     1       5.883  -5.570 -10.345  0.00  0.00    -0.425 OA
ATOM      6  C   UNL     1       6.092  -6.521  -9.411  0.00  0.00    +0.141 A 
ATOM      7  C   UNL     1       5.848  -6.237  -8.049  0.00  0.00    +0.024 A 
ATOM      8  C   UNL     1       6.070  -7.224  -7.073  0.00  0.00    +0.014 A 
ATOM      9  C   UNL     1       6.525  -8.451  -7.439  0.00  0.00    +0.024 A 
ATOM     10  C   UNL     1       6.776  -8.741  -8.792  0.00  0.00    +0.037 A 
ATOM     11  C   UNL     1       6.550  -7.776  -9.774  0.00  0.00    +0.070 A 
ATOM     12  N   UNL     1       7.232  -9.974  -9.147  0.00  0.00    -0.286 N 
ATOM     13  C   UNL     1       7.762 -10.163 -10.340  0.00  0.00    +0.214 C 
ATOM     14  O   UNL     1       7.956  -9.213 -11.077  0.00  0.00    -0.276 OA
ATOM     15  C   UNL     1       8.127 -11.554 -10.790  0.00  0.00    +0.109 C 
ATOM     16  H   UNL     1       7.167 -10.713  -8.523  0.00  0.00    +0.155 HD
BRANCH   4  17
ATOM     17  O   UNL     1       5.243  -3.433 -10.969  0.00  0.00    -0.480 OA
ATOM     18  H   UNL     1       5.449  -3.746 -11.861  0.00  0.00    +0.295 HD
ENDBRANCH   4  17
ENDBRANCH   1   2
BRANCH   1  19
ATOM     19  O   UNL     1       3.755  -4.147  -6.119  0.00  0.00    -0.455 OA
BRANCH  19  20
ATOM     20  C   UNL     1       3.344  -3.797  -4.883  0.00  0.00    +0.356 C 
ATOM     21  O   UNL     1       4.106  -3.889  -3.940  0.00  0.00    -0.243 OA
BRANCH  20  24
ATOM     22  C   UNL     1       0.108  -2.522  -3.740  0.00  0.00    +0.083 A 
ATOM     23  C   UNL     1       1.439  -2.921  -3.483  0.00  0.00    -0.005 A 
ATOM     24  C   UNL     1       1.978  -3.306  -4.676  0.00  0.00    +0.128 A 
ATOM     25  N   UNL     1       1.018  -3.154  -5.653  0.00  0.00    -0.352 N 
ATOM     26  H   UNL     1       1.137  -3.357  -6.594  0.00  0.00    +0.166 HD
ATOM     27  C   UNL     1      -0.111  -2.688  -5.096  0.00  0.00    +0.028 A 
ATOM     28  C   UNL     1      -1.397  -2.393  -5.824  0.00  0.00    +0.064 C 
ATOM     29  C   UNL     1       2.132  -2.921  -2.145  0.00  0.00    +0.047 C 
BRANCH  22  30
ATOM     30  C   UNL     1      -0.864  -2.028  -2.751  0.00  0.00    +0.341 C 
ATOM     31  O   UNL     1      -1.590  -2.810  -2.170  0.00  0.00    -0.245 OA
BRANCH  30  32
ATOM     32  O   UNL     1      -0.949  -0.708  -2.490  0.00  0.00    -0.461 OA
BRANCH  32  34
ATOM     33  C   UNL     1      -1.864   1.221  -1.359  0.00  0.00    +0.048 C 
ATOM     34  C   UNL     1      -1.914  -0.299  -1.519  0.00  0.00    +0.229 C 
ENDBRANCH  32  34
ENDBRANCH  30  32
ENDBRANCH  22  30
ENDBRANCH  20  24
ENDBRANCH  19  20
ENDBRANCH   1  19
TORSDOF 8
