REMARK  Name = ZINC60207707
REMARK  10 active torsions:
REMARK  status: ('A' for Active; 'I' for Inactive)
REMARK    1  A    between atoms: C_1  and  C_2
REMARK    2  A    between atoms: C_2  and  C_3
REMARK    3  A    between atoms: C_2  and  N_4
REMARK    4  A    between atoms: C_8  and  C_11
REMARK    5  A    between atoms: C_11  and  N_12
REMARK    6  A    between atoms: C_13  and  C_15
REMARK    7  A    between atoms: C_18  and  N_21
REMARK    8  A    between atoms: N_21  and  S_22
REMARK    9  A    between atoms: S_22  and  C_25
REMARK   10  A    between atoms: C_29  and  N_31
REMARK                            x       y       z     vdW  Elec       q    Type
REMARK                         _______ _______ _______ _____ _____    ______ ____
ROOT
ATOM      1  C   UNL     1      -5.708  -6.401   0.523  0.00  0.00    +0.037 A 
ATOM      2  C   UNL     1      -6.775  -5.511   0.683  0.00  0.00    +0.015 A 
ATOM      3  C   UNL     1      -8.049  -5.995   0.874  0.00  0.00    +0.027 A 
ATOM      4  C   UNL     1      -8.276  -7.368   0.908  0.00  0.00    +0.074 A 
ATOM      5  C   UNL     1      -7.216  -8.256   0.749  0.00  0.00    +0.027 A 
ATOM      6  C   UNL     1      -5.940  -7.779   0.552  0.00  0.00    +0.015 A 
ENDROOT
BRANCH   1   8
ATOM      7  N   UNL     1      -4.119  -4.557   0.290  0.00  0.00    -0.311 N 
ATOM      8  C   UNL     1      -4.341  -5.886   0.318  0.00  0.00    +0.244 C 
ATOM      9  O   UNL     1      -3.415  -6.660   0.174  0.00  0.00    -0.270 OA
ATOM     10  H   UNL     1      -4.857  -3.939   0.405  0.00  0.00    +0.149 HD
BRANCH   7  11
ATOM     11  C   UNL     1      -2.761  -4.045   0.086  0.00  0.00    +0.106 C 
BRANCH  11  16
ATOM     12  N   UNL     1      -1.376  -0.512   0.012  0.00  0.00    +0.381 N 
ATOM     13  C   UNL     1      -2.087  -0.018  -1.173  0.00  0.00    -0.078 C 
ATOM     14  C   UNL     1      -3.546  -0.478  -1.125  0.00  0.00    -0.018 C 
ATOM     15  C   UNL     1      -3.593  -2.009  -1.101  0.00  0.00    +0.001 C 
ATOM     16  C   UNL     1      -2.785  -2.515   0.097  0.00  0.00    -0.011 C 
ATOM     17  C   UNL     1      -1.355  -1.980   0.004  0.00  0.00    -0.074 C 
ATOM     18  H   UNL     1      -1.847  -0.189   0.844  0.00  0.00    -0.081 HD
BRANCH  12  20
ATOM     19  C   UNL     1      -0.019   1.526   0.010  0.00  0.00    -0.014 C 
ATOM     20  C   UNL     1       0.002  -0.004   0.002  0.00  0.00    -0.075 C 
ATOM     21  C   UNL     1       0.742  -0.511   1.242  0.00  0.00    -0.014 C 
ENDBRANCH  12  20
ENDBRANCH  11  16
ENDBRANCH   7  11
ENDBRANCH   1   8
BRANCH   4  22
ATOM     22  N   UNL     1      -9.565  -7.853   1.101  0.00  0.00    -0.098 NA
BRANCH  22  23
ATOM     23  S   UNL     1      -9.837  -9.486   1.142  0.00  0.00    +0.092 S 
ATOM     24  O   UNL     1      -9.551  -9.978  -0.160  0.00  0.00    -0.148 OA
ATOM     25  O   UNL     1      -9.182  -9.978   2.303  0.00  0.00    -0.148 OA
BRANCH  23  26
ATOM     26  C   UNL     1     -11.564  -9.720   1.401  0.00  0.00    +0.113 A 
ATOM     27  C   UNL     1     -12.065  -9.806   2.687  0.00  0.00    +0.029 A 
ATOM     28  C   UNL     1     -13.419  -9.990   2.890  0.00  0.00    +0.004 A 
ATOM     29  C   UNL     1     -14.274 -10.087   1.808  0.00  0.00    +0.033 A 
ATOM     30  C   UNL     1     -13.774 -10.000   0.522  0.00  0.00    +0.128 A 
ATOM     31  C   UNL     1     -12.419  -9.812   0.319  0.00  0.00    +0.061 A 
BRANCH  30  32
ATOM     32  N   UNL     1     -14.688 -10.104  -0.637  0.00  0.00    +0.056 N 
ATOM     33  O   UNL     1     -15.873 -10.265  -0.459  0.00  0.00    -0.126 OA
ATOM     34  O   UNL     1     -14.251 -10.028  -1.761  0.00  0.00    -0.126 OA
ENDBRANCH  30  32
ENDBRANCH  23  26
ENDBRANCH  22  23
ENDBRANCH   4  22
TORSDOF 8
