REMARK  Name = ZINC45731191
REMARK  10 active torsions:
REMARK  status: ('A' for Active; 'I' for Inactive)
REMARK    1  A    between atoms: C_1  and  C_2
REMARK    2  A    between atoms: C_5  and  S_8
REMARK    3  A    between atoms: S_8  and  N_11
REMARK    4  A    between atoms: N_11  and  C_12
REMARK    5  A    between atoms: C_12  and  C_14
REMARK    6  A    between atoms: C_12  and  C_18
REMARK    7  A    between atoms: C_14  and  C_15
REMARK    8  A    between atoms: C_15  and  C_16
REMARK    9  A    between atoms: C_15  and  C_17
REMARK   10  A    between atoms: C_24  and  C_27
REMARK                            x       y       z     vdW  Elec       q    Type
REMARK                         _______ _______ _______ _____ _____    ______ ____
ROOT
ATOM      1  C   UNL     1       3.489  -6.001   1.086  0.00  0.00    +0.234 C 
ATOM      2  O   UNL     1       3.504  -6.989   0.384  0.00  0.00    -0.274 OA
ATOM      3  N   UNL     1       4.465  -5.803   1.994  0.00  0.00    -0.299 N 
ATOM      4  C   UNL     1       4.403  -4.668   2.925  0.00  0.00    +0.108 C 
ATOM      5  C   UNL     1       4.547  -5.195   4.356  0.00  0.00    +0.020 C 
ATOM      6  C   UNL     1       5.828  -6.027   4.462  0.00  0.00    +0.014 C 
ATOM      7  C   UNL     1       5.742  -7.224   3.513  0.00  0.00    +0.072 C 
ATOM      8  C   UNL     1       5.608  -6.723   2.076  0.00  0.00    +0.119 C 
ENDROOT
BRANCH   7   9
ATOM      9  C   UNL     1       6.989  -8.060   3.643  0.00  0.00    +0.113 A 
ATOM     10  N   UNL     1       8.234  -7.569   3.884  0.00  0.00    -0.342 N 
ATOM     11  H   UNL     1       8.472  -6.636   4.000  0.00  0.00    +0.167 HD
ATOM     12  C   UNL     1       9.098  -8.645   3.932  0.00  0.00    +0.066 A 
ATOM     13  C   UNL     1      10.463  -8.781   4.139  0.00  0.00    +0.028 A 
ATOM     14  C   UNL     1      11.035 -10.035   4.126  0.00  0.00    +0.002 A 
ATOM     15  C   UNL     1      10.255 -11.161   3.905  0.00  0.00    +0.002 A 
ATOM     16  C   UNL     1       8.909 -11.047   3.699  0.00  0.00    +0.030 A 
ATOM     17  C   UNL     1       8.308  -9.786   3.709  0.00  0.00    +0.089 A 
ATOM     18  N   UNL     1       7.030  -9.357   3.546  0.00  0.00    -0.232 NA
ENDBRANCH   7   9
BRANCH   1  19
ATOM     19  C   UNL     1       2.378  -4.992   0.943  0.00  0.00    +0.162 C 
BRANCH  19  20
ATOM     20  N   UNL     1       1.256  -5.600   0.222  0.00  0.00    -0.178 NA
ATOM     21  H   UNL     1       1.244  -5.596  -0.748  0.00  0.00    +0.149 HD
BRANCH  20  22
ATOM     22  S   UNL     1       0.010  -6.294   1.063  0.00  0.00    +0.059 S 
ATOM     23  O   UNL     1       0.600  -7.169   2.015  0.00  0.00    -0.153 OA
ATOM     24  O   UNL     1      -0.932  -6.742   0.098  0.00  0.00    -0.153 OA
BRANCH  22  29
ATOM     25  C   UNL     1      -2.690  -1.904   4.200  0.00  0.00    +0.044 C 
ATOM     26  C   UNL     1      -2.016  -3.001   3.417  0.00  0.00    -0.050 A 
ATOM     27  C   UNL     1      -2.413  -3.268   2.120  0.00  0.00    +0.005 A 
ATOM     28  C   UNL     1      -1.794  -4.274   1.401  0.00  0.00    +0.029 A 
ATOM     29  C   UNL     1      -0.778  -5.011   1.979  0.00  0.00    +0.105 A 
ATOM     30  C   UNL     1      -0.380  -4.743   3.276  0.00  0.00    +0.029 A 
ATOM     31  C   UNL     1      -0.996  -3.735   3.993  0.00  0.00    +0.005 A 
ENDBRANCH  22  29
ENDBRANCH  20  22
ENDBRANCH  19  20
BRANCH  19  32
ATOM     32  C   UNL     1       2.888  -3.779   0.162  0.00  0.00    +0.032 C 
BRANCH  32  33
ATOM     33  C   UNL     1       1.811  -2.692   0.149  0.00  0.00    -0.015 C 
ATOM     34  C   UNL     1       2.377  -1.422  -0.489  0.00  0.00    +0.007 C 
ATOM     35  C   UNL     1       0.607  -3.177  -0.662  0.00  0.00    +0.007 C 
ENDBRANCH  32  33
ENDBRANCH  19  32
ENDBRANCH   1  19
TORSDOF 7
