REMARK  Name = ZINC35650653
REMARK  7 active torsions:
REMARK  status: ('A' for Active; 'I' for Inactive)
REMARK    1  A    between atoms: C_1  and  C_2
REMARK    2  A    between atoms: C_2  and  C_4
REMARK    3  A    between atoms: C_2  and  O_22
REMARK    4  A    between atoms: C_9  and  O_10
REMARK    5  A    between atoms: O_10  and  C_11
REMARK    6  A    between atoms: C_18  and  C_20
REMARK    7  A    between atoms: C_18  and  C_21
REMARK                            x       y       z     vdW  Elec       q    Type
REMARK                         _______ _______ _______ _____ _____    ______ ____
ROOT
ATOM      1  O   UNL     1      -1.476  -0.350   2.384  0.00  0.00    -0.452 OA
ENDROOT
BRANCH   1   2
ATOM      2  C   UNL     1      -2.255  -0.553   3.480  0.00  0.00    +0.170 A 
ATOM      3  C   UNL     1      -3.518  -1.101   3.338  0.00  0.00    +0.050 A 
ATOM      4  C   UNL     1      -4.316  -1.310   4.447  0.00  0.00    +0.004 A 
ATOM      5  C   UNL     1      -3.850  -0.967   5.704  0.00  0.00    +0.007 A 
ATOM      6  C   UNL     1      -2.594  -0.420   5.850  0.00  0.00    +0.002 A 
ATOM      7  C   UNL     1      -1.776  -0.214   4.748  0.00  0.00    +0.167 A 
ATOM      8  O   UNL     1      -0.573   0.307   5.117  0.00  0.00    -0.482 OA
ATOM      9  C   UNL     1      -0.689   0.883   6.429  0.00  0.00    +0.109 C 
ATOM     10  C   UNL     1      -1.828   0.059   7.068  0.00  0.00    +0.086 C 
ATOM     11  C   UNL     1       0.615   0.717   7.212  0.00  0.00    +0.056 C 
ATOM     12  C   UNL     1      -1.086   2.358   6.341  0.00  0.00    +0.056 C 
ENDBRANCH   1   2
BRANCH   1  18
ATOM     13  C   UNL     1       0.305  -1.110   1.002  0.00  0.00    +0.023 A 
ATOM     14  C   UNL     1       1.216  -2.092   0.667  0.00  0.00    +0.010 A 
ATOM     15  C   UNL     1       1.242  -3.283   1.369  0.00  0.00    +0.001 A 
ATOM     16  C   UNL     1       0.354  -3.494   2.409  0.00  0.00    +0.004 A 
ATOM     17  C   UNL     1      -0.559  -2.515   2.748  0.00  0.00    +0.046 A 
ATOM     18  C   UNL     1      -0.583  -1.317   2.049  0.00  0.00    +0.134 A 
BRANCH  13  20
ATOM     19  C   UNL     1      -0.777   0.106  -0.869  0.00  0.00    +0.043 C 
ATOM     20  C   UNL     1       0.278   0.188   0.236  0.00  0.00    +0.145 C 
BRANCH  20  21
ATOM     21  O   UNL     1       1.561   0.423  -0.347  0.00  0.00    -0.387 OA
ATOM     22  H   UNL     1       1.617   1.243  -0.856  0.00  0.00    +0.210 HD
ENDBRANCH  20  21
ENDBRANCH  13  20
ENDBRANCH   1  18
TORSDOF 4
