REMARK  Name = ZINC24144408
REMARK  15 active torsions:
REMARK  status: ('A' for Active; 'I' for Inactive)
REMARK    1  A    between atoms: C_1  and  C_2
REMARK    2  A    between atoms: C_2  and  N_3
REMARK    3  A    between atoms: N_3  and  C_4
REMARK    4  A    between atoms: N_3  and  C_6
REMARK    5  A    between atoms: C_4  and  C_5
REMARK    6  A    between atoms: C_6  and  C_7
REMARK    7  A    between atoms: C_7  and  C_8
REMARK    8  A    between atoms: C_8  and  N_9
REMARK    9  A    between atoms: C_19  and  S_20
REMARK   10  A    between atoms: S_20  and  C_21
REMARK   11  A    between atoms: C_21  and  C_22
REMARK   12  A    between atoms: C_22  and  O_23
REMARK   13  A    between atoms: O_23  and  C_24
REMARK   14  A    between atoms: C_27  and  S_30
REMARK   15  A    between atoms: S_30  and  N_33
REMARK                            x       y       z     vdW  Elec       q    Type
REMARK                         _______ _______ _______ _____ _____    ______ ____
ROOT
ATOM      1  N   UNL     1       1.377  -2.780   0.380  0.00  0.00    -0.287 N 
ATOM      2  C   UNL     1       2.623  -2.353   0.691  0.00  0.00    +0.262 A 
ATOM      3  O   UNL     1       3.532  -3.141   0.875  0.00  0.00    -0.267 OA
ATOM      4  C   UNL     1       2.836  -0.903   0.797  0.00  0.00    +0.065 A 
ATOM      5  C   UNL     1       4.083  -0.364   1.112  0.00  0.00    +0.015 A 
ATOM      6  C   UNL     1       4.226   0.994   1.199  0.00  0.00    +0.001 A 
ATOM      7  C   UNL     1       3.146   1.837   0.976  0.00  0.00    +0.002 A 
ATOM      8  C   UNL     1       1.914   1.335   0.666  0.00  0.00    +0.028 A 
ATOM      9  C   UNL     1       1.734  -0.048   0.570  0.00  0.00    +0.079 A 
ATOM     10  N   UNL     1       0.536  -0.586   0.267  0.00  0.00    -0.223 NA
ATOM     11  C   UNL     1       0.368  -1.882   0.177  0.00  0.00    +0.172 A 
ENDROOT
BRANCH   1  12
ATOM     12  C   UNL     1       1.108  -4.215   0.262  0.00  0.00    +0.125 C 
BRANCH  12  13
ATOM     13  C   UNL     1       0.683  -4.769   1.623  0.00  0.00    +0.003 C 
BRANCH  13  14
ATOM     14  C   UNL     1       0.403  -6.268   1.500  0.00  0.00    -0.077 C 
BRANCH  14  15
ATOM     15  N   UNL     1      -0.005  -6.800   2.807  0.00  0.00    +0.379 N 
ATOM     16  H   UNL     1       0.752  -6.497   3.546  0.00  0.00    -0.082 HD
BRANCH  15  18
ATOM     17  C   UNL     1      -2.372  -6.615   2.207  0.00  0.00    -0.017 C 
ATOM     18  C   UNL     1      -1.295  -6.236   3.226  0.00  0.00    -0.082 C 
ENDBRANCH  15  18
BRANCH  15  19
ATOM     19  C   UNL     1      -0.054  -8.268   2.786  0.00  0.00    -0.082 C 
ATOM     20  C   UNL     1      -0.091  -8.797   4.221  0.00  0.00    -0.017 C 
ENDBRANCH  15  19
ENDBRANCH  14  15
ENDBRANCH  13  14
ENDBRANCH  12  13
ENDBRANCH   1  12
BRANCH  11  21
ATOM     21  S   UNL     1      -1.234  -2.495  -0.225  0.00  0.00    -0.084 S 
BRANCH  21  22
ATOM     22  C   UNL     1      -2.139  -0.935  -0.379  0.00  0.00    +0.118 C 
BRANCH  22  23
ATOM     23  C   UNL     1      -3.598  -1.225  -0.735  0.00  0.00    +0.240 C 
BRANCH  23  24
ATOM     24  O   UNL     1      -4.312   0.007  -0.856  0.00  0.00    -0.491 OA
BRANCH  24  25
ATOM     25  C   UNL     1      -5.632  -0.073  -1.170  0.00  0.00    +0.121 A 
ATOM     26  C   UNL     1      -6.226  -1.312  -1.364  0.00  0.00    +0.047 A 
ATOM     27  C   UNL     1      -7.569  -1.391  -1.678  0.00  0.00    +0.032 A 
ATOM     28  C   UNL     1      -8.318  -0.236  -1.811  0.00  0.00    +0.105 A 
ATOM     29  C   UNL     1      -7.727   1.000  -1.624  0.00  0.00    +0.032 A 
ATOM     30  C   UNL     1      -6.386   1.084  -1.304  0.00  0.00    +0.047 A 
BRANCH  28  31
ATOM     31  S   UNL     1     -10.029  -0.340  -2.219  0.00  0.00    +0.056 S 
ATOM     32  O   UNL     1     -10.468  -1.627  -1.806  0.00  0.00    -0.153 OA
ATOM     33  O   UNL     1     -10.632   0.858  -1.749  0.00  0.00    -0.153 OA
BRANCH  31  34
ATOM     34  N   UNL     1     -10.142  -0.310  -3.871  0.00  0.00    -0.204 NA
ATOM     35  H   UNL     1     -11.199  -0.373  -4.168  0.00  0.00    +0.144 HD
ATOM     36  H   UNL     1      -9.591  -1.164  -4.292  0.00  0.00    +0.144 HD
ENDBRANCH  31  34
ENDBRANCH  28  31
ENDBRANCH  24  25
ENDBRANCH  23  24
ENDBRANCH  22  23
ENDBRANCH  21  22
ENDBRANCH  11  21
TORSDOF 13
