REMARK  Name = ZINC13498950
REMARK  15 active torsions:
REMARK  status: ('A' for Active; 'I' for Inactive)
REMARK    1  A    between atoms: C_1  and  C_2
REMARK    2  A    between atoms: C_6  and  C_15
REMARK    3  A    between atoms: C_13  and  C_14
REMARK    4  A    between atoms: C_15  and  N_66
REMARK    5  A    between atoms: C_16  and  C_17
REMARK    6  A    between atoms: C_16  and  N_66
REMARK    7  A    between atoms: C_17  and  C_18
REMARK    8  A    between atoms: C_18  and  O_19
REMARK    9  A    between atoms: C_20  and  C_22
REMARK   10  A    between atoms: C_20  and  C_33
REMARK   11  A    between atoms: C_20  and  N_66
REMARK   12  A    between atoms: N_26  and  C_27
REMARK   13  A    between atoms: C_27  and  C_28
REMARK   14  A    between atoms: C_33  and  C_34
REMARK   15  A    between atoms: C_33  and  C_35
REMARK                            x       y       z     vdW  Elec       q    Type
REMARK                         _______ _______ _______ _____ _____    ______ ____
ROOT
ATOM      1  N   UNL     1      -0.619   1.179   0.749  0.00  0.00    +0.389 N 
ATOM      2  H   UNL     1      -1.316   0.486   0.452  0.00  0.00    -0.080 HD
ENDROOT
BRANCH   1   3
ATOM      3  C   UNL     1      -0.061   0.770   2.055  0.00  0.00    -0.037 C 
BRANCH   3   9
ATOM      4  C   UNL     1       4.055  -5.353   0.962  0.00  0.00    +0.044 C 
ATOM      5  C   UNL     1       2.758  -4.694   1.355  0.00  0.00    -0.047 A 
ATOM      6  C   UNL     1       2.657  -3.332   1.335  0.00  0.00    +0.013 A 
ATOM      7  C   UNL     1       1.453  -2.720   1.700  0.00  0.00    -0.001 A 
ATOM      8  C   UNL     1       1.309  -1.263   1.684  0.00  0.00    +0.017 A 
ATOM      9  C   UNL     1       0.120  -0.727   2.054  0.00  0.00    +0.001 A 
ATOM     10  C   UNL     1      -0.951  -1.564   2.433  0.00  0.00    +0.251 A 
ATOM     11  O   UNL     1      -2.013  -1.061   2.756  0.00  0.00    -0.268 OA
ATOM     12  N   UNL     1      -0.830  -2.903   2.445  0.00  0.00    -0.322 N 
ATOM     13  H   UNL     1      -1.586  -3.449   2.711  0.00  0.00    +0.169 HD
ATOM     14  C   UNL     1       0.354  -3.511   2.086  0.00  0.00    +0.049 A 
ATOM     15  C   UNL     1       0.481  -4.896   2.099  0.00  0.00    +0.030 A 
ATOM     16  C   UNL     1       1.677  -5.477   1.735  0.00  0.00    -0.046 A 
ATOM     17  C   UNL     1       1.812  -6.978   1.750  0.00  0.00    +0.044 C 
ENDBRANCH   3   9
ENDBRANCH   1   3
BRANCH   1  18
ATOM     18  C   UNL     1      -1.275   2.498   0.871  0.00  0.00    -0.075 C 
BRANCH  18  19
ATOM     19  C   UNL     1      -2.626   2.312   1.565  0.00  0.00    +0.009 C 
BRANCH  19  20
ATOM     20  C   UNL     1      -3.397   3.633   1.542  0.00  0.00    +0.154 C 
BRANCH  20  21
ATOM     21  O   UNL     1      -4.659   3.459   2.190  0.00  0.00    -0.395 OA
ATOM     22  H   UNL     1      -5.203   4.258   2.212  0.00  0.00    +0.209 HD
ENDBRANCH  20  21
ENDBRANCH  19  20
ENDBRANCH  18  19
ENDBRANCH   1  18
BRANCH   1  23
ATOM     23  C   UNL     1       0.457   1.242  -0.263  0.00  0.00    +0.006 C 
BRANCH  23  24
ATOM     24  C   UNL     1      -0.168   1.200  -1.634  0.00  0.00    +0.139 A 
ATOM     25  N   UNL     1      -1.248   1.833  -2.022  0.00  0.00    -0.115 NA
ATOM     26  N   UNL     1      -1.456   1.543  -3.260  0.00  0.00    -0.023 NA
ATOM     27  N   UNL     1      -0.537   0.741  -3.671  0.00  0.00    -0.044 NA
ATOM     28  N   UNL     1       0.279   0.510  -2.700  0.00  0.00    -0.223 N 
BRANCH  28  29
ATOM     29  C   UNL     1       1.467  -0.346  -2.747  0.00  0.00    +0.221 C 
BRANCH  29  30
ATOM     30  C   UNL     1       1.055  -1.787  -2.591  0.00  0.00    +0.126 A 
ATOM     31  C   UNL     1       0.844  -2.658  -3.594  0.00  0.00    +0.046 A 
ATOM     32  C   UNL     1       0.479  -3.887  -2.999  0.00  0.00    +0.041 A 
ATOM     33  C   UNL     1       0.482  -3.692  -1.668  0.00  0.00    +0.195 A 
ATOM     34  O   UNL     1       0.832  -2.418  -1.426  0.00  0.00    -0.466 OA
ENDBRANCH  29  30
ENDBRANCH  28  29
ENDBRANCH  23  24
BRANCH  23  35
ATOM     35  C   UNL     1       1.262   2.533  -0.109  0.00  0.00    -0.024 C 
ATOM     36  C   UNL     1       0.406   3.724  -0.545  0.00  0.00    +0.006 C 
ATOM     37  C   UNL     1       1.670   2.708   1.356  0.00  0.00    +0.006 C 
ENDBRANCH  23  35
ENDBRANCH   1  23
TORSDOF 11
