REMARK  Name = ZINC08800965
REMARK  7 active torsions:
REMARK  status: ('A' for Active; 'I' for Inactive)
REMARK    1  A    between atoms: C_1  and  C_2
REMARK    2  A    between atoms: C_3  and  C_8
REMARK    3  A    between atoms: N_10  and  N_11
REMARK    4  A    between atoms: C_12  and  C_13
REMARK    5  A    between atoms: C_16  and  N_19
REMARK    6  A    between atoms: C_20  and  C_31
REMARK    7  A    between atoms: C_23  and  C_25
REMARK                            x       y       z     vdW  Elec       q    Type
REMARK                         _______ _______ _______ _____ _____    ______ ____
ROOT
ATOM      1  C   UNL     1      -0.413   4.723  -0.886  0.00  0.00    -0.005 A 
ATOM      2  C   UNL     1      -1.277   3.978  -1.694  0.00  0.00    +0.011 A 
ATOM      3  C   UNL     1      -0.849   2.793  -2.249  0.00  0.00    +0.025 A 
ATOM      4  C   UNL     1       0.444   2.337  -2.007  0.00  0.00    +0.052 A 
ATOM      5  C   UNL     1       1.306   3.073  -1.200  0.00  0.00    +0.025 A 
ATOM      6  C   UNL     1       0.885   4.261  -0.645  0.00  0.00    +0.011 A 
ENDROOT
BRANCH   4   7
ATOM      7  N   UNL     1       0.874   1.137  -2.570  0.00  0.00    -0.220 N 
ATOM      8  C   UNL     1       2.152   0.466  -2.282  0.00  0.00    +0.111 C 
ATOM      9  C   UNL     1       2.109  -0.796  -3.166  0.00  0.00    +0.082 C 
ATOM     10  C   UNL     1       0.772  -0.696  -3.873  0.00  0.00    +0.068 C 
ATOM     11  N   UNL     1       0.165   0.377  -3.498  0.00  0.00    -0.183 NA
BRANCH  10  12
ATOM     12  C   UNL     1       0.248  -1.676  -4.842  0.00  0.00    -0.002 A 
ATOM     13  C   UNL     1       1.001  -2.804  -5.177  0.00  0.00    +0.010 A 
ATOM     14  C   UNL     1       0.502  -3.720  -6.080  0.00  0.00    +0.001 A 
ATOM     15  C   UNL     1      -0.737  -3.516  -6.663  0.00  0.00    +0.000 A 
ATOM     16  C   UNL     1      -1.485  -2.398  -6.341  0.00  0.00    +0.001 A 
ATOM     17  C   UNL     1      -1.001  -1.477  -5.435  0.00  0.00    +0.010 A 
ENDBRANCH  10  12
BRANCH   8  18
ATOM     18  C   UNL     1       2.238   0.085  -0.803  0.00  0.00    +0.038 C 
ATOM     19  C   UNL     1       0.867  -0.387  -0.321  0.00  0.00    +0.036 C 
ATOM     20  C   UNL     1       0.539  -1.722  -0.935  0.00  0.00    -0.026 C 
ATOM     21  C   UNL     1       1.502  -2.610  -1.155  0.00  0.00    -0.005 C 
ATOM     22  C   UNL     1       2.892  -2.285  -0.799  0.00  0.00    -0.004 C 
ATOM     23  C   UNL     1       3.250  -1.017  -0.628  0.00  0.00    -0.021 C 
ENDBRANCH   8  18
ENDBRANCH   4   7
BRANCH   1  25
ATOM     24  N   UNL     1      -0.064   6.681   0.460  0.00  0.00    -0.187 NA
ATOM     25  C   UNL     1      -0.868   5.991  -0.290  0.00  0.00    +0.138 C 
BRANCH  24  28
ATOM     26  C   UNL     1       0.338   8.604   1.805  0.00  0.00    +0.272 C 
ATOM     27  O   UNL     1       1.468   8.204   2.016  0.00  0.00    -0.268 OA
ATOM     28  N   UNL     1      -0.497   7.887   1.027  0.00  0.00    -0.202 N 
ATOM     29  H   UNL     1      -1.398   8.206   0.860  0.00  0.00    +0.178 HD
BRANCH  26  32
ATOM     30  C   UNL     1       1.986  10.485   3.645  0.00  0.00    +0.067 C 
ATOM     31  C   UNL     1       0.564  10.748   3.223  0.00  0.00    +0.060 A 
ATOM     32  C   UNL     1      -0.114   9.862   2.397  0.00  0.00    +0.100 A 
ATOM     33  S   UNL     1      -1.696  10.683   2.264  0.00  0.00    -0.048 S 
ATOM     34  C   UNL     1      -1.324  12.056   3.259  0.00  0.00    +0.156 A 
ATOM     35  N   UNL     1      -0.071  11.820   3.619  0.00  0.00    -0.230 NA
ATOM     36  N   UNL     1      -2.130  13.124   3.591  0.00  0.00    -0.337 N 
ATOM     37  H   UNL     1      -3.038  13.170   3.253  0.00  0.00    +0.144 HD
ATOM     38  H   UNL     1      -1.789  13.830   4.163  0.00  0.00    +0.144 HD
ENDBRANCH  26  32
ENDBRANCH  24  28
ENDBRANCH   1  25
TORSDOF 6
