REMARK  Name = ZINC67504216
REMARK  4 active torsions:
REMARK  status: ('A' for Active; 'I' for Inactive)
REMARK    1  A    between atoms: C_8  and  C_10
REMARK    2  A    between atoms: C_13  and  C_15
REMARK    3  A    between atoms: C_15  and  N_16
REMARK    4  A    between atoms: N_16  and  C_17
REMARK                            x       y       z     vdW  Elec       q    Type
REMARK                         _______ _______ _______ _____ _____    ______ ____
ROOT
ATOM      1  C   UNL     1       2.318  -7.637  -0.072  0.00  0.00    -0.006 C 
ENDROOT
BRANCH   1   5
ATOM      2  C   UNL     1       3.072  -4.063  -0.129  0.00  0.00    +0.160 A 
ATOM      3  C   UNL     1       4.338  -4.557  -0.032  0.00  0.00    +0.052 A 
ATOM      4  C   UNL     1       4.225  -5.958   0.003  0.00  0.00    +0.043 A 
ATOM      5  C   UNL     1       2.910  -6.252  -0.074  0.00  0.00    +0.089 A 
ATOM      6  O   UNL     1       2.217  -5.105  -0.148  0.00  0.00    -0.460 OA
BRANCH   2  14
ATOM      7  C   UNL     1       0.065   1.292  -0.481  0.00  0.00    +0.002 A 
ATOM      8  C   UNL     1       1.232   2.041  -0.434  0.00  0.00    +0.001 A 
ATOM      9  C   UNL     1       2.450   1.393  -0.340  0.00  0.00    +0.017 A 
ATOM     10  C   UNL     1       2.483   0.021  -0.294  0.00  0.00    +0.040 A 
ATOM     11  C   UNL     1       1.310  -0.771  -0.340  0.00  0.00    +0.079 A 
ATOM     12  C   UNL     1       0.086  -0.067  -0.437  0.00  0.00    +0.029 A 
ATOM     13  N   UNL     1       1.502  -2.103  -0.286  0.00  0.00    -0.236 NA
ATOM     14  C   UNL     1       2.702  -2.642  -0.196  0.00  0.00    +0.144 A 
ATOM     15  S   UNL     1       3.764  -1.204  -0.178  0.00  0.00    -0.064 S 
ENDBRANCH   2  14
ENDBRANCH   1   5
BRANCH   1  16
ATOM     16  N   UNL     1       2.036  -8.047   1.310  0.00  0.00    +0.388 N 
ATOM     17  H   UNL     1       2.902  -8.129   1.821  0.00  0.00    -0.084 HD
ATOM     18  H   UNL     1       1.449  -7.355   1.753  0.00  0.00    -0.084 HD
BRANCH  16  19
ATOM     19  C   UNL     1       1.346  -9.344   1.305  0.00  0.00    -0.039 C 
ATOM     20  C   UNL     1       2.279 -10.408   0.733  0.00  0.00    -0.011 C 
ATOM     21  C   UNL     1       1.629 -11.781   0.947  0.00  0.00    +0.005 C 
ATOM     22  C   UNL     1       1.639 -12.086   2.443  0.00  0.00    +0.053 C 
ATOM     23  C   UNL     1       1.064 -10.934   3.226  0.00  0.00    +0.021 A 
ATOM     24  C   UNL     1       0.938  -9.694   2.713  0.00  0.00    -0.042 A 
ATOM     25  C   UNL     1       0.403  -8.662   3.508  0.00  0.00    +0.009 A 
ATOM     26  C   UNL     1       0.013  -8.921   4.786  0.00  0.00    +0.070 A 
ATOM     27  C   UNL     1       0.152 -10.226   5.288  0.00  0.00    +0.249 A 
ATOM     28  O   UNL     1      -0.194 -10.483   6.430  0.00  0.00    -0.268 OA
ATOM     29  N   UNL     1       0.664 -11.189   4.507  0.00  0.00    -0.326 N 
ATOM     30  H   UNL     1       0.754 -12.087   4.862  0.00  0.00    +0.169 HD
ENDBRANCH  16  19
ENDBRANCH   1  16
TORSDOF 4
