REMARK  Name = ZINC19296860
REMARK  11 active torsions:
REMARK  status: ('A' for Active; 'I' for Inactive)
REMARK    1  A    between atoms: C_1  and  C_2
REMARK    2  A    between atoms: C_2  and  C_3
REMARK    3  A    between atoms: C_2  and  C_4
REMARK    4  A    between atoms: C_2  and  C_5
REMARK    5  A    between atoms: C_8  and  C_11
REMARK    6  A    between atoms: C_14  and  S_17
REMARK    7  A    between atoms: N_15  and  N_16
REMARK    8  A    between atoms: S_17  and  C_18
REMARK    9  A    between atoms: C_18  and  C_19
REMARK   10  A    between atoms: N_21  and  C_22
REMARK   11  A    between atoms: N_21  and  C_30
REMARK                            x       y       z     vdW  Elec       q    Type
REMARK                         _______ _______ _______ _____ _____    ______ ____
ROOT
ATOM      1  C   UNL     1       2.690  -1.854  -4.738  0.00  0.00    +0.182 A 
ATOM      2  N   UNL     1       2.286  -2.812  -5.541  0.00  0.00    -0.127 NA
ATOM      3  N   UNL     1       3.130  -2.967  -6.498  0.00  0.00    -0.121 NA
ATOM      4  C   UNL     1       4.124  -2.117  -6.365  0.00  0.00    +0.209 A 
ATOM      5  N   UNL     1       3.876  -1.376  -5.245  0.00  0.00    -0.224 N 
ENDROOT
BRANCH   1   9
ATOM      6  C   UNL     1       0.698  -0.480  -1.248  0.00  0.00    -0.042 A 
ATOM      7  C   UNL     1       0.023  -1.273  -2.159  0.00  0.00    +0.005 A 
ATOM      8  C   UNL     1       0.664  -1.723  -3.294  0.00  0.00    +0.012 A 
ATOM      9  C   UNL     1       1.996  -1.375  -3.524  0.00  0.00    +0.021 A 
ATOM     10  C   UNL     1       2.671  -0.574  -2.601  0.00  0.00    +0.012 A 
ATOM     11  C   UNL     1       2.017  -0.127  -1.472  0.00  0.00    +0.005 A 
BRANCH   6  13
ATOM     12  C   UNL     1      -0.027   1.537  -0.001  0.00  0.00    +0.015 C 
ATOM     13  C   UNL     1      -0.009   0.007  -0.009  0.00  0.00    -0.013 C 
ATOM     14  C   UNL     1       0.728  -0.501   1.232  0.00  0.00    +0.015 C 
ATOM     15  C   UNL     1      -1.446  -0.519  -0.001  0.00  0.00    +0.015 C 
ENDBRANCH   6  13
ENDBRANCH   1   9
BRANCH   5  16
ATOM     16  N   UNL     1       4.647  -0.372  -4.732  0.00  0.00    -0.295 N 
ATOM     17  H   UNL     1       5.325  -0.734  -4.078  0.00  0.00    +0.163 HD
ATOM     18  H   UNL     1       5.098   0.150  -5.469  0.00  0.00    +0.163 HD
ENDBRANCH   5  16
BRANCH   4  19
ATOM     19  S   UNL     1       5.514  -1.959  -7.436  0.00  0.00    -0.075 S 
BRANCH  19  20
ATOM     20  C   UNL     1       5.229  -3.216  -8.713  0.00  0.00    +0.173 C 
BRANCH  20  21
ATOM     21  C   UNL     1       6.362  -3.187  -9.707  0.00  0.00    +0.226 C 
ATOM     22  O   UNL     1       7.223  -2.337  -9.621  0.00  0.00    -0.275 OA
ATOM     23  N   UNL     1       6.416  -4.105 -10.693  0.00  0.00    -0.293 N 
BRANCH  23  24
ATOM     24  C   UNL     1       7.571  -4.144 -11.594  0.00  0.00    +0.099 C 
ATOM     25  C   UNL     1       7.696  -2.794 -12.321  0.00  0.00    +0.046 C 
ATOM     26  C   UNL     1       9.085  -2.748 -13.020  0.00  0.00    +0.168 C 
ATOM     27  S   UNL     1      10.142  -3.513 -11.720  0.00  0.00    -0.029 S 
ATOM     28  O   UNL     1      10.680  -2.485 -10.898  0.00  0.00    -0.174 OA
ATOM     29  O   UNL     1      11.019  -4.451 -12.329  0.00  0.00    -0.174 OA
ATOM     30  C   UNL     1       8.854  -4.421 -10.774  0.00  0.00    +0.188 C 
ENDBRANCH  23  24
BRANCH  23  31
ATOM     31  C   UNL     1       5.322  -5.064 -10.862  0.00  0.00    +0.076 C 
ATOM     32  C   UNL     1       5.843  -6.501 -10.657  0.00  0.00    +0.022 C 
ATOM     33  C   UNL     1       5.059  -7.341 -11.696  0.00  0.00    +0.002 C 
ATOM     34  C   UNL     1       4.987  -6.392 -12.918  0.00  0.00    +0.002 C 
ATOM     35  C   UNL     1       4.778  -4.994 -12.300  0.00  0.00    +0.022 C 
ENDBRANCH  23  31
ENDBRANCH  20  21
ENDBRANCH  19  20
ENDBRANCH   4  19
TORSDOF 8
