REMARK  Name = ZINC17820215
REMARK  4 active torsions:
REMARK  status: ('A' for Active; 'I' for Inactive)
REMARK    1  A    between atoms: C_1  and  N_2
REMARK    2  A    between atoms: C_13  and  C_16
REMARK    3  A    between atoms: C_18  and  O_25
REMARK    4  A    between atoms: C_21  and  N_22
REMARK                            x       y       z     vdW  Elec       q    Type
REMARK                         _______ _______ _______ _____ _____    ______ ____
ROOT
ATOM      1  C   UNL     1       0.639   1.456   0.374  0.00  0.00    -0.096 C 
ATOM      2  N   UNL     1       0.537  -0.007   0.298  0.00  0.00    +0.381 N 
ATOM      3  C   UNL     1      -0.879  -0.398   0.283  0.00  0.00    -0.074 C 
ATOM      4  C   UNL     1      -1.016  -1.873  -0.107  0.00  0.00    +0.018 C 
ATOM      5  C   UNL     1      -0.101  -2.684   0.801  0.00  0.00    -0.027 A 
ATOM      6  C   UNL     1       0.885  -2.069   1.494  0.00  0.00    -0.021 A 
ATOM      7  S   UNL     1       1.679  -3.365   2.400  0.00  0.00    -0.080 S 
ATOM      8  C   UNL     1       0.762  -4.654   1.897  0.00  0.00    +0.080 A 
ATOM      9  C   UNL     1      -0.183  -4.118   1.008  0.00  0.00    +0.068 A 
ATOM     10  C   UNL     1      -1.144  -5.053   0.380  0.00  0.00    +0.248 C 
ATOM     11  O   UNL     1      -1.870  -4.699  -0.530  0.00  0.00    -0.270 OA
ATOM     12  N   UNL     1      -1.181  -6.315   0.858  0.00  0.00    -0.289 N 
ATOM     13  C   UNL     1      -0.450  -6.749   2.043  0.00  0.00    +0.192 C 
ATOM     14  N   UNL     1       0.804  -5.992   2.207  0.00  0.00    -0.316 N 
ATOM     15  C   UNL     1       1.203  -0.607   1.469  0.00  0.00    -0.036 C 
ATOM     16  H   UNL     1      -1.722  -6.968   0.387  0.00  0.00    +0.151 HD
ATOM     17  H   UNL     1       1.619  -6.417   2.517  0.00  0.00    +0.149 HD
ATOM     18  H   UNL     1       0.984  -0.332  -0.546  0.00  0.00    -0.082 HD
ENDROOT
BRANCH  13  19
ATOM     19  C   UNL     1      -1.314  -6.538   3.260  0.00  0.00    +0.024 A 
ATOM     20  C   UNL     1      -2.324  -5.596   3.234  0.00  0.00    +0.054 A 
ATOM     21  C   UNL     1      -3.119  -5.402   4.354  0.00  0.00    +0.117 A 
ATOM     22  C   UNL     1      -2.898  -6.157   5.498  0.00  0.00    +0.047 A 
ATOM     23  C   UNL     1      -1.887  -7.098   5.518  0.00  0.00    +0.036 A 
ATOM     24  C   UNL     1      -1.099  -7.293   4.398  0.00  0.00    +0.133 A 
BRANCH  24  25
ATOM     25  N   UNL     1      -0.021  -8.306   4.420  0.00  0.00    +0.057 N 
ATOM     26  O   UNL     1       0.098  -9.042   5.373  0.00  0.00    -0.126 OA
ATOM     27  O   UNL     1       0.741  -8.399   3.486  0.00  0.00    -0.126 OA
ENDBRANCH  24  25
BRANCH  21  28
ATOM     28  O   UNL     1      -4.112  -4.475   4.332  0.00  0.00    -0.507 OA
ATOM     29  H   UNL     1      -4.964  -4.819   4.031  0.00  0.00    +0.292 HD
ENDBRANCH  21  28
ENDBRANCH  13  19
TORSDOF 3
