REMARK  Name = ZINC02664063
REMARK  7 active torsions:
REMARK  status: ('A' for Active; 'I' for Inactive)
REMARK    1  A    between atoms: C_1  and  C_2
REMARK    2  A    between atoms: C_4  and  C_15
REMARK    3  A    between atoms: C_5  and  C_14
REMARK    4  A    between atoms: N_6  and  C_7
REMARK    5  A    between atoms: C_15  and  C_17
REMARK    6  A    between atoms: C_17  and  N_18
REMARK    7  A    between atoms: C_25  and  N_29
REMARK                            x       y       z     vdW  Elec       q    Type
REMARK                         _______ _______ _______ _____ _____    ______ ____
ROOT
ATOM      1  C   UNL     1       1.396   1.982  -0.001  0.00  0.00    +0.183 C 
ATOM      2  O   UNL     1       2.329   1.206  -0.014  0.00  0.00    -0.290 OA
ENDROOT
BRANCH   1   6
ATOM      3  C   UNL     1       0.700   7.030   0.034  0.00  0.00    +0.064 C 
ATOM      4  C   UNL     1       1.317   5.655   0.021  0.00  0.00    +0.022 A 
ATOM      5  C   UNL     1       0.638   4.496   0.021  0.00  0.00    +0.034 A 
ATOM      6  C   UNL     1       1.644   3.425   0.005  0.00  0.00    +0.040 A 
ATOM      7  C   UNL     1       2.873   4.059   0.002  0.00  0.00    +0.031 A 
ATOM      8  N   UNL     1       2.658   5.389   0.007  0.00  0.00    -0.317 N 
ATOM      9  C   UNL     1       4.218   3.380  -0.008  0.00  0.00    +0.064 C 
BRANCH   8  10
ATOM     10  C   UNL     1       3.667   6.362   0.002  0.00  0.00    +0.047 A 
ATOM     11  C   UNL     1       4.513   6.482  -1.092  0.00  0.00    +0.027 A 
ATOM     12  C   UNL     1       5.504   7.444  -1.095  0.00  0.00    +0.017 A 
ATOM     13  C   UNL     1       5.660   8.282  -0.005  0.00  0.00    +0.018 A 
ATOM     14  C   UNL     1       4.821   8.162   1.088  0.00  0.00    +0.017 A 
ATOM     15  C   UNL     1       3.826   7.204   1.095  0.00  0.00    +0.027 A 
ATOM     16 BR   UNL     1       7.022   9.594  -0.011  0.00  0.00    -0.050 Br
ENDBRANCH   8  10
ENDBRANCH   1   6
BRANCH   1  17
ATOM     17  C   UNL     1      -0.018   1.461   0.010  0.00  0.00    +0.196 C 
BRANCH  17  18
ATOM     18  N   UNL     1       0.002  -0.004   0.002  0.00  0.00    -0.226 N 
ATOM     19  C   UNL     1       0.022  -0.771   1.107  0.00  0.00    +0.254 C 
ATOM     20  O   UNL     1       0.028  -0.366   2.252  0.00  0.00    -0.270 OA
ATOM     21  C   UNL     1       0.037  -2.190   0.693  0.00  0.00    +0.051 A 
ATOM     22  C   UNL     1       0.060  -3.395   1.372  0.00  0.00    +0.014 A 
ATOM     23  C   UNL     1       0.068  -4.590   0.664  0.00  0.00    +0.003 A 
ATOM     24  C   UNL     1       0.056  -4.588  -0.714  0.00  0.00    +0.023 A 
ATOM     25  C   UNL     1       0.033  -3.383  -1.419  0.00  0.00    +0.038 A 
ATOM     26  C   UNL     1       0.024  -2.178  -0.718  0.00  0.00    +0.070 A 
ATOM     27  C   UNL     1      -0.004  -0.759  -1.111  0.00  0.00    +0.256 C 
ATOM     28  O   UNL     1      -0.025  -0.340  -2.252  0.00  0.00    -0.269 OA
BRANCH  25  29
ATOM     29  N   UNL     1       0.020  -3.385  -2.806  0.00  0.00    -0.357 N 
ATOM     30  H   UNL     1       0.004  -2.546  -3.292  0.00  0.00    +0.142 HD
ATOM     31  H   UNL     1       0.027  -4.226  -3.290  0.00  0.00    +0.142 HD
ENDBRANCH  25  29
ENDBRANCH  17  18
ENDBRANCH   1  17
TORSDOF 5
