REMARK  Name = ZINC38664354
REMARK  6 active torsions:
REMARK  status: ('A' for Active; 'I' for Inactive)
REMARK    1  A    between atoms: C_1  and  O_2
REMARK    2  A    between atoms: O_2  and  C_3
REMARK    3  A    between atoms: C_6  and  C_10
REMARK    4  A    between atoms: C_7  and  O_9
REMARK    5  A    between atoms: C_12  and  O_16
REMARK    6  A    between atoms: O_16  and  C_17
REMARK                            x       y       z     vdW  Elec       q    Type
REMARK                         _______ _______ _______ _____ _____    ______ ____
ROOT
ATOM      1  C   UNL     1       2.311  -2.558  -4.015  0.00  0.00    +0.199 C 
ATOM      2  C   UNL     1       1.480  -2.783  -5.266  0.00  0.00    +0.153 C 
ATOM      3  C   UNL     1       2.059  -1.980  -6.181  0.00  0.00    +0.176 C 
ATOM      4  N   UNL     1       3.097  -1.326  -5.649  0.00  0.00    -0.182 NA
ATOM      5  N   UNL     1       3.319  -1.580  -4.458  0.00  0.00    -0.294 N 
ATOM      6  H   UNL     1       4.027  -1.202  -3.913  0.00  0.00    +0.184 HD
ENDROOT
BRANCH   1  10
ATOM      7  C   UNL     1      -0.093  -0.938  -0.871  0.00  0.00    +0.124 A 
ATOM      8  C   UNL     1       0.601  -0.093  -1.724  0.00  0.00    +0.046 A 
ATOM      9  C   UNL     1       1.378  -0.619  -2.739  0.00  0.00    +0.013 A 
ATOM     10  C   UNL     1       1.464  -1.988  -2.906  0.00  0.00    +0.025 A 
ATOM     11  C   UNL     1       0.772  -2.837  -2.056  0.00  0.00    +0.126 A 
ATOM     12  C   UNL     1      -0.003  -2.312  -1.033  0.00  0.00    +0.091 A 
BRANCH   7  14
ATOM     13  C   UNL     1      -0.904   1.004   0.235  0.00  0.00    +0.277 C 
ATOM     14  O   UNL     1      -0.857  -0.420   0.127  0.00  0.00    -0.495 OA
ENDBRANCH   7  14
BRANCH  11  15
ATOM     15  O   UNL     1       0.858  -4.184  -2.221  0.00  0.00    -0.506 OA
ATOM     16  H   UNL     1       1.578  -4.596  -1.725  0.00  0.00    +0.292 HD
ENDBRANCH  11  15
ENDBRANCH   1  10
BRANCH   2  17
ATOM     17  O   UNL     1       0.413  -3.596  -5.424  0.00  0.00    -0.455 OA
BRANCH  17  18
ATOM     18  C   UNL     1       0.616  -4.937  -5.343  0.00  0.00    +0.142 A 
ATOM     19  C   UNL     1       1.903  -5.440  -5.220  0.00  0.00    +0.047 A 
ATOM     20  C   UNL     1       2.107  -6.804  -5.137  0.00  0.00    +0.004 A 
ATOM     21  C   UNL     1       1.028  -7.669  -5.177  0.00  0.00    +0.001 A 
ATOM     22  C   UNL     1      -0.256  -7.171  -5.300  0.00  0.00    +0.019 A 
ATOM     23  C   UNL     1      -0.466  -5.807  -5.377  0.00  0.00    +0.060 A 
ATOM     24 BR   UNL     1      -2.223  -5.127  -5.537  0.00  0.00    -0.046 Br
ENDBRANCH  17  18
ENDBRANCH   2  17
TORSDOF 5
