REMARK  Name = ZINC03331881
REMARK  8 active torsions:
REMARK  status: ('A' for Active; 'I' for Inactive)
REMARK    1  A    between atoms: C_1  and  C_2
REMARK    2  A    between atoms: C_2  and  C_4
REMARK    3  A    between atoms: C_2  and  N_23
REMARK    4  A    between atoms: N_6  and  C_7
REMARK    5  A    between atoms: C_10  and  C_13
REMARK    6  A    between atoms: N_23  and  S_24
REMARK    7  A    between atoms: S_24  and  C_27
REMARK    8  A    between atoms: C_28  and  C_29
REMARK                            x       y       z     vdW  Elec       q    Type
REMARK                         _______ _______ _______ _____ _____    ______ ____
ROOT
ATOM      1  C   UNL     1      -0.604   2.599   4.154  0.00  0.00    +0.236 C 
ATOM      2  O   UNL     1      -1.688   3.128   4.274  0.00  0.00    -0.274 OA
ATOM      3  N   UNL     1       0.436   3.015   4.905  0.00  0.00    -0.284 N 
ATOM      4  H   UNL     1       1.282   2.544   4.864  0.00  0.00    +0.155 HD
ENDROOT
BRANCH   3   5
ATOM      5  C   UNL     1       0.293   4.126   5.741  0.00  0.00    +0.033 A 
ATOM      6  C   UNL     1      -0.634   5.114   5.430  0.00  0.00    +0.024 A 
ATOM      7  C   UNL     1      -0.781   6.208   6.255  0.00  0.00    +0.013 A 
ATOM      8  C   UNL     1       0.011   6.329   7.398  0.00  0.00    +0.019 A 
ATOM      9  C   UNL     1       0.945   5.338   7.705  0.00  0.00    +0.013 A 
ATOM     10  C   UNL     1       1.083   4.244   6.878  0.00  0.00    +0.024 A 
BRANCH   8  11
ATOM     11  C   UNL     1      -0.141   7.504   8.283  0.00  0.00    +0.164 A 
ATOM     12  N   UNL     1       0.253   7.599   9.536  0.00  0.00    -0.129 NA
ATOM     13  N   UNL     1      -0.032   8.768   9.994  0.00  0.00    -0.134 NA
ATOM     14  C   UNL     1      -0.622   9.475   9.072  0.00  0.00    +0.134 A 
ATOM     15  N   UNL     1      -0.720   8.697   7.961  0.00  0.00    -0.311 N 
ATOM     16  C   UNL     1      -1.335   9.069   6.687  0.00  0.00    +0.125 C 
ATOM     17  C   UNL     1      -1.232  10.586   6.499  0.00  0.00    +0.022 C 
ATOM     18  C   UNL     1      -2.453  11.267   7.114  0.00  0.00    +0.002 C 
ATOM     19  C   UNL     1      -2.522  10.992   8.614  0.00  0.00    +0.008 C 
ATOM     20  C   UNL     1      -1.104  10.898   9.185  0.00  0.00    +0.076 C 
ENDBRANCH   8  11
ENDBRANCH   3   5
BRANCH   1  22
ATOM     21  C   UNL     1       0.032   0.215   3.907  0.00  0.00    +0.035 C 
ATOM     22  C   UNL     1      -0.418   1.476   3.167  0.00  0.00    +0.159 C 
BRANCH  22  23
ATOM     23  N   UNL     1      -1.686   1.214   2.482  0.00  0.00    -0.179 NA
ATOM     24  H   UNL     1      -2.524   1.308   2.960  0.00  0.00    +0.149 HD
BRANCH  23  25
ATOM     25  S   UNL     1      -1.688   0.757   0.890  0.00  0.00    +0.052 S 
ATOM     26  O   UNL     1      -0.845   1.672   0.203  0.00  0.00    -0.154 OA
ATOM     27  O   UNL     1      -3.047   0.554   0.527  0.00  0.00    -0.154 OA
BRANCH  25  28
ATOM     28  C   UNL     1      -0.902  -0.818   0.799  0.00  0.00    +0.153 C 
ATOM     29  C   UNL     1      -1.594  -1.883   0.420  0.00  0.00    +0.028 C 
BRANCH  29  30
ATOM     30  C   UNL     1      -0.935  -3.204   0.344  0.00  0.00    -0.024 A 
ATOM     31  C   UNL     1       0.417  -3.332   0.665  0.00  0.00    +0.008 A 
ATOM     32  C   UNL     1       1.025  -4.569   0.597  0.00  0.00    +0.001 A 
ATOM     33  C   UNL     1       0.300  -5.678   0.200  0.00  0.00    +0.000 A 
ATOM     34  C   UNL     1      -1.039  -5.557  -0.124  0.00  0.00    +0.001 A 
ATOM     35  C   UNL     1      -1.661  -4.327  -0.056  0.00  0.00    +0.008 A 
ENDBRANCH  29  30
ENDBRANCH  25  28
ENDBRANCH  23  25
ENDBRANCH  22  23
ENDBRANCH   1  22
TORSDOF 7
