REMARK  Name = ZINC34944388
REMARK  8 active torsions:
REMARK  status: ('A' for Active; 'I' for Inactive)
REMARK    1  A    between atoms: C_4  and  C_7
REMARK    2  A    between atoms: C_7  and  N_8
REMARK    3  A    between atoms: N_17  and  C_31
REMARK    4  A    between atoms: C_21  and  C_29
REMARK    5  A    between atoms: C_22  and  N_28
REMARK    6  A    between atoms: C_23  and  C_24
REMARK    7  A    between atoms: C_23  and  C_26
REMARK    8  A    between atoms: C_31  and  C_32
REMARK                            x       y       z     vdW  Elec       q    Type
REMARK                         _______ _______ _______ _____ _____    ______ ____
ROOT
ATOM      1  N   UNL     1       4.153  -0.953   1.341  0.00  0.00    +0.382 N 
ATOM      2  C   UNL     1       4.439   0.325   2.001  0.00  0.00    -0.078 C 
ATOM      3  C   UNL     1       4.778   0.088   3.469  0.00  0.00    -0.008 C 
ATOM      4  C   UNL     1       5.881  -0.940   3.691  0.00  0.00    +0.012 C 
ATOM      5  C   UNL     1       5.774  -2.138   2.753  0.00  0.00    -0.008 C 
ATOM      6  C   UNL     1       5.368  -1.770   1.331  0.00  0.00    -0.078 C 
ATOM      7  C   UNL     1       7.256  -0.289   3.538  0.00  0.00    +0.043 C 
ATOM      8  C   UNL     1       7.587   0.141   2.128  0.00  0.00    +0.094 C 
ATOM      9  N   UNL     1       8.271   1.427   2.033  0.00  0.00    -0.294 NA
ATOM     10  C   UNL     1       9.247   1.605   3.118  0.00  0.00    +0.112 C 
ATOM     11  C   UNL     1       8.450   1.671   4.404  0.00  0.00    -0.006 C 
ATOM     12  C   UNL     1       7.502   0.757   4.584  0.00  0.00    -0.026 C 
ATOM     13  C   UNL     1       6.712   0.751   5.833  0.00  0.00    +0.074 C 
ATOM     14  C   UNL     1       5.906  -0.309   6.100  0.00  0.00    +0.054 C 
ATOM     15  C   UNL     1       5.761  -1.454   5.140  0.00  0.00    +0.187 C 
ATOM     16  H   UNL     1       3.424  -1.436   1.846  0.00  0.00    -0.081 HD
ENDROOT
BRANCH  14  17
ATOM     17  N   UNL     1       5.212  -0.339   7.271  0.00  0.00    -0.358 N 
ATOM     18  H   UNL     1       5.296   0.392   7.904  0.00  0.00    +0.142 HD
ATOM     19  H   UNL     1       4.633  -1.091   7.474  0.00  0.00    +0.142 HD
ENDBRANCH  14  17
BRANCH  15  20
ATOM     20  C   UNL     1       4.453  -2.085   5.375  0.00  0.00    +0.091 C 
ATOM     21  N   UNL     1       3.443  -2.572   5.557  0.00  0.00    -0.194 NA
ENDBRANCH  15  20
BRANCH  15  22
ATOM     22  C   UNL     1       6.803  -2.451   5.422  0.00  0.00    +0.091 C 
ATOM     23  N   UNL     1       7.609  -3.222   5.641  0.00  0.00    -0.194 NA
ENDBRANCH  15  22
BRANCH  13  24
ATOM     24  C   UNL     1       6.771   1.837   6.766  0.00  0.00    +0.101 C 
ATOM     25  N   UNL     1       6.817   2.698   7.506  0.00  0.00    -0.191 NA
ENDBRANCH  13  24
BRANCH   1  26
ATOM     26  C   UNL     1       3.711  -0.707  -0.038  0.00  0.00    -0.043 C 
BRANCH  26  30
ATOM     27  C   UNL     1      -0.017   1.378   0.010  0.00  0.00    +0.000 A 
ATOM     28  C   UNL     1       1.171   2.086   0.002  0.00  0.00    +0.000 A 
ATOM     29  C   UNL     1       2.377   1.411  -0.013  0.00  0.00    +0.002 A 
ATOM     30  C   UNL     1       2.396   0.029  -0.020  0.00  0.00    -0.064 A 
ATOM     31  C   UNL     1       1.208  -0.679  -0.012  0.00  0.00    +0.002 A 
ATOM     32  C   UNL     1       0.002  -0.004   0.002  0.00  0.00    +0.000 A 
ENDBRANCH  26  30
ENDBRANCH   1  26
BRANCH   9  33
ATOM     33  C   UNL     1       7.355   2.561   1.922  0.00  0.00    +0.120 C 
BRANCH  33  34
ATOM     34  C   UNL     1       8.135   3.806   1.584  0.00  0.00    -0.033 A 
ATOM     35  C   UNL     1       8.638   4.602   2.596  0.00  0.00    +0.005 A 
ATOM     36  C   UNL     1       9.353   5.743   2.287  0.00  0.00    +0.000 A 
ATOM     37  C   UNL     1       9.566   6.089   0.965  0.00  0.00    +0.000 A 
ATOM     38  C   UNL     1       9.063   5.292  -0.047  0.00  0.00    +0.000 A 
ATOM     39  C   UNL     1       8.352   4.149   0.263  0.00  0.00    +0.005 A 
ENDBRANCH  33  34
ENDBRANCH   9  33
TORSDOF 8
