REMARK  Name = ZINC38700720
REMARK  10 active torsions:
REMARK  status: ('A' for Active; 'I' for Inactive)
REMARK    1  A    between atoms: C_1  and  C_2
REMARK    2  A    between atoms: C_9  and  C_37
REMARK    3  A    between atoms: C_10  and  C_12
REMARK    4  A    between atoms: C_12  and  O_14
REMARK    5  A    between atoms: O_14  and  C_15
REMARK    6  A    between atoms: C_22  and  N_36
REMARK    7  A    between atoms: C_23  and  C_34
REMARK    8  A    between atoms: C_24  and  C_26
REMARK    9  A    between atoms: C_29  and  S_32
REMARK   10  A    between atoms: S_32  and  C_33
REMARK                            x       y       z     vdW  Elec       q    Type
REMARK                         _______ _______ _______ _____ _____    ______ ____
ROOT
ATOM      1  C   UNL     1       0.037  -6.605  -4.465  0.00  0.00    +0.136 A 
ATOM      2  C   UNL     1      -0.021  -7.767  -3.707  0.00  0.00    +0.047 A 
ATOM      3  C   UNL     1      -0.042  -8.998  -4.333  0.00  0.00    +0.012 A 
ATOM      4  C   UNL     1      -0.006  -9.079  -5.714  0.00  0.00    +0.008 A 
ATOM      5  C   UNL     1       0.052  -7.922  -6.475  0.00  0.00    +0.138 A 
ATOM      6  C   UNL     1       0.069  -6.683  -5.847  0.00  0.00    +0.093 A 
ATOM      7  O   UNL     1       0.089  -7.981  -7.829  0.00  0.00    -0.441 OA
ATOM      8  C   UNL     1       0.453  -9.120  -8.440  0.00  0.00    +0.199 C 
ATOM      9  C   UNL     1       0.420 -10.316  -7.806  0.00  0.00    +0.098 C 
ATOM     10  C   UNL     1      -0.030 -10.431  -6.377  0.00  0.00    +0.098 C 
ENDROOT
BRANCH  10  11
ATOM     11  C   UNL     1      -1.432 -10.981  -6.337  0.00  0.00    -0.035 A 
ATOM     12  C   UNL     1      -2.462 -10.291  -6.951  0.00  0.00    +0.005 A 
ATOM     13  C   UNL     1      -3.748 -10.792  -6.916  0.00  0.00    +0.015 A 
ATOM     14  C   UNL     1      -4.007 -11.992  -6.263  0.00  0.00    +0.008 A 
ATOM     15  C   UNL     1      -2.970 -12.682  -5.648  0.00  0.00    +0.015 A 
ATOM     16  C   UNL     1      -1.686 -12.178  -5.691  0.00  0.00    +0.005 A 
BRANCH  14  17
ATOM     17  S   UNL     1      -5.647 -12.634  -6.216  0.00  0.00    -0.129 S 
ATOM     18  C   UNL     1      -5.486 -14.178  -5.276  0.00  0.00    +0.090 C 
ENDBRANCH  14  17
ENDBRANCH  10  11
BRANCH   8  19
ATOM     19  N   UNL     1       0.871  -9.071  -9.747  0.00  0.00    -0.328 N 
ATOM     20  H   UNL     1       0.901  -8.222 -10.215  0.00  0.00    +0.145 HD
ATOM     21  H   UNL     1       1.137  -9.885 -10.202  0.00  0.00    +0.145 HD
ENDBRANCH   8  19
BRANCH   9  22
ATOM     22  C   UNL     1       0.821 -11.496  -8.512  0.00  0.00    +0.101 C 
ATOM     23  N   UNL     1       1.140 -12.432  -9.071  0.00  0.00    -0.191 NA
ENDBRANCH   9  22
BRANCH   1  24
ATOM     24  O   UNL     1       0.057  -5.393  -3.850  0.00  0.00    -0.420 OA
BRANCH  24  25
ATOM     25  C   UNL     1      -1.083  -4.673  -3.833  0.00  0.00    +0.380 C 
ATOM     26  O   UNL     1      -2.063  -5.071  -4.432  0.00  0.00    -0.241 OA
BRANCH  25  36
ATOM     27  C   UNL     1       0.246   1.338   0.287  0.00  0.00    +0.045 C 
ATOM     28  C   UNL     1      -0.480   0.343  -0.580  0.00  0.00    -0.029 A 
ATOM     29  C   UNL     1       0.177  -0.785  -1.021  0.00  0.00    +0.051 A 
ATOM     30  C   UNL     1      -0.488  -1.706  -1.822  0.00  0.00    +0.137 A 
ATOM     31  C   UNL     1      -1.832  -1.468  -2.170  0.00  0.00    +0.025 A 
ATOM     32  C   UNL     1      -2.481  -0.319  -1.713  0.00  0.00    +0.032 A 
ATOM     33  C   UNL     1      -1.808   0.570  -0.922  0.00  0.00    +0.045 A 
ATOM     34 CL   UNL     1      -2.614   1.996  -0.346  0.00  0.00    -0.083 Cl
ATOM     35  C   UNL     1      -2.232  -2.602  -3.002  0.00  0.00    +0.010 A 
ATOM     36  C   UNL     1      -1.141  -3.408  -3.090  0.00  0.00    +0.216 A 
ATOM     37  O   UNL     1      -0.120  -2.870  -2.391  0.00  0.00    -0.448 OA
ATOM     38  C   UNL     1      -3.581  -2.831  -3.633  0.00  0.00    +0.048 C 
ENDBRANCH  25  36
ENDBRANCH  24  25
ENDBRANCH   1  24
TORSDOF 7
