REMARK  Name = ZINC28465767
REMARK  9 active torsions:
REMARK  status: ('A' for Active; 'I' for Inactive)
REMARK    1  A    between atoms: C_1  and  C_2
REMARK    2  A    between atoms: C_2  and  O_3
REMARK    3  A    between atoms: O_3  and  C_4
REMARK    4  A    between atoms: C_4  and  C_6
REMARK    5  A    between atoms: C_8  and  C_20
REMARK    6  A    between atoms: C_14  and  C_15
REMARK    7  A    between atoms: C_14  and  O_19
REMARK    8  A    between atoms: N_22  and  C_30
REMARK    9  A    between atoms: C_24  and  C_25
REMARK                            x       y       z     vdW  Elec       q    Type
REMARK                         _______ _______ _______ _____ _____    ______ ____
ROOT
ATOM      1  C   UNL     1       3.028   2.924   2.880  0.00  0.00    +0.181 C 
ATOM      2  C   UNL     1       3.342   3.282   1.423  0.00  0.00    +0.127 C 
ATOM      3  N   UNL     1       4.244   4.435   1.394  0.00  0.00    -0.291 N 
ATOM      4  C   UNL     1       5.107   4.670   2.394  0.00  0.00    +0.302 C 
ATOM      5  O   UNL     1       5.840   5.637   2.316  0.00  0.00    -0.253 OA
ATOM      6  N   UNL     1       5.195   3.880   3.474  0.00  0.00    -0.264 N 
ATOM      7  C   UNL     1       4.349   2.694   3.622  0.00  0.00    +0.246 C 
ATOM      8  H   UNL     1       4.221   5.129   0.541  0.00  0.00    +0.151 HD
ATOM      9  H   UNL     1       5.921   4.138   4.259  0.00  0.00    +0.153 HD
ENDROOT
BRANCH   2  10
ATOM     10  C   UNL     1       2.064   3.623   0.702  0.00  0.00    +0.020 A 
ATOM     11  C   UNL     1       1.605   4.866   0.443  0.00  0.00    +0.120 A 
ATOM     12  N   UNL     1       0.426   4.747  -0.223  0.00  0.00    -0.239 N 
ATOM     13  N   UNL     1       0.155   3.382  -0.383  0.00  0.00    -0.166 NA
ATOM     14  C   UNL     1       1.135   2.700   0.177  0.00  0.00    +0.105 A 
BRANCH  12  15
ATOM     15  C   UNL     1      -0.374   5.803  -0.675  0.00  0.00    +0.065 A 
ATOM     16  C   UNL     1       0.015   7.117  -0.449  0.00  0.00    +0.028 A 
ATOM     17  C   UNL     1      -0.774   8.157  -0.901  0.00  0.00    +0.002 A 
ATOM     18  C   UNL     1      -1.956   7.891  -1.568  0.00  0.00    +0.000 A 
ATOM     19  C   UNL     1      -2.349   6.583  -1.790  0.00  0.00    +0.002 A 
ATOM     20  C   UNL     1      -1.561   5.539  -1.346  0.00  0.00    +0.028 A 
ENDBRANCH  12  15
BRANCH  14  21
ATOM     21  C   UNL     1       1.245   1.227   0.238  0.00  0.00    +0.040 A 
ATOM     22  C   UNL     1       0.253   0.293   0.378  0.00  0.00    +0.018 A 
ATOM     23  C   UNL     1       0.599  -1.040   0.409  0.00  0.00    +0.008 A 
ATOM     24  C   UNL     1       1.907  -1.387   0.300  0.00  0.00    +0.046 A 
ATOM     25  S   UNL     1       2.704   0.203   0.147  0.00  0.00    -0.095 S 
ENDBRANCH  14  21
ENDBRANCH   2  10
BRANCH   7  26
ATOM     26  C   UNL     1       4.067   2.449   5.105  0.00  0.00    +0.436 C 
ATOM     27  F   UNL     1       3.148   1.402   5.238  0.00  0.00    -0.166 F 
ATOM     28  F   UNL     1       5.257   2.109   5.756  0.00  0.00    -0.166 F 
ATOM     29  F   UNL     1       3.537   3.610   5.677  0.00  0.00    -0.166 F 
ENDBRANCH   7  26
BRANCH   1  30
ATOM     30  C   UNL     1       2.274   4.057   3.528  0.00  0.00    +0.317 C 
ATOM     31  O   UNL     1       2.600   5.200   3.312  0.00  0.00    -0.250 OA
BRANCH  30  32
ATOM     32  O   UNL     1       1.242   3.796   4.345  0.00  0.00    -0.465 OA
BRANCH  32  34
ATOM     33  C   UNL     1      -0.578   4.444   5.827  0.00  0.00    +0.048 C 
ATOM     34  C   UNL     1       0.562   4.936   4.934  0.00  0.00    +0.229 C 
ENDBRANCH  32  34
ENDBRANCH  30  32
ENDBRANCH   1  30
BRANCH   7  35
ATOM     35  O   UNL     1       5.016   1.558   3.068  0.00  0.00    -0.364 OA
ATOM     36  H   UNL     1       5.987   1.238   3.475  0.00  0.00    +0.212 HD
ENDBRANCH   7  35
TORSDOF 8
