REMARK  Name = ZINC04073684
REMARK  5 active torsions:
REMARK  status: ('A' for Active; 'I' for Inactive)
REMARK    1  A    between atoms: C_1  and  C_2
REMARK    2  A    between atoms: C_3  and  O_16
REMARK    3  A    between atoms: O_16  and  C_17
REMARK    4  A    between atoms: C_17  and  C_18
REMARK    5  A    between atoms: C_23  and  O_31
REMARK                            x       y       z     vdW  Elec       q    Type
REMARK                         _______ _______ _______ _____ _____    ______ ____
ROOT
ATOM      1  O   UNL     1      -5.325   1.449  -4.486  0.00  0.00    -0.482 OA
ENDROOT
BRANCH   1   4
ATOM      2  C   UNL     1      -6.086   0.082  -6.830  0.00  0.00    +0.051 C 
ATOM      3  C   UNL     1      -7.038   0.332  -5.689  0.00  0.00    +0.034 A 
ATOM      4  C   UNL     1      -6.608   1.010  -4.560  0.00  0.00    +0.128 A 
ATOM      5  C   UNL     1      -7.482   1.250  -3.502  0.00  0.00    +0.047 A 
ATOM      6  C   UNL     1      -8.775   0.817  -3.561  0.00  0.00    +0.015 A 
ATOM      7  C   UNL     1      -9.225   0.126  -4.692  0.00  0.00    +0.022 A 
ATOM      8  C   UNL     1      -8.346  -0.121  -5.763  0.00  0.00    +0.146 A 
ATOM      9  O   UNL     1      -8.787  -0.788  -6.851  0.00  0.00    -0.422 OA
ATOM     10  C   UNL     1     -10.052  -1.226  -6.940  0.00  0.00    +0.341 A 
ATOM     11  O   UNL     1     -10.402  -1.823  -7.941  0.00  0.00    -0.245 OA
ATOM     12  C   UNL     1     -10.989  -1.013  -5.904  0.00  0.00    +0.041 A 
ATOM     13  C   UNL     1     -10.608  -0.349  -4.784  0.00  0.00    -0.027 A 
ATOM     14  C   UNL     1     -11.765  -0.239  -3.818  0.00  0.00    +0.036 C 
ATOM     15  C   UNL     1     -13.022  -0.539  -4.663  0.00  0.00    +0.010 C 
ATOM     16  C   UNL     1     -12.444  -1.415  -5.797  0.00  0.00    +0.043 C 
ENDBRANCH   1   4
BRANCH   1  17
ATOM     17  C   UNL     1      -4.945   2.147  -3.299  0.00  0.00    +0.324 C 
BRANCH  17  18
ATOM     18  C   UNL     1      -3.498   2.554  -3.396  0.00  0.00    +0.253 C 
ATOM     19  O   UNL     1      -2.855   2.275  -4.386  0.00  0.00    -0.272 OA
ATOM     20  N   UNL     1      -2.918   3.229  -2.384  0.00  0.00    -0.298 N 
ATOM     21  C   UNL     1      -3.683   3.576  -1.179  0.00  0.00    +0.110 C 
ATOM     22  C   UNL     1      -2.928   3.059   0.049  0.00  0.00    +0.054 C 
ATOM     23  C   UNL     1      -1.500   3.611   0.036  0.00  0.00    +0.072 C 
ATOM     24  C   UNL     1      -0.754   3.109   1.275  0.00  0.00    +0.035 C 
ATOM     25  C   UNL     1      -0.728   1.579   1.267  0.00  0.00    +0.003 C 
ATOM     26  C   UNL     1      -0.013   1.086   0.008  0.00  0.00    +0.001 C 
ATOM     27  C   UNL     1      -0.752   1.593  -1.232  0.00  0.00    +0.008 C 
ATOM     28  C   UNL     1      -0.775   3.122  -1.221  0.00  0.00    +0.038 C 
ATOM     29  C   UNL     1      -1.508   3.633  -2.464  0.00  0.00    +0.114 C 
BRANCH  23  30
ATOM     30  O   UNL     1      -1.533   5.039   0.044  0.00  0.00    -0.388 OA
ATOM     31  H   UNL     1      -1.979   5.418   0.814  0.00  0.00    +0.210 HD
ENDBRANCH  23  30
ENDBRANCH  17  18
ENDBRANCH   1  17
TORSDOF 4
