REMARK  Name = ZINC39363152
REMARK  7 active torsions:
REMARK  status: ('A' for Active; 'I' for Inactive)
REMARK    1  A    between atoms: C_1  and  C_2
REMARK    2  A    between atoms: C_7  and  C_8
REMARK    3  A    between atoms: C_8  and  S_9
REMARK    4  A    between atoms: S_9  and  C_10
REMARK    5  A    between atoms: C_13  and  C_23
REMARK    6  A    between atoms: N_15  and  C_16
REMARK    7  A    between atoms: C_23  and  C_24
REMARK                            x       y       z     vdW  Elec       q    Type
REMARK                         _______ _______ _______ _____ _____    ______ ____
ROOT
ATOM      1  C   UNL     1      -1.522   1.399   4.476  0.00  0.00    +0.180 C 
ATOM      2  N   UNL     1      -0.386   1.664   5.027  0.00  0.00    -0.162 NA
ATOM      3  N   UNL     1      -0.546   2.091   6.351  0.00  0.00    -0.246 N 
ATOM      4  C   UNL     1      -1.995   2.073   6.616  0.00  0.00    +0.187 C 
ATOM      5  N   UNL     1      -2.582   1.615   5.346  0.00  0.00    -0.258 N 
ATOM      6  H   UNL     1       0.156   2.346   6.970  0.00  0.00    +0.170 HD
ENDROOT
BRANCH   5   7
ATOM      7  C   UNL     1      -3.940   1.433   5.070  0.00  0.00    +0.038 A 
ATOM      8  C   UNL     1      -4.794   2.527   5.023  0.00  0.00    +0.025 A 
ATOM      9  C   UNL     1      -6.135   2.344   4.751  0.00  0.00    +0.022 A 
ATOM     10  C   UNL     1      -6.629   1.071   4.525  0.00  0.00    +0.041 A 
ATOM     11  C   UNL     1      -5.780  -0.022   4.571  0.00  0.00    +0.022 A 
ATOM     12  C   UNL     1      -4.437   0.156   4.837  0.00  0.00    +0.025 A 
ATOM     13 CL   UNL     1      -8.316   0.844   4.183  0.00  0.00    -0.084 Cl
ENDBRANCH   5   7
BRANCH   1  14
ATOM     14  S   UNL     1      -1.707   0.836   2.816  0.00  0.00    -0.084 S 
BRANCH  14  15
ATOM     15  C   UNL     1      -0.006   0.744   2.193  0.00  0.00    +0.112 C 
BRANCH  15  22
ATOM     16  C   UNL     1      -0.179   2.659   0.036  0.00  0.00    +0.044 C 
ATOM     17  C   UNL     1      -0.103   1.186  -0.269  0.00  0.00    -0.046 A 
ATOM     18  C   UNL     1      -0.110   0.750  -1.581  0.00  0.00    +0.003 A 
ATOM     19  C   UNL     1      -0.041  -0.601  -1.861  0.00  0.00    +0.000 A 
ATOM     20  C   UNL     1       0.037  -1.518  -0.829  0.00  0.00    +0.000 A 
ATOM     21  C   UNL     1       0.046  -1.083   0.482  0.00  0.00    +0.005 A 
ATOM     22  C   UNL     1      -0.020   0.269   0.762  0.00  0.00    -0.034 A 
ENDBRANCH  15  22
ENDBRANCH  14  15
ENDBRANCH   1  14
BRANCH   4  23
ATOM     23  C   UNL     1      -2.322   1.098   7.749  0.00  0.00    +0.097 C 
BRANCH  23  24
ATOM     24  C   UNL     1      -1.731   1.609   9.038  0.00  0.00    +0.029 A 
ATOM     25  N   UNL     1      -0.427   1.338   9.352  0.00  0.00    -0.311 N 
ATOM     26  C   UNL     1       0.110   1.790  10.499  0.00  0.00    +0.327 A 
ATOM     27  O   UNL     1       1.271   1.538  10.758  0.00  0.00    -0.247 OA
ATOM     28  N   UNL     1      -0.619   2.519  11.365  0.00  0.00    -0.275 N 
ATOM     29  C   UNL     1      -1.908   2.808  11.092  0.00  0.00    +0.254 A 
ATOM     30  O   UNL     1      -2.569   3.466  11.875  0.00  0.00    -0.268 OA
ATOM     31  C   UNL     1      -2.484   2.342   9.886  0.00  0.00    +0.091 A 
ATOM     32  H   UNL     1      -0.217   2.837  12.188  0.00  0.00    +0.173 HD
ATOM     33  H   UNL     1       0.115   0.815   8.741  0.00  0.00    +0.170 HD
ENDBRANCH  23  24
ENDBRANCH   4  23
TORSDOF 6
