REMARK  Name = ZINC44593622
REMARK  5 active torsions:
REMARK  status: ('A' for Active; 'I' for Inactive)
REMARK    1  A    between atoms: C_1  and  N_2
REMARK    2  A    between atoms: C_3  and  N_7
REMARK    3  A    between atoms: N_7  and  S_8
REMARK    4  A    between atoms: S_8  and  C_11
REMARK    5  A    between atoms: C_13  and  C_18
REMARK                            x       y       z     vdW  Elec       q    Type
REMARK                         _______ _______ _______ _____ _____    ______ ____
ROOT
ATOM      1  S   UNL     1      -0.072  -1.540  -3.582  0.00  0.00    +0.075 S 
ATOM      2  O   UNL     1      -0.039  -0.953  -4.876  0.00  0.00    -0.150 OA
ATOM      3  O   UNL     1       0.903  -2.477  -3.145  0.00  0.00    -0.150 OA
ENDROOT
BRANCH   1   4
ATOM      4  C   UNL     1      -1.637  -2.334  -3.429  0.00  0.00    +0.123 A 
ATOM      5  C   UNL     1      -2.517  -2.331  -4.491  0.00  0.00    +0.045 A 
ATOM      6  C   UNL     1      -3.758  -2.961  -4.368  0.00  0.00    +0.065 A 
ATOM      7  C   UNL     1      -4.099  -3.591  -3.168  0.00  0.00    +0.016 A 
ATOM      8  C   UNL     1      -3.210  -3.587  -2.114  0.00  0.00    +0.018 A 
ATOM      9  C   UNL     1      -1.979  -2.965  -2.245  0.00  0.00    +0.044 A 
ATOM     10 BR   UNL     1      -0.763  -2.972  -0.797  0.00  0.00    -0.048 Br
BRANCH   6  11
ATOM     11  C   UNL     1      -4.704  -2.961  -5.499  0.00  0.00    +0.387 C 
ATOM     12  O   UNL     1      -4.403  -2.408  -6.548  0.00  0.00    -0.241 OA
ATOM     13  O   UNL     1      -5.790  -3.513  -5.389  0.00  0.00    -0.241 OA
ENDBRANCH   6  11
ENDBRANCH   1   4
BRANCH   1  14
ATOM     14  N   UNL     1      -0.048  -0.291  -2.495  0.00  0.00    -0.200 N 
ATOM     15  H   UNL     1       0.595  -0.292  -1.769  0.00  0.00    +0.175 HD
BRANCH  14  18
ATOM     16  C   UNL     1      -0.374   1.982  -0.506  0.00  0.00    +0.174 C 
ATOM     17  N   UNL     1      -1.116   1.783  -1.754  0.00  0.00    -0.252 N 
ATOM     18  C   UNL     1      -0.951   0.761  -2.623  0.00  0.00    +0.136 A 
ATOM     19  C   UNL     1      -1.830   0.947  -3.647  0.00  0.00    +0.066 A 
ATOM     20  C   UNL     1      -2.547   2.118  -3.388  0.00  0.00    +0.136 A 
ATOM     21  N   UNL     1      -2.125   2.616  -2.253  0.00  0.00    -0.178 NA
ENDBRANCH  14  18
ENDBRANCH   1  14
TORSDOF 4
