REMARK  Name = ZINC24882710
REMARK  9 active torsions:
REMARK  status: ('A' for Active; 'I' for Inactive)
REMARK    1  A    between atoms: C_1  and  C_2
REMARK    2  A    between atoms: N_13  and  C_30
REMARK    3  A    between atoms: C_14  and  S_16
REMARK    4  A    between atoms: S_16  and  C_17
REMARK    5  A    between atoms: C_17  and  C_19
REMARK    6  A    between atoms: C_17  and  C_20
REMARK    7  A    between atoms: N_26  and  C_27
REMARK    8  A    between atoms: N_26  and  C_28
REMARK    9  A    between atoms: C_30  and  C_31
REMARK                            x       y       z     vdW  Elec       q    Type
REMARK                         _______ _______ _______ _____ _____    ______ ____
ROOT
ATOM      1  C   UNL     1      -3.824  -1.601  -8.810  0.00  0.00    +0.008 C 
ATOM      2  C   UNL     1      -3.611  -1.793  -7.307  0.00  0.00    -0.009 C 
ATOM      3  C   UNL     1      -2.943  -0.547  -6.716  0.00  0.00    +0.008 C 
ATOM      4  C   UNL     1      -2.954  -0.627  -5.190  0.00  0.00    +0.037 C 
ATOM      5  C   UNL     1      -2.350  -1.962  -4.763  0.00  0.00    -0.023 A 
ATOM      6  C   UNL     1      -2.258  -2.987  -5.634  0.00  0.00    -0.004 A 
ATOM      7  S   UNL     1      -1.509  -4.306  -4.716  0.00  0.00    -0.073 S 
ATOM      8  C   UNL     1      -1.321  -3.474  -3.159  0.00  0.00    +0.117 A 
ATOM      9  C   UNL     1      -1.849  -2.196  -3.407  0.00  0.00    +0.076 A 
ATOM     10  C   UNL     1      -1.832  -1.289  -2.300  0.00  0.00    +0.263 A 
ATOM     11  O   UNL     1      -2.274  -0.159  -2.420  0.00  0.00    -0.267 OA
ATOM     12  N   UNL     1      -1.318  -1.700  -1.126  0.00  0.00    -0.283 N 
ATOM     13  C   UNL     1      -0.824  -2.963  -0.972  0.00  0.00    +0.174 A 
ATOM     14  N   UNL     1      -0.832  -3.819  -1.974  0.00  0.00    -0.216 NA
ATOM     15  C   UNL     1      -2.696  -3.003  -7.067  0.00  0.00    +0.046 C 
ENDROOT
BRANCH  13  16
ATOM     16  S   UNL     1      -0.168  -3.456   0.587  0.00  0.00    -0.077 S 
BRANCH  16  17
ATOM     17  C   UNL     1       0.314  -5.157   0.201  0.00  0.00    +0.119 C 
ATOM     18  C   UNL     1      -0.936  -5.983  -0.112  0.00  0.00    +0.028 C 
BRANCH  17  19
ATOM     19  C   UNL     1       1.029  -5.757   1.385  0.00  0.00    +0.149 A 
ATOM     20  N   UNL     1       0.541  -5.592   2.602  0.00  0.00    -0.198 NA
ATOM     21  C   UNL     1       1.170  -6.121   3.650  0.00  0.00    +0.217 A 
ATOM     22  N   UNL     1       2.288  -6.815   3.470  0.00  0.00    -0.181 NA
ATOM     23  C   UNL     1       2.775  -6.979   2.245  0.00  0.00    +0.222 A 
ATOM     24  N   UNL     1       2.138  -6.452   1.202  0.00  0.00    -0.198 NA
ATOM     25  N   UNL     1       3.936  -7.699   2.054  0.00  0.00    -0.306 N 
ATOM     26  C   UNL     1       4.633  -8.284   3.202  0.00  0.00    +0.132 C 
ATOM     27  C   UNL     1       4.472  -7.879   0.702  0.00  0.00    +0.132 C 
ATOM     28  N   UNL     1       0.660  -5.948   4.920  0.00  0.00    -0.327 N 
ATOM     29  H   UNL     1       1.180  -6.385   5.786  0.00  0.00    +0.145 HD
ATOM     30  H   UNL     1      -0.266  -5.373   5.068  0.00  0.00    +0.145 HD
ENDBRANCH  17  19
ENDBRANCH  16  17
ENDBRANCH  13  16
BRANCH  12  31
ATOM     31  C   UNL     1      -1.293  -0.775   0.010  0.00  0.00    +0.154 C 
BRANCH  31  32
ATOM     32  C   UNL     1       0.002  -0.004   0.002  0.00  0.00    -0.013 C 
ATOM     33  C   UNL     1      -0.016   1.306   0.009  0.00  0.00    +0.005 C 
ENDBRANCH  31  32
ENDBRANCH  12  31
TORSDOF 5
