REMARK  Name = ZINC52430692
REMARK  6 active torsions:
REMARK  status: ('A' for Active; 'I' for Inactive)
REMARK    1  A    between atoms: C_1  and  C_2
REMARK    2  A    between atoms: C_2  and  C_4
REMARK    3  A    between atoms: C_2  and  N_10
REMARK    4  A    between atoms: C_11  and  C_13
REMARK    5  A    between atoms: C_13  and  N_14
REMARK    6  A    between atoms: C_15  and  C_20
REMARK                            x       y       z     vdW  Elec       q    Type
REMARK                         _______ _______ _______ _____ _____    ______ ____
ROOT
ATOM      1  N   UNL     1       4.220  -1.123   2.111  0.00  0.00    -0.293 N 
ATOM      2  C   UNL     1       4.966  -2.200   1.690  0.00  0.00    +0.165 A 
ATOM      3  N   UNL     1       6.210  -1.793   1.595  0.00  0.00    -0.128 NA
ATOM      4  N   UNL     1       6.293  -0.553   1.923  0.00  0.00    -0.121 NA
ATOM      5  C   UNL     1       5.104  -0.090   2.242  0.00  0.00    +0.203 A 
ATOM      6  S   UNL     1       4.724   1.554   2.748  0.00  0.00    -0.009 SA
ENDROOT
BRANCH   2   7
ATOM      7  C   UNL     1       4.462  -3.559   1.401  0.00  0.00    +0.019 A 
ATOM      8  C   UNL     1       3.104  -3.763   1.148  0.00  0.00    +0.013 A 
ATOM      9  C   UNL     1       2.639  -5.034   0.878  0.00  0.00    +0.021 A 
ATOM     10  C   UNL     1       3.517  -6.105   0.858  0.00  0.00    +0.041 A 
ATOM     11  C   UNL     1       4.864  -5.908   1.107  0.00  0.00    +0.021 A 
ATOM     12  C   UNL     1       5.342  -4.642   1.373  0.00  0.00    +0.013 A 
ATOM     13 CL   UNL     1       2.924  -7.701   0.518  0.00  0.00    -0.084 Cl
ENDBRANCH   2   7
BRANCH   1  14
ATOM     14  C   UNL     1       2.777  -1.089   2.360  0.00  0.00    +0.221 C 
BRANCH  14  16
ATOM     15  N   UNL     1       0.715  -0.579   1.092  0.00  0.00    -0.309 N 
ATOM     16  C   UNL     1       2.059  -0.679   1.100  0.00  0.00    +0.233 C 
ATOM     17  O   UNL     1       2.691  -0.438   0.093  0.00  0.00    -0.274 OA
ATOM     18  H   UNL     1       0.209  -0.772   1.897  0.00  0.00    +0.149 HD
BRANCH  15  20
ATOM     19  C   UNL     1      -0.016   1.347  -0.226  0.00  0.00    +0.030 C 
ATOM     20  C   UNL     1       0.017  -0.180  -0.133  0.00  0.00    +0.099 C 
BRANCH  20  21
ATOM     21  C   UNL     1      -1.414  -0.720  -0.103  0.00  0.00    +0.138 C 
ATOM     22  C   UNL     1      -1.407  -2.248   0.152  0.00  0.00    +0.035 C 
ATOM     23  C   UNL     1      -2.817  -2.450   0.771  0.00  0.00    +0.031 C 
ATOM     24  C   UNL     1      -3.019  -1.138   1.560  0.00  0.00    +0.160 C 
ATOM     25  O   UNL     1      -2.137  -0.156   1.002  0.00  0.00    -0.375 OA
ENDBRANCH  20  21
ENDBRANCH  15  20
ENDBRANCH  14  16
ENDBRANCH   1  14
TORSDOF 5
