REMARK  Name = ZINC36155972
REMARK  16 active torsions:
REMARK  status: ('A' for Active; 'I' for Inactive)
REMARK    1  A    between atoms: C_1  and  C_2
REMARK    2  A    between atoms: C_2  and  C_3
REMARK    3  A    between atoms: C_2  and  C_4
REMARK    4  A    between atoms: C_4  and  O_5
REMARK    5  A    between atoms: O_5  and  C_6
REMARK    6  A    between atoms: C_6  and  C_7
REMARK    7  A    between atoms: C_7  and  C_9
REMARK    8  A    between atoms: C_7  and  O_37
REMARK    9  A    between atoms: C_9  and  N_10
REMARK   10  A    between atoms: N_10  and  C_11
REMARK   11  A    between atoms: N_10  and  C_34
REMARK   12  A    between atoms: C_11  and  C_12
REMARK   13  A    between atoms: N_24  and  C_27
REMARK   14  A    between atoms: C_27  and  C_28
REMARK   15  A    between atoms: C_34  and  C_35
REMARK   16  A    between atoms: C_34  and  C_36
REMARK                            x       y       z     vdW  Elec       q    Type
REMARK                         _______ _______ _______ _____ _____    ______ ____
ROOT
ATOM      1  C   UNL     1      -4.437  -8.573  -0.477  0.00  0.00    +0.094 A 
ATOM      2  N   UNL     1      -5.352  -9.543  -0.732  0.00  0.00    -0.312 N 
ATOM      3  H   UNL     1      -6.291  -9.306  -0.795  0.00  0.00    +0.170 HD
ATOM      4  C   UNL     1      -4.984 -10.827  -0.900  0.00  0.00    +0.260 A 
ATOM      5  O   UNL     1      -5.819 -11.685  -1.130  0.00  0.00    -0.267 OA
ATOM      6  C   UNL     1      -3.595 -11.168  -0.805  0.00  0.00    +0.075 A 
ATOM      7  C   UNL     1      -2.969 -12.479  -0.949  0.00  0.00    -0.020 A 
ATOM      8  C   UNL     1      -1.625 -12.537  -0.812  0.00  0.00    +0.010 A 
ATOM      9  S   UNL     1      -1.126 -10.869  -0.491  0.00  0.00    -0.072 S 
ATOM     10  C   UNL     1      -2.725 -10.099  -0.538  0.00  0.00    +0.116 A 
ATOM     11  N   UNL     1      -3.163  -8.852  -0.390  0.00  0.00    -0.229 NA
ATOM     12  C   UNL     1      -0.769 -13.761  -0.913  0.00  0.00    +0.127 C 
ATOM     13  N   UNL     1      -1.646 -14.945  -0.832  0.00  0.00    -0.293 NA
ATOM     14  C   UNL     1      -2.781 -14.813  -1.756  0.00  0.00    +0.090 C 
ATOM     15  C   UNL     1      -3.758 -13.753  -1.241  0.00  0.00    +0.052 C 
ENDROOT
BRANCH   1  16
ATOM     16  C   UNL     1      -4.897  -7.150  -0.296  0.00  0.00    -0.003 C 
BRANCH  16  17
ATOM     17  N   UNL     1      -3.765  -6.321   0.139  0.00  0.00    +0.388 N 
ATOM     18  H   UNL     1      -2.914  -6.669  -0.276  0.00  0.00    -0.081 HD
BRANCH  17  19
ATOM     19  C   UNL     1      -3.654  -6.373   1.603  0.00  0.00    -0.074 C 
ATOM     20  C   UNL     1      -4.914  -5.776   2.232  0.00  0.00    -0.014 C 
ATOM     21  C   UNL     1      -3.500  -7.828   2.051  0.00  0.00    -0.014 C 
ENDBRANCH  17  19
BRANCH  17  22
ATOM     22  C   UNL     1      -3.984  -4.932  -0.286  0.00  0.00    -0.044 C 
BRANCH  22  23
ATOM     23  C   UNL     1      -2.759  -4.089   0.075  0.00  0.00    +0.124 C 
BRANCH  23  24
ATOM     24  O   UNL     1      -1.610  -4.607  -0.600  0.00  0.00    -0.391 OA
ATOM     25  H   UNL     1      -1.685  -4.603  -1.564  0.00  0.00    +0.210 HD
ENDBRANCH  23  24
BRANCH  23  26
ATOM     26  C   UNL     1      -2.992  -2.639  -0.355  0.00  0.00    +0.189 C 
BRANCH  26  27
ATOM     27  O   UNL     1      -1.899  -1.830   0.085  0.00  0.00    -0.377 OA
BRANCH  27  28
ATOM     28  C   UNL     1      -2.019  -0.451  -0.267  0.00  0.00    +0.163 C 
BRANCH  28  30
ATOM     29  C   UNL     1      -0.867   1.766  -0.232  0.00  0.00    +0.009 C 
ATOM     30  C   UNL     1      -0.801   0.316   0.251  0.00  0.00    +0.009 C 
ATOM     31  C   UNL     1      -0.793   0.287   1.781  0.00  0.00    +0.009 C 
ENDBRANCH  28  30
ENDBRANCH  27  28
ENDBRANCH  26  27
ENDBRANCH  23  26
ENDBRANCH  22  23
ENDBRANCH  17  22
ENDBRANCH  16  17
ENDBRANCH   1  16
BRANCH  13  32
ATOM     32  C   UNL     1      -0.892 -16.178  -1.096  0.00  0.00    +0.120 C 
BRANCH  32  33
ATOM     33  C   UNL     1       0.113 -16.398   0.005  0.00  0.00    -0.033 A 
ATOM     34  C   UNL     1       1.384 -15.866  -0.102  0.00  0.00    +0.005 A 
ATOM     35  C   UNL     1       2.305 -16.069   0.909  0.00  0.00    +0.000 A 
ATOM     36  C   UNL     1       1.955 -16.803   2.026  0.00  0.00    +0.000 A 
ATOM     37  C   UNL     1       0.684 -17.335   2.134  0.00  0.00    +0.000 A 
ATOM     38  C   UNL     1      -0.239 -17.128   1.125  0.00  0.00    +0.005 A 
ENDBRANCH  32  33
ENDBRANCH  13  32
TORSDOF 12
