REMARK  Name = ZINC51017748
REMARK  4 active torsions:
REMARK  status: ('A' for Active; 'I' for Inactive)
REMARK    1  A    between atoms: C_3  and  N_21
REMARK    2  A    between atoms: C_6  and  C_7
REMARK    3  A    between atoms: N_11  and  C_12
REMARK    4  A    between atoms: C_12  and  C_13
REMARK                            x       y       z     vdW  Elec       q    Type
REMARK                         _______ _______ _______ _____ _____    ______ ____
ROOT
ATOM      1  C   UNL     1      -1.278  -0.704  -0.169  0.00  0.00    +0.182 A 
ATOM      2  N   UNL     1      -2.468  -0.217   0.116  0.00  0.00    -0.108 NA
ATOM      3  N   UNL     1      -3.365  -1.131   0.013  0.00  0.00    -0.023 NA
ATOM      4  N   UNL     1      -2.828  -2.249  -0.338  0.00  0.00    -0.043 NA
ATOM      5  N   UNL     1      -1.449  -2.014  -0.475  0.00  0.00    -0.221 N 
ENDROOT
BRANCH   1  11
ATOM      6  C   UNL     1      -0.001   1.435  -0.181  0.00  0.00    +0.013 A 
ATOM      7  C   UNL     1       1.192   2.124  -0.174  0.00  0.00    +0.023 A 
ATOM      8  C   UNL     1       2.397   1.430  -0.147  0.00  0.00    +0.025 A 
ATOM      9  C   UNL     1       2.402   0.040  -0.128  0.00  0.00    +0.023 A 
ATOM     10  C   UNL     1       1.212  -0.655  -0.135  0.00  0.00    +0.013 A 
ATOM     11  C   UNL     1       0.001   0.039  -0.161  0.00  0.00    +0.021 A 
BRANCH   8  12
ATOM     12  N   UNL     1       3.603   2.130  -0.141  0.00  0.00    -0.358 N 
ATOM     13  H   UNL     1       3.600   3.100  -0.155  0.00  0.00    +0.142 HD
ATOM     14  H   UNL     1       4.444   1.648  -0.123  0.00  0.00    +0.142 HD
ENDBRANCH   8  12
ENDBRANCH   1  11
BRANCH   5  15
ATOM     15  C   UNL     1      -0.416  -2.978  -0.864  0.00  0.00    +0.185 C 
BRANCH  15  16
ATOM     16  C   UNL     1      -1.068  -4.271  -1.280  0.00  0.00    +0.009 A 
ATOM     17  C   UNL     1      -1.224  -5.293  -0.363  0.00  0.00    +0.011 A 
ATOM     18  C   UNL     1      -1.822  -6.480  -0.743  0.00  0.00    +0.039 A 
ATOM     19  C   UNL     1      -2.266  -6.646  -2.044  0.00  0.00    +0.126 A 
ATOM     20  C   UNL     1      -2.110  -5.624  -2.964  0.00  0.00    +0.077 A 
ATOM     21  C   UNL     1      -1.516  -4.434  -2.581  0.00  0.00    +0.131 A 
ATOM     22  F   UNL     1      -1.368  -3.433  -3.476  0.00  0.00    -0.205 F 
ATOM     23  F   UNL     1      -2.850  -7.806  -2.416  0.00  0.00    -0.205 F 
ENDBRANCH  15  16
ENDBRANCH   5  15
TORSDOF 4
