REMARK  Name = ZINC36265570
REMARK  3 active torsions:
REMARK  status: ('A' for Active; 'I' for Inactive)
REMARK    1  A    between atoms: C_3  and  S_11
REMARK    2  A    between atoms: C_4  and  N_8
REMARK    3  A    between atoms: S_11  and  N_14
REMARK                            x       y       z     vdW  Elec       q    Type
REMARK                         _______ _______ _______ _____ _____    ______ ____
ROOT
ATOM      1  S   UNL     1       4.133   1.690   0.300  0.00  0.00    +0.063 S 
ATOM      2  O   UNL     1       4.836   0.979  -0.710  0.00  0.00    -0.153 OA
ATOM      3  O   UNL     1       4.156   3.108   0.389  0.00  0.00    -0.153 OA
ENDROOT
BRANCH   1   4
ATOM      4  N   UNL     1       4.681   1.115   1.753  0.00  0.00    -0.175 NA
ATOM      5  C   UNL     1       4.479   1.762   3.062  0.00  0.00    +0.110 C 
ATOM      6  C   UNL     1       4.567   0.608   4.090  0.00  0.00    +0.020 C 
ATOM      7  C   UNL     1       5.676  -0.283   3.476  0.00  0.00    -0.010 C 
ATOM      8  C   UNL     1       5.443  -0.125   1.948  0.00  0.00    +0.064 C 
ATOM      9  C   UNL     1       4.536  -1.331   1.603  0.00  0.00    -0.062 C 
ATOM     10  N   UNL     1       5.034  -2.409   2.493  0.00  0.00    +0.380 N 
ATOM     11  C   UNL     1       5.362  -1.755   3.794  0.00  0.00    -0.078 C 
ATOM     12  H   UNL     1       4.320  -3.111   2.621  0.00  0.00    -0.086 HD
ATOM     13  H   UNL     1       5.867  -2.825   2.104  0.00  0.00    -0.086 HD
ENDBRANCH   1   4
BRANCH   1  16
ATOM     14  C   UNL     1       0.429   0.394   1.161  0.00  0.00    +0.040 A 
ATOM     15  C   UNL     1       1.757   0.762   1.269  0.00  0.00    +0.033 A 
ATOM     16  C   UNL     1       2.440   1.222   0.159  0.00  0.00    +0.136 A 
ATOM     17  C   UNL     1       1.796   1.316  -1.061  0.00  0.00    +0.155 A 
ATOM     18  C   UNL     1       0.469   0.949  -1.172  0.00  0.00    +0.073 A 
ATOM     19  C   UNL     1      -0.217   0.487  -0.061  0.00  0.00    +0.126 A 
ATOM     20  F   UNL     1      -1.515   0.128  -0.168  0.00  0.00    -0.205 F 
BRANCH  17  21
ATOM     21  N   UNL     1       2.529   1.810  -2.248  0.00  0.00    +0.058 N 
ATOM     22  O   UNL     1       2.010   1.769  -3.339  0.00  0.00    -0.126 OA
ATOM     23  O   UNL     1       3.647   2.254  -2.127  0.00  0.00    -0.126 OA
ENDBRANCH  17  21
ENDBRANCH   1  16
TORSDOF 3
