REMARK  Name = ZINC13500529
REMARK  18 active torsions:
REMARK  status: ('A' for Active; 'I' for Inactive)
REMARK    1  A    between atoms: C_1  and  C_2
REMARK    2  A    between atoms: C_2  and  C_3
REMARK    3  A    between atoms: C_3  and  C_4
REMARK    4  A    between atoms: C_3  and  C_5
REMARK    5  A    between atoms: C_3  and  N_6
REMARK    6  A    between atoms: C_7  and  C_11
REMARK    7  A    between atoms: C_11  and  C_13
REMARK    8  A    between atoms: C_11  and  N_69
REMARK    9  A    between atoms: C_13  and  C_14
REMARK   10  A    between atoms: C_13  and  C_15
REMARK   11  A    between atoms: C_16  and  C_17
REMARK   12  A    between atoms: C_16  and  N_69
REMARK   13  A    between atoms: C_17  and  O_18
REMARK   14  A    between atoms: C_19  and  C_20
REMARK   15  A    between atoms: C_19  and  N_69
REMARK   16  A    between atoms: C_24  and  O_32
REMARK   17  A    between atoms: O_32  and  C_33
REMARK   18  A    between atoms: C_33  and  C_34
REMARK                            x       y       z     vdW  Elec       q    Type
REMARK                         _______ _______ _______ _____ _____    ______ ____
ROOT
ATOM      1  N   UNL     1      -3.131   3.276   2.032  0.00  0.00    +0.391 N 
ATOM      2  H   UNL     1      -3.638   2.542   2.542  0.00  0.00    -0.080 HD
ENDROOT
BRANCH   1   3
ATOM      3  C   UNL     1      -4.091   4.316   1.607  0.00  0.00    +0.006 C 
BRANCH   3   5
ATOM      4  N   UNL     1      -6.273   3.667   2.758  0.00  0.00    -0.225 N 
ATOM      5  C   UNL     1      -5.170   4.431   2.653  0.00  0.00    +0.139 A 
ATOM      6  N   UNL     1      -5.213   5.291   3.641  0.00  0.00    -0.115 NA
ATOM      7  N   UNL     1      -6.290   5.072   4.313  0.00  0.00    -0.023 NA
ATOM      8  N   UNL     1      -6.932   4.089   3.784  0.00  0.00    -0.043 NA
BRANCH   4   9
ATOM      9  C   UNL     1      -6.654   2.563   1.873  0.00  0.00    +0.061 C 
ATOM     10  C   UNL     1      -6.886   3.100   0.460  0.00  0.00    +0.036 C 
ATOM     11  C   UNL     1      -5.534   1.521   1.846  0.00  0.00    +0.036 C 
BRANCH   9  13
ATOM     12  C   UNL     1      -8.338   0.763   1.467  0.00  0.00    +0.006 C 
ATOM     13  C   UNL     1      -7.940   1.916   2.391  0.00  0.00    +0.026 C 
ENDBRANCH   9  13
ENDBRANCH   4   9
ENDBRANCH   3   5
BRANCH   3  14
ATOM     14  C   UNL     1      -3.385   5.664   1.452  0.00  0.00    -0.024 C 
ATOM     15  C   UNL     1      -2.329   5.563   0.350  0.00  0.00    +0.006 C 
ATOM     16  C   UNL     1      -4.410   6.737   1.080  0.00  0.00    +0.006 C 
ENDBRANCH   3  14
ENDBRANCH   1   3
BRANCH   1  17
ATOM     17  C   UNL     1      -2.112   3.865   2.926  0.00  0.00    -0.049 C 
BRANCH  17  18
ATOM     18  C   UNL     1      -2.747   4.117   4.296  0.00  0.00    +0.137 C 
BRANCH  18  19
ATOM     19  O   UNL     1      -3.268   2.890   4.812  0.00  0.00    -0.397 OA
ATOM     20  H   UNL     1      -3.686   2.975   5.680  0.00  0.00    +0.209 HD
ENDBRANCH  18  19
ENDBRANCH  17  18
ENDBRANCH   1  17
BRANCH   1  21
ATOM     21  C   UNL     1      -2.479   2.676   0.849  0.00  0.00    -0.036 C 
BRANCH  21  22
ATOM     22  C   UNL     1      -1.827   1.381   1.261  0.00  0.00    +0.001 A 
ATOM     23  C   UNL     1      -2.497   0.211   1.118  0.00  0.00    +0.017 A 
ATOM     24  C   UNL     1      -1.833  -1.030   1.522  0.00  0.00    +0.002 A 
ATOM     25  C   UNL     1      -2.474  -2.266   1.392  0.00  0.00    +0.055 A 
ATOM     26  C   UNL     1      -1.821  -3.416   1.787  0.00  0.00    +0.121 A 
ATOM     27  C   UNL     1      -0.533  -3.349   2.312  0.00  0.00    +0.047 A 
ATOM     28  C   UNL     1       0.108  -2.137   2.445  0.00  0.00    +0.030 A 
ATOM     29  C   UNL     1      -0.531  -0.966   2.052  0.00  0.00    +0.049 A 
ATOM     30  N   UNL     1       0.094   0.258   2.178  0.00  0.00    -0.322 N 
ATOM     31  H   UNL     1       0.991   0.301   2.544  0.00  0.00    +0.169 HD
ATOM     32  C   UNL     1      -0.522   1.392   1.800  0.00  0.00    +0.251 A 
ATOM     33  O   UNL     1       0.061   2.455   1.924  0.00  0.00    -0.268 OA
BRANCH  26  34
ATOM     34  O   UNL     1      -2.439  -4.621   1.663  0.00  0.00    -0.492 OA
BRANCH  34  35
ATOM     35  C   UNL     1      -1.708  -5.772   2.091  0.00  0.00    +0.225 C 
ATOM     36  C   UNL     1      -2.559  -7.026   1.876  0.00  0.00    +0.048 C 
ENDBRANCH  34  35
ENDBRANCH  26  34
ENDBRANCH  21  22
ENDBRANCH   1  21
TORSDOF 12
