REMARK  Name = ZINC32217600
REMARK  6 active torsions:
REMARK  status: ('A' for Active; 'I' for Inactive)
REMARK    1  A    between atoms: C_4  and  C_7
REMARK    2  A    between atoms: C_7  and  C_9
REMARK    3  A    between atoms: C_7  and  N_26
REMARK    4  A    between atoms: C_9  and  N_10
REMARK    5  A    between atoms: C_11  and  C_13
REMARK    6  A    between atoms: C_13  and  N_14
REMARK                            x       y       z     vdW  Elec       q    Type
REMARK                         _______ _______ _______ _____ _____    ______ ____
ROOT
ATOM      1  N   UNL     1      -7.298   4.353   0.160  0.00  0.00    -0.315 N 
ATOM      2  C   UNL     1      -6.121   3.697   0.198  0.00  0.00    +0.230 C 
ATOM      3  O   UNL     1      -6.103   2.485   0.236  0.00  0.00    -0.274 OA
ATOM      4  H   UNL     1      -7.314   5.452   0.126  0.00  0.00    +0.149 HD
ENDROOT
BRANCH   1   5
ATOM      5  C   UNL     1      -8.556   3.601   0.163  0.00  0.00    +0.093 C 
BRANCH   5   6
ATOM      6  C   UNL     1      -9.733   4.577   0.115  0.00  0.00    -0.020 C 
BRANCH   6  10
ATOM      7  C   UNL     1     -13.384   2.386  -0.226  0.00  0.00    +0.000 A 
ATOM      8  C   UNL     1     -12.254   1.953  -0.893  0.00  0.00    +0.000 A 
ATOM      9  C   UNL     1     -11.072   2.662  -0.783  0.00  0.00    +0.002 A 
ATOM     10  C   UNL     1     -11.021   3.804  -0.005  0.00  0.00    -0.059 A 
ATOM     11  C   UNL     1     -12.150   4.234   0.666  0.00  0.00    +0.002 A 
ATOM     12  C   UNL     1     -13.333   3.527   0.552  0.00  0.00    +0.000 A 
ENDBRANCH   6  10
BRANCH   6  13
ATOM     13  N   UNL     1      -9.585   5.466  -1.045  0.00  0.00    +0.385 N 
ATOM     14  C   UNL     1      -9.739   4.713  -2.316  0.00  0.00    -0.078 C 
ATOM     15  C   UNL     1     -10.081   5.819  -3.345  0.00  0.00    -0.020 C 
ATOM     16  C   UNL     1     -10.983   6.778  -2.535  0.00  0.00    -0.020 C 
ATOM     17  C   UNL     1     -10.643   6.500  -1.059  0.00  0.00    -0.078 C 
ATOM     18  H   UNL     1      -8.584   5.913  -0.954  0.00  0.00    -0.081 HD
ENDBRANCH   6  13
ENDBRANCH   5   6
ENDBRANCH   1   5
BRANCH   2  19
ATOM     19  C   UNL     1      -4.827   4.470   0.195  0.00  0.00    +0.198 C 
BRANCH  19  20
ATOM     20  N   UNL     1      -3.700   3.536   0.241  0.00  0.00    -0.319 N 
ATOM     21  C   UNL     1      -2.408   4.015   0.246  0.00  0.00    +0.150 C 
ATOM     22  N   UNL     1      -2.182   5.290   0.211  0.00  0.00    -0.113 NA
ATOM     23  S   UNL     1      -0.517   5.460   0.231  0.00  0.00    +0.101 S 
ATOM     24  O   UNL     1      -0.158   6.055   1.470  0.00  0.00    -0.146 OA
ATOM     25  O   UNL     1      -0.120   5.977  -1.031  0.00  0.00    -0.146 OA
ATOM     26  C   UNL     1      -0.039   3.755   0.291  0.00  0.00    +0.123 A 
ATOM     27  C   UNL     1      -1.270   3.084   0.293  0.00  0.00    +0.043 A 
ATOM     28  C   UNL     1      -1.241   1.682   0.331  0.00  0.00    +0.013 A 
ATOM     29  C   UNL     1      -0.038   1.013   0.376  0.00  0.00    +0.001 A 
ATOM     30  C   UNL     1       1.161   1.702   0.373  0.00  0.00    +0.002 A 
ATOM     31  C   UNL     1       1.151   3.090   0.330  0.00  0.00    +0.030 A 
ATOM     32  H   UNL     1      -3.885   2.452   0.271  0.00  0.00    +0.148 HD
ENDBRANCH  19  20
ENDBRANCH   2  19
TORSDOF 6
