REMARK  Name = ZINC61861019
REMARK  5 active torsions:
REMARK  status: ('A' for Active; 'I' for Inactive)
REMARK    1  A    between atoms: C_1  and  C_2
REMARK    2  A    between atoms: C_11  and  C_14
REMARK    3  A    between atoms: C_14  and  N_15
REMARK    4  A    between atoms: N_21  and  C_24
REMARK    5  A    between atoms: C_24  and  C_25
REMARK                            x       y       z     vdW  Elec       q    Type
REMARK                         _______ _______ _______ _____ _____    ______ ____
ROOT
ATOM      1  C   UNL     1      -4.014  -5.503  -3.112  0.00  0.00    +0.142 C 
ENDROOT
BRANCH   1  12
ATOM      2  C   UNL     1       0.407   1.400   0.016  0.00  0.00    +0.039 C 
ATOM      3  C   UNL     1       0.383  -0.130   0.008  0.00  0.00    +0.132 C 
ATOM      4  C   UNL     1      -1.070  -0.619   0.046  0.00  0.00    +0.137 C 
ATOM      5  N   UNL     1      -1.063  -2.079   0.226  0.00  0.00    -0.312 N 
ATOM      6  C   UNL     1      -0.250  -2.638   1.318  0.00  0.00    +0.134 C 
ATOM      7  C   UNL     1       1.162  -2.050   1.218  0.00  0.00    +0.179 C 
ATOM      8  O   UNL     1       1.076  -0.625   1.156  0.00  0.00    -0.374 OA
ATOM      9  C   UNL     1      -1.803  -2.907  -0.611  0.00  0.00    +0.099 A 
ATOM     10  C   UNL     1      -2.653  -2.347  -1.559  0.00  0.00    +0.042 A 
ATOM     11  C   UNL     1      -3.383  -3.182  -2.385  0.00  0.00    +0.010 A 
ATOM     12  C   UNL     1      -3.238  -4.555  -2.234  0.00  0.00    -0.014 A 
ATOM     13  C   UNL     1      -2.377  -5.043  -1.272  0.00  0.00    +0.089 A 
ATOM     14  N   UNL     1      -1.688  -4.222  -0.502  0.00  0.00    -0.349 N 
ATOM     15  H   UNL     1      -1.087  -4.590   0.164  0.00  0.00    +0.167 HD
ENDBRANCH   1  12
BRANCH   1  16
ATOM     16  N   UNL     1      -3.235  -5.802  -4.316  0.00  0.00    -0.295 N 
ATOM     17  C   UNL     1      -3.734  -6.634  -5.252  0.00  0.00    +0.303 C 
ATOM     18  O   UNL     1      -4.866  -7.064  -5.142  0.00  0.00    -0.253 OA
ATOM     19  N   UNL     1      -2.977  -6.990  -6.309  0.00  0.00    -0.283 N 
ATOM     20  C   UNL     1      -3.539  -7.801  -7.400  0.00  0.00    +0.124 C 
ATOM     21  C   UNL     1      -3.233  -7.105  -8.730  0.00  0.00    +0.103 C 
ATOM     22  N   UNL     1      -1.789  -6.850  -8.826  0.00  0.00    -0.294 NA
ATOM     23  C   UNL     1      -1.340  -5.931  -7.772  0.00  0.00    +0.103 C 
ATOM     24  C   UNL     1      -1.570  -6.573  -6.405  0.00  0.00    +0.124 C 
ATOM     25  H   UNL     1      -2.361  -5.401  -4.440  0.00  0.00    +0.151 HD
BRANCH  22  26
ATOM     26  C   UNL     1      -1.431  -6.341 -10.156  0.00  0.00    +0.156 C 
BRANCH  26  27
ATOM     27  C   UNL     1      -1.415  -7.498 -11.158  0.00  0.00    +0.355 C 
ATOM     28  F   UNL     1      -0.573  -8.511 -10.687  0.00  0.00    -0.208 F 
ATOM     29  F   UNL     1      -2.712  -8.002 -11.308  0.00  0.00    -0.208 F 
ENDBRANCH  26  27
ENDBRANCH  22  26
ENDBRANCH   1  16
TORSDOF 4
