REMARK  Name = ZINC09410898
REMARK  7 active torsions:
REMARK  status: ('A' for Active; 'I' for Inactive)
REMARK    1  A    between atoms: C_6  and  C_7
REMARK    2  A    between atoms: C_10  and  C_29
REMARK    3  A    between atoms: C_15  and  C_17
REMARK    4  A    between atoms: N_19  and  C_20
REMARK    5  A    between atoms: C_20  and  C_21
REMARK    6  A    between atoms: C_21  and  C_22
REMARK    7  A    between atoms: C_22  and  N_23
REMARK                            x       y       z     vdW  Elec       q    Type
REMARK                         _______ _______ _______ _____ _____    ______ ____
ROOT
ATOM      1  C   UNL     1      -2.811   1.623   2.651  0.00  0.00    +0.104 C 
ATOM      2  C   UNL     1      -2.170   1.354   1.285  0.00  0.00    +0.063 C 
ATOM      3  C   UNL     1      -0.733   1.888   1.268  0.00  0.00    +0.215 C 
ATOM      4  N   UNL     1      -0.029   1.399   2.457  0.00  0.00    -0.238 N 
ATOM      5  C   UNL     1      -0.662   0.931   3.574  0.00  0.00    +0.119 A 
ATOM      6  C   UNL     1       0.278   0.563   4.466  0.00  0.00    +0.078 A 
ATOM      7  C   UNL     1       1.541   0.813   3.883  0.00  0.00    +0.149 A 
ATOM      8  N   UNL     1       1.345   1.316   2.677  0.00  0.00    -0.164 NA
ATOM      9  N   UNL     1      -2.055   0.883   3.681  0.00  0.00    -0.322 N 
ATOM     10  H   UNL     1      -2.499   0.393   4.391  0.00  0.00    +0.148 HD
ENDROOT
BRANCH   1  16
ATOM     11  C   UNL     1      -4.529  -0.190   2.786  0.00  0.00    +0.009 A 
ATOM     12  C   UNL     1      -5.842  -0.625   2.781  0.00  0.00    +0.050 A 
ATOM     13  C   UNL     1      -6.873   0.285   2.617  0.00  0.00    +0.166 A 
ATOM     14  C   UNL     1      -6.584   1.639   2.464  0.00  0.00    +0.167 A 
ATOM     15  C   UNL     1      -5.267   2.068   2.476  0.00  0.00    +0.055 A 
ATOM     16  C   UNL     1      -4.243   1.154   2.639  0.00  0.00    -0.024 A 
ATOM     17  O   UNL     1      -7.757   2.322   2.322  0.00  0.00    -0.453 OA
ATOM     18  C   UNL     1      -8.742   1.329   1.980  0.00  0.00    +0.466 C 
ATOM     19  O   UNL     1      -8.227   0.120   2.571  0.00  0.00    -0.453 OA
ENDBRANCH   1  16
BRANCH   7  20
ATOM     20  C   UNL     1       2.853   0.557   4.513  0.00  0.00    +0.264 C 
ATOM     21  O   UNL     1       2.908   0.090   5.634  0.00  0.00    -0.268 OA
ATOM     22  N   UNL     1       3.988   0.843   3.846  0.00  0.00    -0.310 N 
ATOM     23  H   UNL     1       3.944   1.216   2.951  0.00  0.00    +0.149 HD
BRANCH  22  24
ATOM     24  C   UNL     1       5.289   0.589   4.471  0.00  0.00    +0.106 C 
BRANCH  24  25
ATOM     25  C   UNL     1       6.405   0.998   3.508  0.00  0.00    +0.040 C 
BRANCH  25  26
ATOM     26  C   UNL     1       7.764   0.733   4.160  0.00  0.00    +0.124 C 
BRANCH  26  27
ATOM     27  N   UNL     1       8.833   1.125   3.238  0.00  0.00    -0.337 N 
ATOM     28  C   UNL     1       9.435   0.323   2.306  0.00  0.00    +0.106 A 
ATOM     29  C   UNL     1      10.355   1.080   1.678  0.00  0.00    +0.130 A 
ATOM     30  N   UNL     1      10.322   2.307   2.218  0.00  0.00    -0.244 NA
ATOM     31  C   UNL     1       9.412   2.341   3.153  0.00  0.00    +0.199 A 
ENDBRANCH  26  27
ENDBRANCH  25  26
ENDBRANCH  24  25
ENDBRANCH  22  24
ENDBRANCH   7  20
BRANCH   3  32
ATOM     32  C   UNL     1      -0.017   1.395   0.010  0.00  0.00    +0.412 C 
ATOM     33  F   UNL     1       0.002  -0.004   0.002  0.00  0.00    -0.168 F 
ATOM     34  F   UNL     1       1.296   1.879  -0.000  0.00  0.00    -0.168 F 
ATOM     35  F   UNL     1      -0.694   1.858  -1.124  0.00  0.00    -0.168 F 
ENDBRANCH   3  32
TORSDOF 7
