REMARK  Name = ZINC16027076
REMARK  11 active torsions:
REMARK  status: ('A' for Active; 'I' for Inactive)
REMARK    1  A    between atoms: C_1  and  C_2
REMARK    2  A    between atoms: C_2  and  O_3
REMARK    3  A    between atoms: O_3  and  C_4
REMARK    4  A    between atoms: C_4  and  C_6
REMARK    5  A    between atoms: C_9  and  N_12
REMARK    6  A    between atoms: C_13  and  C_15
REMARK    7  A    between atoms: C_18  and  C_32
REMARK    8  A    between atoms: C_23  and  C_31
REMARK    9  A    between atoms: C_25  and  C_30
REMARK   10  A    between atoms: C_32  and  C_34
REMARK   11  A    between atoms: C_32  and  O_35
REMARK                            x       y       z     vdW  Elec       q    Type
REMARK                         _______ _______ _______ _____ _____    ______ ____
ROOT
ATOM      1  C   UNL     1      -2.916   4.718  -1.057  0.00  0.00    +0.076 C 
ATOM      2  C   UNL     1      -3.934   5.744  -0.488  0.00  0.00    -0.001 C 
ATOM      3  C   UNL     1      -3.392   5.963   0.947  0.00  0.00    -0.040 C 
ATOM      4  C   UNL     1      -2.581   3.855   0.169  0.00  0.00    +0.049 C 
ATOM      5  C   UNL     1      -1.135   3.437   0.151  0.00  0.00    -0.027 A 
ATOM      6  C   UNL     1       0.051   4.136   0.162  0.00  0.00    +0.008 A 
ATOM      7  C   UNL     1       1.256   3.456   0.139  0.00  0.00    -0.050 A 
ATOM      8  C   UNL     1       1.265   2.073   0.105  0.00  0.00    +0.008 A 
ATOM      9  C   UNL     1       0.079   1.369   0.093  0.00  0.00    -0.029 A 
ATOM     10  C   UNL     1      -1.139   2.046   0.110  0.00  0.00    +0.039 A 
ATOM     11  N   UNL     1      -2.450   1.566   0.109  0.00  0.00    -0.286 N 
ATOM     12  C   UNL     1      -3.355   2.562   0.138  0.00  0.00    +0.211 C 
ATOM     13  O   UNL     1      -4.562   2.442   0.139  0.00  0.00    -0.277 OA
ATOM     14  C   UNL     1       0.100  -0.138   0.055  0.00  0.00    +0.045 C 
ATOM     15  C   UNL     1       2.554   4.220   0.152  0.00  0.00    +0.044 C 
ATOM     16  H   UNL     1      -2.681   0.625   0.085  0.00  0.00    +0.155 HD
ATOM     17  N   UNL     1      -2.898   4.636   1.364  0.00  0.00    +0.395 N 
ATOM     18  H   UNL     1      -3.622   4.155   1.909  0.00  0.00    -0.083 HD
ATOM     19  H   UNL     1      -2.054   4.747   1.938  0.00  0.00    -0.083 HD
ENDROOT
BRANCH   1  21
ATOM     20  N   UNL     1      -0.964   4.868  -2.568  0.00  0.00    -0.285 N 
ATOM     21  C   UNL     1      -1.684   5.417  -1.571  0.00  0.00    +0.220 C 
ATOM     22  O   UNL     1      -1.340   6.475  -1.086  0.00  0.00    -0.275 OA
ATOM     23  H   UNL     1      -1.274   4.056  -3.000  0.00  0.00    +0.155 HD
BRANCH  20  27
ATOM     24  C   UNL     1       2.594   6.652  -3.797  0.00  0.00    +0.059 A 
ATOM     25  C   UNL     1       2.471   5.259  -3.799  0.00  0.00    +0.017 A 
ATOM     26  C   UNL     1       1.294   4.673  -3.392  0.00  0.00    +0.024 A 
ATOM     27  C   UNL     1       0.227   5.465  -2.979  0.00  0.00    +0.033 A 
ATOM     28  C   UNL     1       0.344   6.851  -2.982  0.00  0.00    +0.024 A 
ATOM     29  C   UNL     1       1.520   7.444  -3.381  0.00  0.00    +0.017 A 
BRANCH  24  30
ATOM     30  C   UNL     1       3.854   7.283  -4.231  0.00  0.00    +0.339 C 
ATOM     31  O   UNL     1       4.787   6.593  -4.591  0.00  0.00    -0.245 OA
BRANCH  30  32
ATOM     32  O   UNL     1       3.970   8.626  -4.229  0.00  0.00    -0.461 OA
BRANCH  32  34
ATOM     33  C   UNL     1       5.182  10.706  -4.598  0.00  0.00    +0.048 C 
ATOM     34  C   UNL     1       5.239   9.178  -4.669  0.00  0.00    +0.229 C 
ENDBRANCH  32  34
ENDBRANCH  30  32
ENDBRANCH  24  30
ENDBRANCH  20  27
ENDBRANCH   1  21
BRANCH   3  35
ATOM     35  C   UNL     1      -4.513   6.435   1.874  0.00  0.00    +0.098 C 
ATOM     36  C   UNL     1      -3.975   6.569   3.300  0.00  0.00    +0.036 C 
BRANCH  35  37
ATOM     37  O   UNL     1      -4.999   7.703   1.428  0.00  0.00    -0.394 OA
ATOM     38  H   UNL     1      -4.328   8.399   1.415  0.00  0.00    +0.210 HD
ENDBRANCH  35  37
ENDBRANCH   3  35
TORSDOF 7
