REMARK  Name = ZINC53038907
REMARK  6 active torsions:
REMARK  status: ('A' for Active; 'I' for Inactive)
REMARK    1  A    between atoms: C_1  and  C_2
REMARK    2  A    between atoms: C_5  and  S_8
REMARK    3  A    between atoms: N_6  and  N_7
REMARK    4  A    between atoms: S_8  and  C_9
REMARK    5  A    between atoms: C_9  and  C_10
REMARK    6  A    between atoms: C_12  and  C_15
REMARK                            x       y       z     vdW  Elec       q    Type
REMARK                         _______ _______ _______ _____ _____    ______ ____
ROOT
ATOM      1  C   UNL     1       0.095  -6.239   0.999  0.00  0.00    +0.238 A 
ATOM      2  N   UNL     1      -0.951  -6.934   1.346  0.00  0.00    -0.191 NA
ATOM      3  C   UNL     1      -0.567  -8.080   1.935  0.00  0.00    +0.202 A 
ATOM      4  N   UNL     1       0.742  -8.118   1.965  0.00  0.00    -0.056 NA
ATOM      5  O   UNL     1       1.193  -6.920   1.351  0.00  0.00    -0.337 OA
ENDROOT
BRANCH   3   6
ATOM      6  C   UNL     1      -1.476  -9.128   2.463  0.00  0.00    +0.023 A 
ATOM      7  C   UNL     1      -2.857  -8.971   2.365  0.00  0.00    +0.012 A 
ATOM      8  C   UNL     1      -3.697  -9.948   2.858  0.00  0.00    +0.002 A 
ATOM      9  C   UNL     1      -3.172 -11.083   3.449  0.00  0.00    +0.015 A 
ATOM     10  C   UNL     1      -1.801 -11.245   3.550  0.00  0.00    +0.019 A 
ATOM     11  C   UNL     1      -0.951 -10.275   3.054  0.00  0.00    +0.027 A 
ATOM     12 BR   UNL     1      -1.091 -12.799   4.360  0.00  0.00    -0.050 Br
ENDBRANCH   3   6
BRANCH   1  13
ATOM     13  C   UNL     1       0.073  -4.897   0.313  0.00  0.00    +0.176 C 
BRANCH  13  14
ATOM     14  S   UNL     1       0.059  -3.580   1.560  0.00  0.00    -0.075 S 
BRANCH  14  19
ATOM     15  C   UNL     1      -0.018   1.503   0.010  0.00  0.00    +0.090 C 
ATOM     16  C   UNL     1       0.002  -0.004   0.002  0.00  0.00    +0.148 A 
ATOM     17  N   UNL     1       0.008  -0.770  -1.052  0.00  0.00    -0.132 NA
ATOM     18  N   UNL     1       0.027  -2.006  -0.699  0.00  0.00    -0.121 NA
ATOM     19  C   UNL     1       0.034  -2.095   0.611  0.00  0.00    +0.209 A 
ATOM     20  N   UNL     1       0.024  -0.820   1.099  0.00  0.00    -0.228 N 
BRANCH  20  21
ATOM     21  N   UNL     1       0.030  -0.439   2.411  0.00  0.00    -0.295 N 
ATOM     22  H   UNL     1      -0.910  -0.351   2.767  0.00  0.00    +0.163 HD
ATOM     23  H   UNL     1       0.570  -1.081   2.971  0.00  0.00    +0.163 HD
ENDBRANCH  20  21
ENDBRANCH  14  19
ENDBRANCH  13  14
ENDBRANCH   1  13
TORSDOF 5
