REMARK  Name = ZINC41154245
REMARK  13 active torsions:
REMARK  status: ('A' for Active; 'I' for Inactive)
REMARK    1  A    between atoms: C_1  and  C_2
REMARK    2  A    between atoms: C_2  and  O_3
REMARK    3  A    between atoms: O_3  and  P_4
REMARK    4  A    between atoms: P_4  and  C_6
REMARK    5  A    between atoms: P_4  and  O_34
REMARK    6  A    between atoms: C_7  and  N_18
REMARK    7  A    between atoms: C_9  and  C_11
REMARK    8  A    between atoms: C_14  and  C_17
REMARK    9  A    between atoms: N_18  and  N_19
REMARK   10  A    between atoms: C_20  and  C_22
REMARK   11  A    between atoms: C_28  and  C_33
REMARK   12  A    between atoms: O_34  and  C_35
REMARK   13  A    between atoms: C_35  and  C_36
REMARK                            x       y       z     vdW  Elec       q    Type
REMARK                         _______ _______ _______ _____ _____    ______ ____
ROOT
ATOM      1  C   UNL     1       1.950  -2.225   2.947  0.00  0.00    +0.214 A 
ATOM      2  C   UNL     1       3.303  -2.307   2.962  0.00  0.00    +0.238 A 
ATOM      3  O   UNL     1       3.679  -2.435   4.250  0.00  0.00    -0.420 OA
ATOM      4  C   UNL     1       2.563  -2.431   5.004  0.00  0.00    +0.230 A 
ATOM      5  N   UNL     1       1.523  -2.298   4.216  0.00  0.00    -0.199 NA
ENDROOT
BRANCH   4   6
ATOM      6  C   UNL     1       2.518  -2.549   6.476  0.00  0.00    +0.037 A 
ATOM      7  C   UNL     1       1.292  -2.537   7.144  0.00  0.00    +0.013 A 
ATOM      8  C   UNL     1       1.258  -2.647   8.518  0.00  0.00    +0.004 A 
ATOM      9  C   UNL     1       2.434  -2.770   9.235  0.00  0.00    -0.050 A 
ATOM     10  C   UNL     1       3.653  -2.783   8.580  0.00  0.00    +0.004 A 
ATOM     11  C   UNL     1       3.702  -2.679   7.205  0.00  0.00    +0.013 A 
ATOM     12  C   UNL     1       2.389  -2.889  10.737  0.00  0.00    +0.044 C 
ENDBRANCH   4   6
BRANCH   1  13
ATOM     13  P   UNL     1       0.906  -2.042   1.476  0.00  0.00    +0.386 P 
ATOM     14  O   UNL     1       1.562  -2.693   0.320  0.00  0.00    -0.251 OA
BRANCH  13  15
ATOM     15  O   UNL     1       0.693  -0.477   1.160  0.00  0.00    -0.304 OA
BRANCH  15  17
ATOM     16  C   UNL     1      -0.019   1.526   0.010  0.00  0.00    +0.034 C 
ATOM     17  C   UNL     1       0.002  -0.004   0.002  0.00  0.00    +0.167 C 
ENDBRANCH  15  17
ENDBRANCH  13  15
BRANCH  13  18
ATOM     18  O   UNL     1      -0.523  -2.735   1.742  0.00  0.00    -0.304 OA
BRANCH  18  19
ATOM     19  C   UNL     1      -1.531  -2.850   0.736  0.00  0.00    +0.167 C 
ATOM     20  C   UNL     1      -2.756  -3.556   1.321  0.00  0.00    +0.034 C 
ENDBRANCH  18  19
ENDBRANCH  13  18
ENDBRANCH   1  13
BRANCH   2  21
ATOM     21  N   UNL     1       4.145  -2.267   1.856  0.00  0.00    -0.232 N 
ATOM     22  H   UNL     1       3.772  -2.171   0.965  0.00  0.00    +0.173 HD
BRANCH  21  23
ATOM     23  N   UNL     1       5.532  -2.364   2.027  0.00  0.00    -0.228 N 
ATOM     24  C   UNL     1       6.348  -2.325   0.955  0.00  0.00    +0.296 C 
ATOM     25  O   UNL     1       5.881  -2.205  -0.160  0.00  0.00    -0.265 OA
ATOM     26  H   UNL     1       5.905  -2.459   2.918  0.00  0.00    +0.173 HD
BRANCH  24  27
ATOM     27  C   UNL     1       7.816  -2.427   1.137  0.00  0.00    +0.195 A 
ATOM     28  C   UNL     1       8.610  -2.379   0.040  0.00  0.00    +0.103 A 
ATOM     29  C   UNL     1      10.066  -2.498   0.229  0.00  0.00    +0.193 A 
ATOM     30  O   UNL     1      10.856  -2.243  -0.664  0.00  0.00    -0.287 OA
ATOM     31  C   UNL     1      10.512  -2.945   1.564  0.00  0.00    +0.064 A 
ATOM     32  C   UNL     1      11.827  -3.342   1.798  0.00  0.00    +0.018 A 
ATOM     33  C   UNL     1      12.195  -3.755   3.049  0.00  0.00    -0.050 A 
ATOM     34  C   UNL     1      11.267  -3.781   4.081  0.00  0.00    +0.007 A 
ATOM     35  C   UNL     1       9.963  -3.389   3.868  0.00  0.00    +0.047 A 
ATOM     36  C   UNL     1       9.567  -2.962   2.604  0.00  0.00    +0.139 A 
ATOM     37  O   UNL     1       8.301  -2.558   2.379  0.00  0.00    -0.450 OA
ATOM     38  C   UNL     1      13.616  -4.185   3.309  0.00  0.00    +0.044 C 
ENDBRANCH  24  27
ENDBRANCH  21  23
ENDBRANCH   2  21
TORSDOF 9
