REMARK  Name = ZINC31973051
REMARK  4 active torsions:
REMARK  status: ('A' for Active; 'I' for Inactive)
REMARK    1  A    between atoms: C_6  and  C_7
REMARK    2  A    between atoms: C_8  and  C_17
REMARK    3  A    between atoms: C_17  and  C_18
REMARK    4  A    between atoms: C_18  and  C_19
REMARK                            x       y       z     vdW  Elec       q    Type
REMARK                         _______ _______ _______ _____ _____    ______ ____
ROOT
ATOM      1  C   UNL     1       2.884  -2.099  -0.038  0.00  0.00    +0.093 A 
ATOM      2  C   UNL     1       3.414  -0.872   0.223  0.00  0.00    +0.052 A 
ATOM      3  N   UNL     1       2.393   0.033   0.136  0.00  0.00    -0.302 N 
ATOM      4  C   UNL     1       2.348   1.388   0.300  0.00  0.00    +0.113 A 
ATOM      5  C   UNL     1       1.186   2.060   0.156  0.00  0.00    +0.058 A 
ATOM      6  C   UNL     1       0.004   1.371  -0.166  0.00  0.00    +0.025 A 
ATOM      7  C   UNL     1       0.035   0.021  -0.331  0.00  0.00    +0.048 A 
ATOM      8  C   UNL     1       1.256  -0.666  -0.177  0.00  0.00    +0.139 A 
ATOM      9  N   UNL     1       1.571  -1.949  -0.279  0.00  0.00    -0.228 NA
ATOM     10 CL   UNL     1       1.151   3.783   0.368  0.00  0.00    -0.082 Cl
ENDROOT
BRANCH   1  16
ATOM     11  C   UNL     1       4.874  -3.460  -0.674  0.00  0.00    +0.011 A 
ATOM     12  C   UNL     1       5.566  -4.654  -0.682  0.00  0.00    +0.020 A 
ATOM     13  C   UNL     1       5.019  -5.777  -0.084  0.00  0.00    +0.041 A 
ATOM     14  C   UNL     1       3.780  -5.706   0.529  0.00  0.00    +0.020 A 
ATOM     15  C   UNL     1       3.083  -4.515   0.546  0.00  0.00    +0.011 A 
ATOM     16  C   UNL     1       3.629  -3.382  -0.054  0.00  0.00    +0.002 A 
ATOM     17 CL   UNL     1       5.891  -7.278  -0.102  0.00  0.00    -0.084 Cl
ENDBRANCH   1  16
BRANCH   2  18
ATOM     18  C   UNL     1       4.854  -0.569   0.546  0.00  0.00    +0.067 C 
BRANCH  18  19
ATOM     19  C   UNL     1       5.037  -0.521   2.064  0.00  0.00    +0.131 C 
BRANCH  19  20
ATOM     20  C   UNL     1       6.477  -0.217   2.388  0.00  0.00    +0.356 C 
ATOM     21  O   UNL     1       7.276  -0.056   1.495  0.00  0.00    -0.246 OA
ATOM     22  O   UNL     1       6.873  -0.126   3.667  0.00  0.00    -0.246 OA
ENDBRANCH  19  20
ENDBRANCH  18  19
ENDBRANCH   2  18
TORSDOF 4
