REMARK  Name = ZINC63296008
REMARK  4 active torsions:
REMARK  status: ('A' for Active; 'I' for Inactive)
REMARK    1  A    between atoms: C_1  and  O_2
REMARK    2  A    between atoms: O_2  and  C_3
REMARK    3  A    between atoms: C_9  and  C_13
REMARK    4  A    between atoms: C_19  and  C_22
REMARK                            x       y       z     vdW  Elec       q    Type
REMARK                         _______ _______ _______ _____ _____    ______ ____
ROOT
ATOM      1  C   UNL     1      -0.706  -5.177   1.239  0.00  0.00    +0.242 C 
ATOM      2  O   UNL     1      -1.439  -5.158   2.205  0.00  0.00    -0.273 OA
ATOM      3  N   UNL     1       0.428  -5.906   1.268  0.00  0.00    -0.299 N 
ATOM      4  C   UNL     1       1.329  -5.934   0.109  0.00  0.00    +0.108 C 
ATOM      5  C   UNL     1       2.740  -5.556   0.572  0.00  0.00    +0.019 C 
ATOM      6  C   UNL     1       3.160  -6.480   1.718  0.00  0.00    +0.010 C 
ATOM      7  C   UNL     1       2.201  -6.302   2.897  0.00  0.00    +0.047 C 
ATOM      8  C   UNL     1       0.788  -6.683   2.462  0.00  0.00    +0.114 C 
ENDROOT
BRANCH   1  15
ATOM      9  C   UNL     1      -1.194  -0.634   0.011  0.00  0.00    +0.129 A 
ATOM     10  C   UNL     1      -2.352   0.082   0.020  0.00  0.00    +0.046 A 
ATOM     11  C   UNL     1      -3.600  -0.546   0.030  0.00  0.00    +0.006 A 
ATOM     12  C   UNL     1      -3.744  -1.891   0.030  0.00  0.00    +0.026 A 
ATOM     13  C   UNL     1      -2.605  -2.737   0.020  0.00  0.00    +0.047 A 
ATOM     14  N   UNL     1      -2.488  -4.045   0.019  0.00  0.00    -0.370 N 
ATOM     15  C   UNL     1      -1.061  -4.385   0.007  0.00  0.00    +0.190 C 
ATOM     16  C   UNL     1      -0.321  -3.067   0.002  0.00  0.00    +0.020 C 
ATOM     17  C   UNL     1      -1.267  -2.104   0.004  0.00  0.00    +0.038 A 
ATOM     18  H   UNL     1      -3.222  -4.679   0.025  0.00  0.00    +0.161 HD
BRANCH   9  20
ATOM     19  C   UNL     1      -0.013   1.426   0.009  0.00  0.00    +0.277 C 
ATOM     20  O   UNL     1       0.006  -0.003   0.001  0.00  0.00    -0.494 OA
ENDBRANCH   9  20
ENDBRANCH   1  15
BRANCH   7  21
ATOM     21  C   UNL     1       2.642  -7.200   4.054  0.00  0.00    +0.185 C 
ATOM     22  N   UNL     1       2.518  -8.620   3.682  0.00  0.00    -0.246 N 
ATOM     23  N   UNL     1       1.599  -9.181   4.575  0.00  0.00    -0.170 NA
ATOM     24  C   UNL     1       1.158  -8.296   5.428  0.00  0.00    +0.144 C 
ATOM     25  N   UNL     1       1.734  -7.048   5.199  0.00  0.00    -0.270 N 
ATOM     26  C   UNL     1       1.410  -5.974   5.984  0.00  0.00    +0.078 C 
ATOM     27  C   UNL     1       0.532  -6.090   6.995  0.00  0.00    +0.015 C 
ATOM     28  C   UNL     1      -0.087  -7.325   7.282  0.00  0.00    +0.005 C 
ATOM     29  C   UNL     1       0.196  -8.425   6.531  0.00  0.00    +0.045 C 
ATOM     30  H   UNL     1       2.981  -9.075   2.961  0.00  0.00    +0.170 HD
ENDBRANCH   7  21
TORSDOF 3
