REMARK  Name = ZINC36591468
REMARK  13 active torsions:
REMARK  status: ('A' for Active; 'I' for Inactive)
REMARK    1  A    between atoms: C_1  and  C_2
REMARK    2  A    between atoms: C_2  and  C_3
REMARK    3  A    between atoms: C_2  and  C_4
REMARK    4  A    between atoms: C_2  and  N_5
REMARK    5  A    between atoms: C_6  and  C_8
REMARK    6  A    between atoms: C_8  and  C_10
REMARK    7  A    between atoms: C_8  and  N_20
REMARK    8  A    between atoms: C_12  and  N_17
REMARK    9  A    between atoms: N_20  and  C_30
REMARK   10  A    between atoms: C_21  and  C_23
REMARK   11  A    between atoms: C_30  and  C_31
REMARK   12  A    between atoms: C_30  and  C_32
REMARK   13  A    between atoms: C_30  and  C_33
REMARK                            x       y       z     vdW  Elec       q    Type
REMARK                         _______ _______ _______ _____ _____    ______ ____
ROOT
ATOM      1  C   UNL     1       2.633  -1.007  -3.474  0.00  0.00    +0.194 C 
ENDROOT
BRANCH   1   2
ATOM      2  C   UNL     1       1.795   0.147  -3.960  0.00  0.00    +0.002 A 
ATOM      3  C   UNL     1       0.737   0.604  -3.197  0.00  0.00    +0.040 A 
ATOM      4  C   UNL     1      -0.032   1.662  -3.644  0.00  0.00    +0.127 A 
ATOM      5  C   UNL     1       0.257   2.265  -4.854  0.00  0.00    +0.034 A 
ATOM      6  C   UNL     1       1.315   1.810  -5.618  0.00  0.00    +0.022 A 
ATOM      7  C   UNL     1       2.088   0.754  -5.169  0.00  0.00    +0.047 A 
ATOM      8 CL   UNL     1       3.422   0.186  -6.124  0.00  0.00    -0.083 Cl
BRANCH   4   9
ATOM      9  N   UNL     1      -1.165   2.150  -2.826  0.00  0.00    +0.056 N 
ATOM     10  O   UNL     1      -1.418   1.623  -1.768  0.00  0.00    -0.126 OA
ATOM     11  O   UNL     1      -1.837   3.076  -3.216  0.00  0.00    -0.126 OA
ENDBRANCH   4   9
ENDBRANCH   1   2
BRANCH   1  13
ATOM     12  N   UNL     1       0.828  -2.648  -3.069  0.00  0.00    -0.309 N 
ATOM     13  C   UNL     1       1.808  -1.876  -2.560  0.00  0.00    +0.239 C 
ATOM     14  O   UNL     1       2.026  -1.881  -1.367  0.00  0.00    -0.273 OA
ATOM     15  H   UNL     1       0.604  -2.591  -4.011  0.00  0.00    +0.149 HD
BRANCH  12  17
ATOM     16  C   UNL     1      -0.591  -2.789  -1.081  0.00  0.00    +0.031 C 
ATOM     17  C   UNL     1       0.099  -3.575  -2.198  0.00  0.00    +0.026 C 
ATOM     18  C   UNL     1       1.079  -4.577  -1.586  0.00  0.00    +0.031 C 
ATOM     19  C   UNL     1      -0.952  -4.325  -3.019  0.00  0.00    +0.031 C 
ENDBRANCH  12  17
ENDBRANCH   1  13
BRANCH   1  20
ATOM     20  N   UNL     1       3.794  -0.493  -2.742  0.00  0.00    -0.279 N 
ATOM     21  C   UNL     1       3.618   0.343  -1.700  0.00  0.00    +0.237 C 
ATOM     22  O   UNL     1       2.497   0.618  -1.326  0.00  0.00    -0.274 OA
BRANCH  21  23
ATOM     23  C   UNL     1       4.813   0.937  -1.000  0.00  0.00    +0.159 C 
ATOM     24  C   UNL     1       5.082   0.189   0.324  0.00  0.00    +0.041 C 
ATOM     25  C   UNL     1       4.306   1.057   1.341  0.00  0.00    +0.098 C 
ATOM     26  C   UNL     1       4.245   2.422   0.692  0.00  0.00    +0.214 C 
ATOM     27  O   UNL     1       3.972   3.454   1.269  0.00  0.00    -0.276 OA
ATOM     28  N   UNL     1       4.539   2.327  -0.618  0.00  0.00    -0.304 N 
ATOM     29  H   UNL     1       4.567   3.079  -1.230  0.00  0.00    +0.149 HD
ENDBRANCH  21  23
BRANCH  20  30
ATOM     30  C   UNL     1       5.146  -0.889  -3.143  0.00  0.00    +0.030 C 
ATOM     31  C   UNL     1       5.063  -2.011  -4.180  0.00  0.00    +0.031 C 
ATOM     32  C   UNL     1       5.870   0.314  -3.751  0.00  0.00    +0.031 C 
ATOM     33  C   UNL     1       5.918  -1.383  -1.918  0.00  0.00    +0.031 C 
ENDBRANCH  20  30
ENDBRANCH   1  20
TORSDOF 7
