REMARK  Name = ZINC17316782
REMARK  9 active torsions:
REMARK  status: ('A' for Active; 'I' for Inactive)
REMARK    1  A    between atoms: C_1  and  C_2
REMARK    2  A    between atoms: C_2  and  S_3
REMARK    3  A    between atoms: S_3  and  C_4
REMARK    4  A    between atoms: C_11  and  C_23
REMARK    5  A    between atoms: C_16  and  C_20
REMARK    6  A    between atoms: C_16  and  C_21
REMARK    7  A    between atoms: C_26  and  O_29
REMARK    8  A    between atoms: O_29  and  C_30
REMARK    9  A    between atoms: C_30  and  C_31
REMARK                            x       y       z     vdW  Elec       q    Type
REMARK                         _______ _______ _______ _____ _____    ______ ____
ROOT
ATOM      1  C   UNL     1       0.818  -2.359   1.317  0.00  0.00    +0.171 A 
ATOM      2  N   UNL     1       1.391  -3.136   2.278  0.00  0.00    -0.322 N 
ATOM      3  C   UNL     1       1.350  -4.502   2.173  0.00  0.00    +0.111 A 
ATOM      4  C   UNL     1       0.731  -5.069   1.103  0.00  0.00    +0.069 A 
ATOM      5  C   UNL     1       0.153  -4.228   0.126  0.00  0.00    +0.280 A 
ATOM      6  N   UNL     1       0.213  -2.896   0.278  0.00  0.00    -0.185 NA
ATOM      7  O   UNL     1      -0.403  -4.711  -0.850  0.00  0.00    -0.265 OA
ATOM      8  C   UNL     1       0.653  -6.560   0.956  0.00  0.00    +0.092 C 
ATOM      9  C   UNL     1       1.660  -7.250   1.841  0.00  0.00    +0.024 C 
ATOM     10  C   UNL     1       1.972  -8.592   1.564  0.00  0.00    +0.162 C 
ATOM     11  C   UNL     1       2.947  -9.359   2.416  0.00  0.00    +0.086 C 
ATOM     12  C   UNL     1       2.928  -8.783   3.835  0.00  0.00    -0.023 C 
ATOM     13  C   UNL     1       3.250  -7.289   3.756  0.00  0.00    +0.058 C 
ATOM     14  C   UNL     1       2.241  -6.599   2.871  0.00  0.00    +0.017 C 
ATOM     15  N   UNL     1       1.931  -5.293   3.136  0.00  0.00    -0.304 N 
ATOM     16  C   UNL     1       3.979  -9.492   4.692  0.00  0.00    +0.011 C 
ATOM     17  C   UNL     1       1.540  -8.978   4.451  0.00  0.00    +0.011 C 
ATOM     18  O   UNL     1       1.444  -9.144   0.619  0.00  0.00    -0.292 OA
ATOM     19  H   UNL     1       2.123  -4.921   4.011  0.00  0.00    +0.153 HD
ATOM     20  H   UNL     1       1.830  -2.722   3.038  0.00  0.00    +0.169 HD
ENDROOT
BRANCH   8  21
ATOM     21  C   UNL     1      -0.731  -7.021   1.333  0.00  0.00    -0.035 A 
ATOM     22  C   UNL     1      -1.220  -6.773   2.602  0.00  0.00    +0.008 A 
ATOM     23  C   UNL     1      -2.489  -7.195   2.949  0.00  0.00    +0.046 A 
ATOM     24  C   UNL     1      -3.272  -7.868   2.023  0.00  0.00    +0.121 A 
ATOM     25  C   UNL     1      -2.780  -8.115   0.750  0.00  0.00    +0.046 A 
ATOM     26  C   UNL     1      -1.512  -7.686   0.406  0.00  0.00    +0.008 A 
BRANCH  24  27
ATOM     27  O   UNL     1      -4.521  -8.284   2.363  0.00  0.00    -0.487 OA
BRANCH  27  28
ATOM     28  C   UNL     1      -5.271  -8.971   1.359  0.00  0.00    +0.264 C 
BRANCH  28  29
ATOM     29  C   UNL     1      -6.619  -9.353   1.913  0.00  0.00    -0.010 A 
ATOM     30  C   UNL     1      -6.785 -10.570   2.549  0.00  0.00    +0.007 A 
ATOM     31  C   UNL     1      -8.022 -10.920   3.057  0.00  0.00    +0.000 A 
ATOM     32  C   UNL     1      -9.092 -10.055   2.930  0.00  0.00    +0.000 A 
ATOM     33  C   UNL     1      -8.926  -8.838   2.295  0.00  0.00    +0.000 A 
ATOM     34  C   UNL     1      -7.688  -8.486   1.791  0.00  0.00    +0.007 A 
ENDBRANCH  28  29
ENDBRANCH  27  28
ENDBRANCH  24  27
ENDBRANCH   8  21
BRANCH   1  35
ATOM     35  S   UNL     1       0.879  -0.605   1.472  0.00  0.00    -0.088 S 
BRANCH  35  37
ATOM     36  C   UNL     1      -0.019   1.526   0.010  0.00  0.00    +0.016 C 
ATOM     37  C   UNL     1       0.002  -0.004   0.002  0.00  0.00    +0.074 C 
ENDBRANCH  35  37
ENDBRANCH   1  35
TORSDOF 6
