REMARK  Name = ZINC22798509
REMARK  7 active torsions:
REMARK  status: ('A' for Active; 'I' for Inactive)
REMARK    1  A    between atoms: C_1  and  C_2
REMARK    2  A    between atoms: C_2  and  N_3
REMARK    3  A    between atoms: N_6  and  C_9
REMARK    4  A    between atoms: C_9  and  C_11
REMARK    5  A    between atoms: C_9  and  C_18
REMARK    6  A    between atoms: C_19  and  O_31
REMARK    7  A    between atoms: C_24  and  C_26
REMARK                            x       y       z     vdW  Elec       q    Type
REMARK                         _______ _______ _______ _____ _____    ______ ____
ROOT
ATOM      1  C   UNL     1       3.433  -2.512  -3.697  0.00  0.00    +0.129 C 
ENDROOT
BRANCH   1   2
ATOM      2  C   UNL     1       4.888  -2.133  -3.594  0.00  0.00    +0.076 A 
ATOM      3  C   UNL     1       5.648  -1.457  -4.464  0.00  0.00    +0.228 A 
ATOM      4  N   UNL     1       6.970  -1.205  -4.191  0.00  0.00    -0.173 N 
ATOM      5  C   UNL     1       7.462  -1.672  -3.003  0.00  0.00    +0.200 A 
ATOM      6  S   UNL     1       6.047  -2.462  -2.275  0.00  0.00    -0.047 S 
ATOM      7  N   UNL     1       8.721  -1.354  -2.893  0.00  0.00    -0.197 NA
ATOM      8  C   UNL     1       9.104  -0.676  -3.983  0.00  0.00    +0.218 A 
ATOM      9  N   UNL     1       8.079  -0.561  -4.799  0.00  0.00    -0.138 NA
BRANCH   8  10
ATOM     10  C   UNL     1      10.461  -0.145  -4.230  0.00  0.00    +0.173 A 
ATOM     11  C   UNL     1      11.529  -0.264  -3.397  0.00  0.00    +0.053 A 
ATOM     12  C   UNL     1      12.610   0.385  -4.026  0.00  0.00    +0.042 A 
ATOM     13  C   UNL     1      12.153   0.864  -5.200  0.00  0.00    +0.196 A 
ATOM     14  O   UNL     1      10.856   0.538  -5.322  0.00  0.00    -0.460 OA
ENDBRANCH   8  10
BRANCH   3  15
ATOM     15  O   UNL     1       5.105  -1.016  -5.631  0.00  0.00    -0.492 OA
ATOM     16  H   UNL     1       5.726  -0.539  -6.198  0.00  0.00    +0.294 HD
ENDBRANCH   3  15
ENDBRANCH   1   2
BRANCH   1  20
ATOM     17  N   UNL     1       0.690  -0.478  -1.207  0.00  0.00    +0.381 N 
ATOM     18  C   UNL     1       2.100  -0.069  -1.160  0.00  0.00    -0.063 C 
ATOM     19  C   UNL     1       2.812  -0.546  -2.427  0.00  0.00    +0.067 C 
ATOM     20  N   UNL     1       2.711  -2.009  -2.521  0.00  0.00    -0.295 NA
ATOM     21  C   UNL     1       1.305  -2.435  -2.544  0.00  0.00    +0.067 C 
ATOM     22  C   UNL     1       0.605  -1.943  -1.275  0.00  0.00    -0.063 C 
ATOM     23  H   UNL     1       0.251  -0.077  -2.022  0.00  0.00    -0.082 HD
BRANCH  17  25
ATOM     24  C   UNL     1      -0.019   1.526   0.010  0.00  0.00    -0.017 C 
ATOM     25  C   UNL     1       0.002  -0.004   0.002  0.00  0.00    -0.082 C 
ENDBRANCH  17  25
ENDBRANCH   1  20
BRANCH   1  26
ATOM     26  C   UNL     1       3.308  -4.012  -3.760  0.00  0.00    -0.025 A 
ATOM     27  C   UNL     1       3.379  -4.761  -2.600  0.00  0.00    +0.006 A 
ATOM     28  C   UNL     1       3.264  -6.137  -2.657  0.00  0.00    +0.015 A 
ATOM     29  C   UNL     1       3.077  -6.765  -3.875  0.00  0.00    +0.018 A 
ATOM     30  C   UNL     1       3.006  -6.016  -5.035  0.00  0.00    +0.015 A 
ATOM     31  C   UNL     1       3.116  -4.640  -4.977  0.00  0.00    +0.006 A 
ATOM     32 BR   UNL     1       2.920  -8.648  -3.953  0.00  0.00    -0.050 Br
ENDBRANCH   1  26
TORSDOF 6
