REMARK  Name = ZINC33518151
REMARK  9 active torsions:
REMARK  status: ('A' for Active; 'I' for Inactive)
REMARK    1  A    between atoms: C_2  and  C_3
REMARK    2  A    between atoms: C_3  and  C_4
REMARK    3  A    between atoms: C_4  and  N_5
REMARK    4  A    between atoms: C_10  and  C_31
REMARK    5  A    between atoms: C_13  and  C_18
REMARK    6  A    between atoms: C_13  and  C_28
REMARK    7  A    between atoms: C_18  and  C_19
REMARK    8  A    between atoms: C_22  and  N_25
REMARK    9  A    between atoms: C_34  and  C_37
REMARK                            x       y       z     vdW  Elec       q    Type
REMARK                         _______ _______ _______ _____ _____    ______ ____
ROOT
ATOM      1  N   UNL     1       1.258   3.331   0.502  0.00  0.00    -0.241 N 
ATOM      2  C   UNL     1       1.209   3.930  -0.731  0.00  0.00    +0.228 C 
ATOM      3  O   UNL     1       0.927   3.419  -1.794  0.00  0.00    -0.275 OA
ATOM      4  C   UNL     1       1.568   5.307  -0.482  0.00  0.00    +0.111 C 
ATOM      5  C   UNL     1       1.470   6.631  -1.114  0.00  0.00    +0.097 C 
ATOM      6  N   UNL     1       1.676   7.597   0.015  0.00  0.00    -0.293 NA
ATOM      7  C   UNL     1       1.763   6.799   1.282  0.00  0.00    +0.138 C 
ATOM      8  C   UNL     1       0.916   5.555   0.937  0.00  0.00    +0.121 C 
ATOM      9  C   UNL     1       1.323   4.232   1.526  0.00  0.00    +0.228 C 
ATOM     10  O   UNL     1       1.644   4.013   2.675  0.00  0.00    -0.275 OA
ATOM     11  H   UNL     1       2.513   8.144  -0.125  0.00  0.00    +0.124 HD
ENDROOT
BRANCH   5  12
ATOM     12  C   UNL     1       0.108   6.820  -1.731  0.00  0.00    -0.030 A 
ATOM     13  C   UNL     1      -0.965   7.178  -0.935  0.00  0.00    +0.006 A 
ATOM     14  C   UNL     1      -2.215   7.353  -1.495  0.00  0.00    +0.009 A 
ATOM     15  C   UNL     1      -2.393   7.169  -2.864  0.00  0.00    -0.018 A 
ATOM     16  C   UNL     1      -1.308   6.809  -3.661  0.00  0.00    +0.009 A 
ATOM     17  C   UNL     1      -0.062   6.642  -3.092  0.00  0.00    +0.006 A 
BRANCH  15  18
ATOM     18  C   UNL     1      -3.734   7.356  -3.472  0.00  0.00    -0.018 A 
ATOM     19  C   UNL     1      -4.818   7.721  -2.676  0.00  0.00    +0.008 A 
ATOM     20  C   UNL     1      -6.063   7.893  -3.246  0.00  0.00    +0.001 A 
ATOM     21  C   UNL     1      -6.236   7.704  -4.605  0.00  0.00    +0.000 A 
ATOM     22  C   UNL     1      -5.164   7.341  -5.400  0.00  0.00    +0.001 A 
ATOM     23  C   UNL     1      -3.913   7.172  -4.841  0.00  0.00    +0.008 A 
ENDBRANCH  15  18
ENDBRANCH   5  12
BRANCH   7  24
ATOM     24  C   UNL     1       1.146   7.553   2.431  0.00  0.00    +0.377 C 
ATOM     25  O   UNL     1       0.691   8.670   2.253  0.00  0.00    -0.244 OA
ATOM     26  O   UNL     1       1.101   7.046   3.539  0.00  0.00    -0.244 OA
ENDBRANCH   7  24
BRANCH   1  27
ATOM     27  C   UNL     1       1.238   1.879   0.700  0.00  0.00    +0.129 C 
BRANCH  27  28
ATOM     28  C   UNL     1      -0.210   1.403   0.833  0.00  0.00    +0.108 C 
BRANCH  28  30
ATOM     29  C   UNL     1      -0.247  -1.219   1.190  0.00  0.00    +0.004 C 
ATOM     30  C   UNL     1      -0.231  -0.056   1.032  0.00  0.00    -0.104 C 
ENDBRANCH  28  30
ENDBRANCH  27  28
ENDBRANCH   1  27
BRANCH   7  31
ATOM     31  C   UNL     1       3.215   6.428   1.591  0.00  0.00    +0.069 C 
BRANCH  31  32
ATOM     32  C   UNL     1       4.012   7.683   1.836  0.00  0.00    -0.045 A 
ATOM     33  C   UNL     1       4.637   8.322   0.782  0.00  0.00    +0.006 A 
ATOM     34  C   UNL     1       5.368   9.473   1.007  0.00  0.00    +0.033 A 
ATOM     35  C   UNL     1       5.475   9.986   2.286  0.00  0.00    +0.126 A 
ATOM     36  C   UNL     1       4.849   9.347   3.341  0.00  0.00    +0.033 A 
ATOM     37  C   UNL     1       4.114   8.199   3.115  0.00  0.00    +0.006 A 
BRANCH  35  38
ATOM     38  N   UNL     1       6.259  11.218   2.527  0.00  0.00    +0.056 N 
ATOM     39  O   UNL     1       6.806  11.776   1.605  0.00  0.00    -0.126 OA
ATOM     40  O   UNL     1       6.351  11.666   3.646  0.00  0.00    -0.126 OA
ENDBRANCH  35  38
ENDBRANCH  31  32
ENDBRANCH   7  31
TORSDOF 9
