REMARK  Name = ZINC38904001
REMARK  14 active torsions:
REMARK  status: ('A' for Active; 'I' for Inactive)
REMARK    1  A    between atoms: C_1  and  C_2
REMARK    2  A    between atoms: C_7  and  C_8
REMARK    3  A    between atoms: C_8  and  C_10
REMARK    4  A    between atoms: C_8  and  N_13
REMARK    5  A    between atoms: C_10  and  C_11
REMARK    6  A    between atoms: C_10  and  C_12
REMARK    7  A    between atoms: C_14  and  C_16
REMARK    8  A    between atoms: N_21  and  C_23
REMARK    9  A    between atoms: C_23  and  C_24
REMARK   10  A    between atoms: C_26  and  C_29
REMARK   11  A    between atoms: C_32  and  C_35
REMARK   12  A    between atoms: C_35  and  C_36
REMARK   13  A    between atoms: C_35  and  C_37
REMARK   14  A    between atoms: C_35  and  C_38
REMARK                            x       y       z     vdW  Elec       q    Type
REMARK                         _______ _______ _______ _____ _____    ______ ____
ROOT
ATOM      1  C   UNL     1      -0.143  -1.639   5.980  0.00  0.00    +0.058 C 
ATOM      2  C   UNL     1       1.075  -2.568   5.941  0.00  0.00    +0.009 C 
ATOM      3  C   UNL     1       0.940  -3.616   7.050  0.00  0.00    -0.018 C 
ATOM      4  C   UNL     1       0.794  -2.908   8.399  0.00  0.00    -0.078 C 
ATOM      5  N   UNL     1      -0.401  -2.056   8.381  0.00  0.00    +0.386 N 
ATOM      6  C   UNL     1      -0.250  -1.005   7.369  0.00  0.00    -0.065 C 
ATOM      7  H   UNL     1      -1.210  -2.618   8.162  0.00  0.00    -0.081 HD
ENDROOT
BRANCH   1   9
ATOM      8  N   UNL     1       0.132  -0.885   3.641  0.00  0.00    -0.308 N 
ATOM      9  C   UNL     1       0.016  -0.558   4.943  0.00  0.00    +0.215 C 
ATOM     10  O   UNL     1       0.040   0.607   5.280  0.00  0.00    -0.276 OA
ATOM     11  H   UNL     1       0.114  -1.816   3.371  0.00  0.00    +0.149 HD
BRANCH   8  12
ATOM     12  C   UNL     1       0.287   0.167   2.633  0.00  0.00    +0.106 C 
BRANCH  12  19
ATOM     13  C   UNL     1      -0.888   2.020   0.754  0.00  0.00    +0.044 C 
ATOM     14  C   UNL     1      -0.790   0.557   0.407  0.00  0.00    -0.045 A 
ATOM     15  C   UNL     1      -1.256   0.102  -0.812  0.00  0.00    +0.004 A 
ATOM     16  C   UNL     1      -1.166  -1.240  -1.130  0.00  0.00    +0.000 A 
ATOM     17  C   UNL     1      -0.608  -2.127  -0.229  0.00  0.00    +0.000 A 
ATOM     18  C   UNL     1      -0.141  -1.673   0.990  0.00  0.00    +0.006 A 
ATOM     19  C   UNL     1      -0.228  -0.330   1.306  0.00  0.00    -0.024 A 
ENDBRANCH  12  19
BRANCH  12  20
ATOM     20  C   UNL     1       1.766   0.534   2.501  0.00  0.00    +0.008 C 
ATOM     21  C   UNL     1       2.553  -0.685   2.012  0.00  0.00    +0.009 C 
ATOM     22  C   UNL     1       1.921   1.677   1.496  0.00  0.00    +0.009 C 
ENDBRANCH  12  20
ENDBRANCH   8  12
ENDBRANCH   1   9
BRANCH   5  23
ATOM     23  C   UNL     1      -0.581  -1.440   9.702  0.00  0.00    +0.022 C 
BRANCH  23  24
ATOM     24  C   UNL     1      -0.869  -2.511  10.722  0.00  0.00    +0.211 A 
ATOM     25  N   UNL     1       0.021  -3.149  11.428  0.00  0.00    -0.193 NA
ATOM     26  C   UNL     1      -0.584  -4.036  12.238  0.00  0.00    +0.202 A 
ATOM     27  N   UNL     1      -1.878  -3.964  12.047  0.00  0.00    -0.056 NA
ATOM     28  O   UNL     1      -2.083  -2.965  11.059  0.00  0.00    -0.340 OA
BRANCH  26  29
ATOM     29  C   UNL     1       0.101  -4.946  13.190  0.00  0.00    +0.022 A 
ATOM     30  C   UNL     1       1.490  -4.923  13.304  0.00  0.00    +0.012 A 
ATOM     31  C   UNL     1       2.121  -5.771  14.191  0.00  0.00    +0.005 A 
ATOM     32  C   UNL     1       1.378  -6.644  14.965  0.00  0.00    -0.042 A 
ATOM     33  C   UNL     1      -0.000  -6.671  14.857  0.00  0.00    +0.005 A 
ATOM     34  C   UNL     1      -0.643  -5.822  13.977  0.00  0.00    +0.012 A 
BRANCH  32  35
ATOM     35  C   UNL     1       2.074  -7.568  15.931  0.00  0.00    -0.013 C 
ATOM     36  C   UNL     1       2.860  -6.742  16.952  0.00  0.00    +0.015 C 
ATOM     37  C   UNL     1       1.033  -8.422  16.659  0.00  0.00    +0.015 C 
ATOM     38  C   UNL     1       3.034  -8.479  15.164  0.00  0.00    +0.015 C 
ENDBRANCH  32  35
ENDBRANCH  26  29
ENDBRANCH  23  24
ENDBRANCH   5  23
TORSDOF 8
