REMARK  Name = ZINC12149077
REMARK  4 active torsions:
REMARK  status: ('A' for Active; 'I' for Inactive)
REMARK    1  A    between atoms: C_1  and  C_2
REMARK    2  A    between atoms: C_10  and  C_11
REMARK    3  A    between atoms: C_18  and  N_60
REMARK    4  A    between atoms: N_26  and  C_27
REMARK                            x       y       z     vdW  Elec       q    Type
REMARK                         _______ _______ _______ _____ _____    ______ ____
ROOT
ATOM      1  C   UNL     1      -0.424   2.641  -0.318  0.00  0.00    +0.046 C 
ATOM      2  C   UNL     1      -0.988   2.120   0.980  0.00  0.00    -0.019 A 
ATOM      3  C   UNL     1      -0.185   2.079   2.127  0.00  0.00    +0.051 A 
ATOM      4  C   UNL     1       1.177   2.474   2.292  0.00  0.00    +0.131 A 
ATOM      5  N   UNL     1       1.746   2.347   3.479  0.00  0.00    -0.220 NA
ATOM      6  C   UNL     1       1.098   1.866   4.524  0.00  0.00    +0.224 A 
ATOM      7  N   UNL     1      -0.162   1.484   4.438  0.00  0.00    -0.228 NA
ATOM      8  C   UNL     1      -0.809   1.573   3.294  0.00  0.00    +0.114 A 
ATOM      9  S   UNL     1      -2.452   1.188   2.743  0.00  0.00    -0.064 S 
ATOM     10  C   UNL     1      -2.279   1.695   1.041  0.00  0.00    +0.080 A 
ATOM     11  N   UNL     1       1.890   2.982   1.226  0.00  0.00    -0.326 N 
ATOM     12  H   UNL     1       1.446   3.147   0.379  0.00  0.00    +0.148 HD
ENDROOT
BRANCH  10  13
ATOM     13  C   UNL     1      -3.283   1.660  -0.030  0.00  0.00    +0.253 C 
ATOM     14  O   UNL     1      -2.998   1.187  -1.115  0.00  0.00    -0.269 OA
ATOM     15  N   UNL     1      -4.519   2.150   0.188  0.00  0.00    -0.301 N 
ATOM     16  C   UNL     1      -4.885   2.722   1.492  0.00  0.00    +0.089 C 
ATOM     17  C   UNL     1      -5.500   4.110   1.254  0.00  0.00    -0.059 C 
ATOM     18  C   UNL     1      -6.131   3.528  -1.014  0.00  0.00    -0.059 C 
ATOM     19  C   UNL     1      -5.540   2.122  -0.871  0.00  0.00    +0.089 C 
ATOM     20  N   UNL     1      -6.628   3.971   0.307  0.00  0.00    +0.385 N 
ATOM     21  H   UNL     1      -7.282   3.268   0.670  0.00  0.00    -0.081 HD
BRANCH  20  22
ATOM     22  C   UNL     1      -7.336   5.261   0.173  0.00  0.00    -0.046 C 
ATOM     23  C   UNL     1      -8.560   5.072  -0.737  0.00  0.00    +0.009 C 
ATOM     24  C   UNL     1      -9.501   6.295  -0.619  0.00  0.00    +0.164 C 
ATOM     25  S   UNL     1      -9.166   6.898   1.086  0.00  0.00    -0.033 S 
ATOM     26  O   UNL     1      -8.617   8.207   1.015  0.00  0.00    -0.174 OA
ATOM     27  O   UNL     1     -10.313   6.664   1.893  0.00  0.00    -0.174 OA
ATOM     28  C   UNL     1      -7.839   5.716   1.573  0.00  0.00    +0.151 C 
ENDBRANCH  20  22
ENDBRANCH  10  13
BRANCH  11  29
ATOM     29  C   UNL     1       3.319   3.273   1.372  0.00  0.00    +0.072 C 
ATOM     30  C   UNL     1       3.514   4.700   1.924  0.00  0.00    +0.022 C 
ATOM     31  C   UNL     1       4.771   5.224   1.184  0.00  0.00    +0.002 C 
ATOM     32  C   UNL     1       4.598   4.639  -0.240  0.00  0.00    +0.002 C 
ATOM     33  C   UNL     1       4.008   3.234  -0.003  0.00  0.00    +0.022 C 
ENDBRANCH  11  29
TORSDOF 3
