REMARK  Name = ZINC23802716
REMARK  7 active torsions:
REMARK  status: ('A' for Active; 'I' for Inactive)
REMARK    1  A    between atoms: C_1  and  C_2
REMARK    2  A    between atoms: C_5  and  C_23
REMARK    3  A    between atoms: C_6  and  C_8
REMARK    4  A    between atoms: C_8  and  N_10
REMARK    5  A    between atoms: N_17  and  C_20
REMARK    6  A    between atoms: C_20  and  C_21
REMARK    7  A    between atoms: C_20  and  C_22
REMARK                            x       y       z     vdW  Elec       q    Type
REMARK                         _______ _______ _______ _____ _____    ______ ____
ROOT
ATOM      1  N   UNL     1      -0.461  -0.629  -3.625  0.00  0.00    -0.152 NA
ATOM      2  C   UNL     1      -0.592   0.066  -4.821  0.00  0.00    +0.164 A 
ATOM      3  N   UNL     1      -0.547   1.366  -5.032  0.00  0.00    -0.339 N 
ATOM      4  C   UNL     1      -0.685   1.889  -6.245  0.00  0.00    +0.030 A 
ATOM      5  C   UNL     1      -0.889   1.005  -7.258  0.00  0.00    +0.026 A 
ATOM      6  S   UNL     1      -0.865  -0.556  -6.422  0.00  0.00    -0.056 S 
ATOM      7  C   UNL     1      -1.083   1.319  -8.702  0.00  0.00    +0.129 C 
ATOM      8  N   UNL     1      -1.367   2.763  -8.823  0.00  0.00    -0.295 NA
ATOM      9  C   UNL     1      -0.392   3.550  -8.056  0.00  0.00    +0.091 C 
ATOM     10  C   UNL     1      -0.635   3.382  -6.554  0.00  0.00    +0.069 C 
ATOM     11  H   UNL     1      -0.391   2.055  -4.189  0.00  0.00    +0.167 HD
ENDROOT
BRANCH   8  12
ATOM     12  C   UNL     1      -1.388   3.178 -10.232  0.00  0.00    +0.051 C 
ATOM     13  C   UNL     1      -0.019   2.915 -10.862  0.00  0.00    +0.024 C 
ATOM     14  C   UNL     1      -2.456   2.381 -10.983  0.00  0.00    +0.024 C 
ENDBRANCH   8  12
BRANCH   1  15
ATOM     15  C   UNL     1      -0.251   0.042  -2.475  0.00  0.00    +0.270 C 
ATOM     16  O   UNL     1      -0.176   1.255  -2.484  0.00  0.00    -0.268 OA
BRANCH  15  22
ATOM     17  C   UNL     1       0.104  -4.284  -0.013  0.00  0.00    +0.044 C 
ATOM     18  C   UNL     1       0.060  -2.778  -0.014  0.00  0.00    -0.050 A 
ATOM     19  C   UNL     1       0.145  -2.084   1.181  0.00  0.00    +0.003 A 
ATOM     20  C   UNL     1       0.105  -0.701   1.189  0.00  0.00    +0.004 A 
ATOM     21  C   UNL     1      -0.020  -0.004   0.005  0.00  0.00    -0.038 A 
ATOM     22  C   UNL     1      -0.111  -0.698  -1.203  0.00  0.00    +0.042 A 
ATOM     23  C   UNL     1      -0.065  -2.094  -1.205  0.00  0.00    +0.016 A 
ATOM     24  C   UNL     1      -0.064   1.502   0.016  0.00  0.00    +0.044 C 
ENDBRANCH  15  22
ENDBRANCH   1  15
TORSDOF 3
