REMARK  Name = ZINC10315640
REMARK  8 active torsions:
REMARK  status: ('A' for Active; 'I' for Inactive)
REMARK    1  A    between atoms: C_1  and  C_2
REMARK    2  A    between atoms: C_3  and  C_19
REMARK    3  A    between atoms: N_10  and  C_11
REMARK    4  A    between atoms: C_11  and  C_12
REMARK    5  A    between atoms: C_19  and  N_56
REMARK    6  A    between atoms: C_20  and  C_21
REMARK    7  A    between atoms: C_20  and  N_56
REMARK    8  A    between atoms: C_21  and  C_22
REMARK                            x       y       z     vdW  Elec       q    Type
REMARK                         _______ _______ _______ _____ _____    ______ ____
ROOT
ATOM      1  C   UNL     1       2.051   7.387  -0.103  0.00  0.00    +0.064 C 
ATOM      2  C   UNL     1       1.683   5.926  -0.085  0.00  0.00    +0.018 A 
ATOM      3  C   UNL     1       2.559   4.910  -0.144  0.00  0.00    -0.036 A 
ATOM      4  C   UNL     1       1.781   3.670  -0.098  0.00  0.00    +0.001 A 
ATOM      5  C   UNL     1       2.114   2.314  -0.122  0.00  0.00    +0.010 A 
ATOM      6  C   UNL     1       1.126   1.372  -0.061  0.00  0.00    +0.001 A 
ATOM      7  C   UNL     1      -0.207   1.753   0.020  0.00  0.00    +0.002 A 
ATOM      8  C   UNL     1      -0.557   3.085   0.051  0.00  0.00    +0.026 A 
ATOM      9  C   UNL     1       0.433   4.061  -0.010  0.00  0.00    +0.050 A 
ATOM     10  N   UNL     1       0.408   5.437  -0.004  0.00  0.00    -0.339 N 
ENDROOT
BRANCH  10  11
ATOM     11  C   UNL     1      -0.804   6.257   0.075  0.00  0.00    +0.158 C 
BRANCH  11  12
ATOM     12  C   UNL     1      -1.031   6.681   1.503  0.00  0.00    -0.009 A 
ATOM     13  C   UNL     1      -0.506   7.875   1.962  0.00  0.00    +0.007 A 
ATOM     14  C   UNL     1      -0.714   8.263   3.272  0.00  0.00    +0.000 A 
ATOM     15  C   UNL     1      -1.447   7.458   4.125  0.00  0.00    +0.001 A 
ATOM     16  C   UNL     1      -1.972   6.265   3.667  0.00  0.00    +0.020 A 
ATOM     17  C   UNL     1      -1.768   5.877   2.354  0.00  0.00    +0.046 A 
ATOM     18 CL   UNL     1      -2.433   4.381   1.777  0.00  0.00    -0.083 Cl
ENDBRANCH  11  12
ENDBRANCH  10  11
BRANCH   3  19
ATOM     19  C   UNL     1       4.059   5.024  -0.239  0.00  0.00    -0.044 C 
BRANCH  19  20
ATOM     20  N   UNL     1       4.452   5.065  -1.660  0.00  0.00    +0.382 N 
ATOM     21  H   UNL     1       4.011   5.876  -2.110  0.00  0.00    -0.085 HD
ATOM     22  H   UNL     1       4.137   4.204  -2.123  0.00  0.00    -0.085 HD
BRANCH  20  23
ATOM     23  C   UNL     1       5.917   5.177  -1.784  0.00  0.00    -0.077 C 
BRANCH  23  24
ATOM     24  C   UNL     1       6.294   5.217  -3.266  0.00  0.00    +0.018 C 
BRANCH  24  25
ATOM     25  C   UNL     1       7.790   5.331  -3.401  0.00  0.00    -0.024 A 
ATOM     26  C   UNL     1       8.493   6.463  -3.564  0.00  0.00    +0.087 A 
ATOM     27  N   UNL     1       9.829   6.175  -3.647  0.00  0.00    -0.360 N 
ATOM     28  H   UNL     1      10.534   6.831  -3.763  0.00  0.00    +0.165 HD
ATOM     29  C   UNL     1      10.022   4.816  -3.545  0.00  0.00    +0.047 A 
ATOM     30  C   UNL     1       8.753   4.227  -3.386  0.00  0.00    +0.003 A 
ATOM     31  C   UNL     1       8.640   2.842  -3.256  0.00  0.00    +0.010 A 
ATOM     32  C   UNL     1       9.763   2.064  -3.282  0.00  0.00    +0.001 A 
ATOM     33  C   UNL     1      11.016   2.639  -3.438  0.00  0.00    +0.002 A 
ATOM     34  C   UNL     1      11.151   4.004  -3.569  0.00  0.00    +0.026 A 
ENDBRANCH  24  25
ENDBRANCH  23  24
ENDBRANCH  20  23
ENDBRANCH  19  20
ENDBRANCH   3  19
TORSDOF 7
