REMARK  Name = ZINC20760520
REMARK  6 active torsions:
REMARK  status: ('A' for Active; 'I' for Inactive)
REMARK    1  A    between atoms: C_1  and  C_2
REMARK    2  A    between atoms: C_3  and  C_17
REMARK    3  A    between atoms: N_7  and  S_8
REMARK    4  A    between atoms: S_8  and  C_11
REMARK    5  A    between atoms: N_19  and  C_20
REMARK    6  A    between atoms: C_20  and  C_21
REMARK                            x       y       z     vdW  Elec       q    Type
REMARK                         _______ _______ _______ _____ _____    ______ ____
ROOT
ATOM      1  C   UNL     1      -4.229   5.398   4.127  0.00  0.00    +0.054 C 
ATOM      2  C   UNL     1      -3.984   3.991   3.648  0.00  0.00    +0.019 A 
ATOM      3  C   UNL     1      -4.076   2.805   4.332  0.00  0.00    +0.113 A 
ATOM      4  N   UNL     1      -3.807   1.665   3.691  0.00  0.00    -0.328 N 
ATOM      5  C   UNL     1      -3.458   1.662   2.421  0.00  0.00    +0.192 A 
ATOM      6  S   UNL     1      -3.486   3.406   2.033  0.00  0.00    -0.053 S 
ATOM      7  N   UNL     1      -3.146   0.590   1.602  0.00  0.00    -0.103 NA
ATOM      8  H   UNL     1      -3.875   0.705   4.224  0.00  0.00    +0.168 HD
ENDROOT
BRANCH   3   9
ATOM      9  C   UNL     1      -4.464   2.790   5.752  0.00  0.00    +0.261 C 
ATOM     10  O   UNL     1      -4.707   3.834   6.327  0.00  0.00    -0.269 OA
ATOM     11  N   UNL     1      -4.551   1.619   6.414  0.00  0.00    -0.310 N 
ATOM     12  H   UNL     1      -4.331   0.675   5.894  0.00  0.00    +0.149 HD
BRANCH  11  13
ATOM     13  C   UNL     1      -4.938   1.605   7.827  0.00  0.00    +0.106 C 
BRANCH  13  14
ATOM     14  C   UNL     1      -4.960   0.161   8.335  0.00  0.00    -0.008 C 
ATOM     15  C   UNL     1      -6.050  -0.620   7.599  0.00  0.00    +0.002 C 
ATOM     16  C   UNL     1      -7.407   0.018   7.912  0.00  0.00    -0.018 C 
ATOM     17  C   UNL     1      -7.630  -0.011   9.424  0.00  0.00    -0.078 C 
ATOM     18  N   UNL     1      -6.563   0.737  10.107  0.00  0.00    +0.382 N 
ATOM     19  C   UNL     1      -5.242   0.155   9.841  0.00  0.00    -0.064 C 
ATOM     20  C   UNL     1      -4.154   0.984  10.532  0.00  0.00    -0.015 C 
ATOM     21  C   UNL     1      -4.423   1.043  12.036  0.00  0.00    -0.003 C 
ATOM     22  C   UNL     1      -5.812   1.649  12.264  0.00  0.00    -0.019 C 
ATOM     23  C   UNL     1      -6.851   0.785  11.549  0.00  0.00    -0.078 C 
ATOM     24  H   UNL     1      -6.535   1.763   9.712  0.00  0.00    -0.081 HD
ENDBRANCH  13  14
ENDBRANCH  11  13
ENDBRANCH   3   9
BRANCH   7  25
ATOM     25  S   UNL     1      -2.733   0.849   0.020  0.00  0.00    +0.101 S 
ATOM     26  O   UNL     1      -3.722   1.714  -0.522  0.00  0.00    -0.146 OA
ATOM     27  O   UNL     1      -2.447  -0.426  -0.539  0.00  0.00    -0.146 OA
BRANCH  25  28
ATOM     28  C   UNL     1      -1.219   1.751   0.017  0.00  0.00    +0.113 A 
ATOM     29  C   UNL     1      -0.013   1.076   0.008  0.00  0.00    +0.029 A 
ATOM     30  C   UNL     1       1.175   1.783   0.000  0.00  0.00    +0.002 A 
ATOM     31  C   UNL     1       1.156   3.165   0.008  0.00  0.00    +0.000 A 
ATOM     32  C   UNL     1      -0.050   3.840   0.022  0.00  0.00    +0.002 A 
ATOM     33  C   UNL     1      -1.238   3.133   0.030  0.00  0.00    +0.029 A 
ENDBRANCH  25  28
ENDBRANCH   7  25
TORSDOF 5
