REMARK  Name = ZINC08971696
REMARK  11 active torsions:
REMARK  status: ('A' for Active; 'I' for Inactive)
REMARK    1  A    between atoms: C_1  and  C_2
REMARK    2  A    between atoms: C_2  and  O_3
REMARK    3  A    between atoms: O_3  and  C_4
REMARK    4  A    between atoms: C_4  and  C_6
REMARK    5  A    between atoms: C_9  and  N_12
REMARK    6  A    between atoms: C_13  and  C_15
REMARK    7  A    between atoms: C_18  and  C_32
REMARK    8  A    between atoms: C_24  and  C_31
REMARK    9  A    between atoms: C_25  and  C_30
REMARK   10  A    between atoms: C_32  and  C_34
REMARK   11  A    between atoms: C_32  and  O_35
REMARK                            x       y       z     vdW  Elec       q    Type
REMARK                         _______ _______ _______ _____ _____    ______ ____
ROOT
ATOM      1  C   UNL     1      -2.447   0.738  -0.026  0.00  0.00    +0.076 C 
ATOM      2  C   UNL     1      -2.656   0.035   1.338  0.00  0.00    -0.001 C 
ATOM      3  C   UNL     1      -3.684   0.953   2.047  0.00  0.00    -0.040 C 
ATOM      4  C   UNL     1      -3.701   1.598  -0.220  0.00  0.00    +0.049 C 
ATOM      5  C   UNL     1      -3.343   3.052  -0.369  0.00  0.00    -0.027 A 
ATOM      6  C   UNL     1      -2.694   3.953   0.446  0.00  0.00    +0.005 A 
ATOM      7  C   UNL     1      -2.509   5.258   0.024  0.00  0.00    +0.004 A 
ATOM      8  C   UNL     1      -2.976   5.653  -1.216  0.00  0.00    -0.046 A 
ATOM      9  C   UNL     1      -3.626   4.754  -2.035  0.00  0.00    -0.026 A 
ATOM     10  C   UNL     1      -3.816   3.438  -1.619  0.00  0.00    +0.039 A 
ATOM     11  N   UNL     1      -4.431   2.359  -2.256  0.00  0.00    -0.286 N 
ATOM     12  C   UNL     1      -4.405   1.242  -1.504  0.00  0.00    +0.211 C 
ATOM     13  O   UNL     1      -4.861   0.159  -1.803  0.00  0.00    -0.277 OA
ATOM     14  C   UNL     1      -4.132   5.196  -3.384  0.00  0.00    +0.046 C 
ATOM     15  C   UNL     1      -2.775   7.075  -1.674  0.00  0.00    +0.044 C 
ATOM     16  H   UNL     1      -4.831   2.408  -3.138  0.00  0.00    +0.155 HD
ATOM     17  N   UNL     1      -4.553   1.381   0.940  0.00  0.00    +0.395 N 
ATOM     18  H   UNL     1      -5.037   2.252   1.189  0.00  0.00    -0.083 HD
ATOM     19  H   UNL     1      -5.247   0.651   0.735  0.00  0.00    -0.083 HD
ENDROOT
BRANCH   1  21
ATOM     20  N   UNL     1      -0.616   1.977  -1.133  0.00  0.00    -0.285 N 
ATOM     21  C   UNL     1      -1.217   1.606   0.015  0.00  0.00    +0.220 C 
ATOM     22  O   UNL     1      -0.767   1.972   1.080  0.00  0.00    -0.275 OA
ATOM     23  H   UNL     1      -1.014   1.744  -1.986  0.00  0.00    +0.155 HD
BRANCH  20  27
ATOM     24  C   UNL     1       2.943   4.139  -1.017  0.00  0.00    +0.059 A 
ATOM     25  C   UNL     1       2.726   3.200  -2.030  0.00  0.00    +0.017 A 
ATOM     26  C   UNL     1       1.549   2.487  -2.065  0.00  0.00    +0.024 A 
ATOM     27  C   UNL     1       0.575   2.701  -1.094  0.00  0.00    +0.033 A 
ATOM     28  C   UNL     1       0.785   3.639  -0.088  0.00  0.00    +0.024 A 
ATOM     29  C   UNL     1       1.962   4.351  -0.044  0.00  0.00    +0.017 A 
BRANCH  24  30
ATOM     30  C   UNL     1       4.202   4.905  -0.976  0.00  0.00    +0.339 C 
ATOM     31  O   UNL     1       5.054   4.719  -1.823  0.00  0.00    -0.245 OA
BRANCH  30  32
ATOM     32  O   UNL     1       4.410   5.810   0.000  0.00  0.00    -0.461 OA
BRANCH  32  34
ATOM     33  C   UNL     1       5.725   7.502   1.155  0.00  0.00    +0.048 C 
ATOM     34  C   UNL     1       5.672   6.526  -0.021  0.00  0.00    +0.229 C 
ENDBRANCH  32  34
ENDBRANCH  30  32
ENDBRANCH  24  30
ENDBRANCH  20  27
ENDBRANCH   1  21
BRANCH   3  35
ATOM     35  C   UNL     1      -4.469   0.173   3.104  0.00  0.00    +0.098 C 
ATOM     36  C   UNL     1      -5.628   1.032   3.615  0.00  0.00    +0.036 C 
BRANCH  35  37
ATOM     37  O   UNL     1      -4.986  -1.027   2.525  0.00  0.00    -0.394 OA
ATOM     38  H   UNL     1      -5.582  -0.879   1.778  0.00  0.00    +0.210 HD
ENDBRANCH  35  37
ENDBRANCH   3  35
TORSDOF 7
