REMARK  Name = ZINC08644277
REMARK  7 active torsions:
REMARK  status: ('A' for Active; 'I' for Inactive)
REMARK    1  A    between atoms: C_1  and  C_2
REMARK    2  A    between atoms: C_2  and  C_3
REMARK    3  A    between atoms: C_3  and  C_26
REMARK    4  A    between atoms: N_6  and  C_10
REMARK    5  A    between atoms: C_10  and  C_11
REMARK    6  A    between atoms: N_13  and  C_14
REMARK    7  A    between atoms: C_19  and  N_20
REMARK                            x       y       z     vdW  Elec       q    Type
REMARK                         _______ _______ _______ _____ _____    ______ ____
ROOT
ATOM      1  C   UNL     1      -3.775   1.670   2.780  0.00  0.00    +0.214 C 
ENDROOT
BRANCH   1   5
ATOM      2  C   UNL     1      -1.333   2.119   0.017  0.00  0.00    +0.138 C 
ATOM      3  C   UNL     1      -1.799   2.362   1.439  0.00  0.00    +0.251 C 
ATOM      4  O   UNL     1      -1.237   3.014   2.292  0.00  0.00    -0.272 OA
ATOM      5  N   UNL     1      -2.969   1.704   1.557  0.00  0.00    -0.215 N 
ATOM      6  C   UNL     1      -3.304   1.085   0.419  0.00  0.00    +0.310 C 
ATOM      7  O   UNL     1      -4.317   0.427   0.280  0.00  0.00    -0.252 OA
ATOM      8  N   UNL     1      -2.395   1.272  -0.554  0.00  0.00    -0.281 N 
ATOM      9  H   UNL     1      -2.431   0.919  -1.457  0.00  0.00    +0.152 HD
BRANCH   2  10
ATOM     10  C   UNL     1      -0.013   1.392   0.009  0.00  0.00    -0.015 A 
ATOM     11  C   UNL     1       1.169   2.107  -0.006  0.00  0.00    +0.006 A 
ATOM     12  C   UNL     1       2.380   1.440  -0.021  0.00  0.00    +0.000 A 
ATOM     13  C   UNL     1       2.408   0.058  -0.019  0.00  0.00    +0.000 A 
ATOM     14  C   UNL     1       1.226  -0.657  -0.003  0.00  0.00    +0.000 A 
ATOM     15  C   UNL     1       0.015   0.010   0.010  0.00  0.00    +0.006 A 
ENDBRANCH   2  10
BRANCH   2  17
ATOM     16  C   UNL     1      -2.575   4.156  -0.723  0.00  0.00    +0.007 C 
ATOM     17  C   UNL     1      -1.224   3.439  -0.747  0.00  0.00    +0.037 C 
ENDBRANCH   2  17
ENDBRANCH   1   5
BRANCH   1  18
ATOM     18  C   UNL     1      -4.748   2.821   2.773  0.00  0.00    +0.235 C 
ATOM     19  O   UNL     1      -4.767   3.593   1.838  0.00  0.00    -0.274 OA
ATOM     20  N   UNL     1      -5.597   2.991   3.805  0.00  0.00    -0.282 N 
ATOM     21  H   UNL     1      -5.638   2.330   4.514  0.00  0.00    +0.155 HD
BRANCH  20  22
ATOM     22  C   UNL     1      -6.420   4.122   3.855  0.00  0.00    +0.061 A 
ATOM     23  C   UNL     1      -6.046   5.284   3.196  0.00  0.00    +0.045 A 
ATOM     24  C   UNL     1      -6.862   6.400   3.245  0.00  0.00    +0.043 A 
ATOM     25  C   UNL     1      -8.052   6.361   3.952  0.00  0.00    +0.022 A 
ATOM     26  C   UNL     1      -8.431   5.208   4.612  0.00  0.00    +0.031 A 
ATOM     27  C   UNL     1      -7.622   4.082   4.562  0.00  0.00    +0.088 A 
ATOM     28 CL   UNL     1      -6.392   7.853   2.420  0.00  0.00    -0.083 Cl
BRANCH  27  29
ATOM     29  N   UNL     1      -8.008   2.908   5.226  0.00  0.00    -0.218 N 
ATOM     30  C   UNL     1      -9.170   2.691   5.870  0.00  0.00    +0.225 A 
ATOM     31  N   UNL     1      -9.145   1.474   6.351  0.00  0.00    -0.222 NA
ATOM     32  C   UNL     1      -7.988   0.890   6.044  0.00  0.00    +0.245 A 
ATOM     33  N   UNL     1      -7.258   1.728   5.356  0.00  0.00    -0.153 NA
ENDBRANCH  27  29
ENDBRANCH  20  22
ENDBRANCH   1  18
TORSDOF 6
