REMARK  Name = ZINC58929328
REMARK  2 active torsions:
REMARK  status: ('A' for Active; 'I' for Inactive)
REMARK    1  A    between atoms: C_5  and  N_7
REMARK    2  A    between atoms: C_11  and  C_20
REMARK                            x       y       z     vdW  Elec       q    Type
REMARK                         _______ _______ _______ _____ _____    ______ ____
ROOT
ATOM      1  C   UNL     1       0.018   1.378   0.276  0.00  0.00    +0.003 A 
ATOM      2  C   UNL     1       1.169   2.089   0.001  0.00  0.00    +0.006 A 
ATOM      3  C   UNL     1       2.354   1.428  -0.288  0.00  0.00    -0.017 A 
ATOM      4  C   UNL     1       2.368   0.041  -0.307  0.00  0.00    +0.062 A 
ATOM      5  C   UNL     1       1.209  -0.673  -0.021  0.00  0.00    +0.147 A 
ATOM      6  C   UNL     1       0.037  -0.005   0.269  0.00  0.00    +0.034 A 
ATOM      7  N   UNL     1       3.532  -0.645  -0.632  0.00  0.00    -0.335 N 
ATOM      8  C   UNL     1       4.769   0.014  -0.987  0.00  0.00    +0.105 C 
ATOM      9  C   UNL     1       4.886   1.435  -0.475  0.00  0.00    +0.029 C 
ATOM     10  C   UNL     1       3.583   2.228  -0.559  0.00  0.00    +0.049 C 
ATOM     11  C   UNL     1       3.571   2.839  -1.937  0.00  0.00    -0.023 C 
ATOM     12  C   UNL     1       4.780   2.845  -2.440  0.00  0.00    -0.030 C 
ATOM     13  C   UNL     1       5.771   2.235  -1.472  0.00  0.00    +0.033 C 
ATOM     14  H   UNL     1       3.513  -1.615  -0.619  0.00  0.00    +0.147 HD
ENDROOT
BRANCH   8  15
ATOM     15  C   UNL     1       5.916  -0.788  -0.429  0.00  0.00    -0.026 A 
ATOM     16  C   UNL     1       5.816  -1.357   0.827  0.00  0.00    +0.007 A 
ATOM     17  C   UNL     1       6.867  -2.092   1.340  0.00  0.00    +0.022 A 
ATOM     18  C   UNL     1       8.021  -2.261   0.596  0.00  0.00    +0.059 A 
ATOM     19  C   UNL     1       8.122  -1.692  -0.662  0.00  0.00    +0.060 A 
ATOM     20  C   UNL     1       7.066  -0.960  -1.176  0.00  0.00    +0.027 A 
ATOM     21 CL   UNL     1       9.570  -1.902  -1.597  0.00  0.00    -0.082 Cl
ATOM     22 CL   UNL     1       9.343  -3.184   1.240  0.00  0.00    -0.082 Cl
ENDBRANCH   8  15
BRANCH   5  23
ATOM     23  N   UNL     1       1.234  -2.153  -0.027  0.00  0.00    +0.058 N 
ATOM     24  O   UNL     1       0.288  -2.771  -0.457  0.00  0.00    -0.126 OA
ATOM     25  O   UNL     1       2.200  -2.743   0.397  0.00  0.00    -0.126 OA
ENDBRANCH   5  23
TORSDOF 2
