REMARK  Name = ZINC23159064
REMARK  6 active torsions:
REMARK  status: ('A' for Active; 'I' for Inactive)
REMARK    1  A    between atoms: C_1  and  C_2
REMARK    2  A    between atoms: C_9  and  C_11
REMARK    3  A    between atoms: C_11  and  N_12
REMARK    4  A    between atoms: N_12  and  C_13
REMARK    5  A    between atoms: N_16  and  C_19
REMARK    6  A    between atoms: C_23  and  N_25
REMARK                            x       y       z     vdW  Elec       q    Type
REMARK                         _______ _______ _______ _____ _____    ______ ____
ROOT
ATOM      1  C   UNL     1       4.504   6.544   1.414  0.00  0.00    -0.068 C 
ATOM      2  C   UNL     1       6.009   6.288   1.294  0.00  0.00    +0.003 C 
ATOM      3  C   UNL     1       6.758   7.619   1.396  0.00  0.00    +0.103 C 
ATOM      4  N   UNL     1       6.453   8.257   2.683  0.00  0.00    -0.330 N 
ATOM      5  C   UNL     1       5.020   8.555   2.801  0.00  0.00    +0.103 C 
ATOM      6  C   UNL     1       4.219   7.252   2.742  0.00  0.00    +0.003 C 
ENDROOT
BRANCH   4   7
ATOM      7  C   UNL     1       7.221   9.409   2.865  0.00  0.00    +0.032 A 
ATOM      8  C   UNL     1       6.600  10.627   3.114  0.00  0.00    +0.023 A 
ATOM      9  C   UNL     1       7.359  11.766   3.300  0.00  0.00    +0.004 A 
ATOM     10  C   UNL     1       8.738  11.700   3.227  0.00  0.00    +0.028 A 
ATOM     11  C   UNL     1       9.364  10.487   2.973  0.00  0.00    +0.067 A 
ATOM     12  C   UNL     1       8.605   9.340   2.792  0.00  0.00    +0.051 A 
BRANCH  11  13
ATOM     13  N   UNL     1      10.763  10.421   2.900  0.00  0.00    -0.240 N 
ATOM     14  C   UNL     1      11.617  11.458   3.051  0.00  0.00    +0.114 A 
ATOM     15  C   UNL     1      12.875  10.979   2.913  0.00  0.00    +0.041 A 
ATOM     16  C   UNL     1      12.787   9.606   2.660  0.00  0.00    +0.135 A 
ATOM     17  N   UNL     1      11.522   9.271   2.652  0.00  0.00    -0.175 NA
ENDBRANCH  11  13
ENDBRANCH   4   7
BRANCH   1  18
ATOM     18  N   UNL     1       3.784   5.264   1.376  0.00  0.00    +0.387 N 
ATOM     19  H   UNL     1       2.827   5.382   1.905  0.00  0.00    -0.085 HD
ATOM     20  H   UNL     1       4.392   4.502   1.886  0.00  0.00    -0.085 HD
BRANCH  18  21
ATOM     21  C   UNL     1       3.531   4.843  -0.008  0.00  0.00    +0.015 C 
BRANCH  21  30
ATOM     22  C   UNL     1      -1.330   2.112   0.020  0.00  0.00    +0.046 C 
ATOM     23  C   UNL     1      -0.017   1.373   0.010  0.00  0.00    -0.021 A 
ATOM     24  C   UNL     1       0.002  -0.004   0.002  0.00  0.00    +0.005 A 
ATOM     25  C   UNL     1       1.207  -0.690  -0.013  0.00  0.00    +0.004 A 
ATOM     26  C   UNL     1       2.403  -0.003  -0.021  0.00  0.00    +0.048 A 
ATOM     27  C   UNL     1       2.403   1.384  -0.013  0.00  0.00    +0.155 A 
ATOM     28  C   UNL     1       1.186   2.082   0.002  0.00  0.00    +0.112 A 
ATOM     29  N   UNL     1       1.499   3.405   0.005  0.00  0.00    -0.215 NA
ATOM     30  C   UNL     1       2.792   3.530  -0.007  0.00  0.00    +0.180 A 
ATOM     31  O   UNL     1       3.376   2.321  -0.017  0.00  0.00    -0.442 OA
ENDBRANCH  21  30
ENDBRANCH  18  21
ENDBRANCH   1  18
TORSDOF 5
