REMARK  Name = ZINC39630749
REMARK  12 active torsions:
REMARK  status: ('A' for Active; 'I' for Inactive)
REMARK    1  A    between atoms: C_1  and  C_2
REMARK    2  A    between atoms: C_3  and  C_14
REMARK    3  A    between atoms: C_4  and  C_7
REMARK    4  A    between atoms: C_18  and  C_27
REMARK    5  A    between atoms: N_29  and  C_30
REMARK    6  A    between atoms: C_30  and  C_31
REMARK    7  A    between atoms: C_31  and  C_32
REMARK    8  A    between atoms: C_31  and  C_33
REMARK    9  A    between atoms: C_31  and  C_34
REMARK   10  A    between atoms: C_34  and  N_35
REMARK   11  A    between atoms: N_35  and  C_36
REMARK   12  A    between atoms: N_35  and  C_37
REMARK                            x       y       z     vdW  Elec       q    Type
REMARK                         _______ _______ _______ _____ _____    ______ ____
ROOT
ATOM      1  C   UNL     1      -3.564   0.556  -0.317  0.00  0.00    +0.252 C 
ATOM      2  O   UNL     1      -4.064   0.842  -1.388  0.00  0.00    -0.270 OA
ATOM      3  N   UNL     1      -4.147   0.960   0.829  0.00  0.00    -0.296 N 
ATOM      4  C   UNL     1      -3.641   0.797   2.212  0.00  0.00    +0.121 C 
ATOM      5  C   UNL     1      -3.999   2.125   2.918  0.00  0.00    +0.100 C 
ATOM      6  C   UNL     1      -5.181   2.690   2.112  0.00  0.00    -0.004 C 
ATOM      7  C   UNL     1      -5.436   1.674   0.990  0.00  0.00    +0.115 C 
ATOM      8  C   UNL     1      -4.814   4.045   1.516  0.00  0.00    -0.010 C 
ATOM      9  C   UNL     1      -6.023   4.613   0.768  0.00  0.00    -0.082 C 
ATOM     10  N   UNL     1      -7.152   4.755   1.695  0.00  0.00    +0.379 N 
ATOM     11  C   UNL     1      -7.559   3.435   2.193  0.00  0.00    -0.082 C 
ATOM     12  C   UNL     1      -6.415   2.817   3.001  0.00  0.00    -0.010 C 
ATOM     13  H   UNL     1      -6.876   5.336   2.472  0.00  0.00    -0.086 HD
ATOM     14  H   UNL     1      -7.928   5.185   1.215  0.00  0.00    -0.086 HD
ENDROOT
BRANCH   1  17
ATOM     15  C   UNL     1      -0.666   1.684  -0.628  0.00  0.00    +0.090 C 
ATOM     16  C   UNL     1      -1.050   0.244  -0.406  0.00  0.00    +0.147 A 
ATOM     17  C   UNL     1      -2.321  -0.233  -0.272  0.00  0.00    +0.106 A 
ATOM     18  C   UNL     1      -2.210  -1.686  -0.075  0.00  0.00    +0.127 A 
ATOM     19  N   UNL     1      -0.934  -1.978  -0.101  0.00  0.00    -0.077 NA
ATOM     20  O   UNL     1      -0.204  -0.786  -0.311  0.00  0.00    -0.359 OA
BRANCH  18  21
ATOM     21  C   UNL     1      -3.330  -2.639   0.117  0.00  0.00    +0.023 A 
ATOM     22  C   UNL     1      -4.647  -2.181   0.116  0.00  0.00    +0.011 A 
ATOM     23  C   UNL     1      -5.685  -3.072   0.295  0.00  0.00    +0.001 A 
ATOM     24  C   UNL     1      -5.422  -4.418   0.476  0.00  0.00    +0.001 A 
ATOM     25  C   UNL     1      -4.119  -4.880   0.479  0.00  0.00    +0.020 A 
ATOM     26  C   UNL     1      -3.071  -3.998   0.294  0.00  0.00    +0.050 A 
ATOM     27 CL   UNL     1      -1.435  -4.579   0.290  0.00  0.00    -0.083 Cl
ENDBRANCH  18  21
ENDBRANCH   1  17
BRANCH   5  28
ATOM     28  C   UNL     1      -2.830   3.074   2.875  0.00  0.00    +0.218 C 
ATOM     29  O   UNL     1      -2.010   2.987   1.986  0.00  0.00    -0.275 OA
ATOM     30  N   UNL     1      -2.696   4.021   3.825  0.00  0.00    -0.315 N 
ATOM     31  H   UNL     1      -3.352   4.091   4.536  0.00  0.00    +0.149 HD
BRANCH  30  32
ATOM     32  C   UNL     1      -1.559   4.944   3.784  0.00  0.00    +0.108 C 
BRANCH  32  33
ATOM     33  C   UNL     1      -1.644   5.910   4.967  0.00  0.00    -0.034 C 
ATOM     34  C   UNL     1      -2.949   6.705   4.884  0.00  0.00    +0.010 C 
ATOM     35  C   UNL     1      -1.610   5.119   6.275  0.00  0.00    +0.010 C 
BRANCH  33  36
ATOM     36  C   UNL     1      -0.456   6.875   4.923  0.00  0.00    -0.072 C 
BRANCH  36  37
ATOM     37  N   UNL     1      -0.487   7.742   6.109  0.00  0.00    +0.376 N 
ATOM     38  C   UNL     1       0.189   7.069   7.226  0.00  0.00    -0.097 C 
ATOM     39  C   UNL     1       0.203   9.004   5.809  0.00  0.00    -0.097 C 
ATOM     40  H   UNL     1      -1.445   7.934   6.361  0.00  0.00    -0.083 HD
ENDBRANCH  36  37
ENDBRANCH  33  36
ENDBRANCH  32  33
ENDBRANCH  30  32
ENDBRANCH   5  28
TORSDOF 7
