REMARK  Name = ZINC09111684
REMARK  8 active torsions:
REMARK  status: ('A' for Active; 'I' for Inactive)
REMARK    1  A    between atoms: C_3  and  S_17
REMARK    2  A    between atoms: C_6  and  S_7
REMARK    3  A    between atoms: S_7  and  N_10
REMARK    4  A    between atoms: S_17  and  C_18
REMARK    5  A    between atoms: C_18  and  C_19
REMARK    6  A    between atoms: C_19  and  C_21
REMARK    7  A    between atoms: C_22  and  N_33
REMARK    8  A    between atoms: N_23  and  C_30
REMARK                            x       y       z     vdW  Elec       q    Type
REMARK                         _______ _______ _______ _____ _____    ______ ____
ROOT
ATOM      1  C   UNL     1      -4.591   2.444   5.517  0.00  0.00    +0.155 C 
ENDROOT
BRANCH   1   2
ATOM      2  C   UNL     1      -5.234   3.340   6.544  0.00  0.00    +0.182 C 
ATOM      3  O   UNL     1      -4.610   3.679   7.530  0.00  0.00    -0.291 OA
BRANCH   2   4
ATOM      4  C   UNL     1      -6.560   3.786   6.360  0.00  0.00    +0.120 A 
ATOM      5  C   UNL     1      -7.230   4.504   7.366  0.00  0.00    +0.116 A 
ATOM      6  N   UNL     1      -8.511   4.920   7.139  0.00  0.00    -0.278 N 
ATOM      7  C   UNL     1      -9.139   4.646   5.985  0.00  0.00    +0.331 A 
ATOM      8  O   UNL     1     -10.281   5.034   5.834  0.00  0.00    -0.246 OA
ATOM      9  N   UNL     1      -8.553   3.959   4.991  0.00  0.00    -0.274 N 
ATOM     10  H   UNL     1      -9.061   3.779   4.149  0.00  0.00    +0.173 HD
ATOM     11  C   UNL     1      -7.287   3.509   5.114  0.00  0.00    +0.266 A 
ATOM     12  O   UNL     1      -6.758   2.888   4.211  0.00  0.00    -0.267 OA
BRANCH   6  13
ATOM     13  C   UNL     1      -9.215   5.674   8.179  0.00  0.00    +0.094 C 
ATOM     14  C   UNL     1      -9.954   6.945   7.752  0.00  0.00    +0.027 C 
ATOM     15  C   UNL     1      -8.656   7.047   8.557  0.00  0.00    +0.027 C 
ENDBRANCH   6  13
BRANCH   5  16
ATOM     16  N   UNL     1      -6.610   4.786   8.544  0.00  0.00    -0.344 N 
ATOM     17  H   UNL     1      -5.643   4.858   8.578  0.00  0.00    +0.144 HD
ATOM     18  H   UNL     1      -7.134   4.915   9.349  0.00  0.00    +0.144 HD
ENDBRANCH   5  16
ENDBRANCH   2   4
ENDBRANCH   1   2
BRANCH   1  19
ATOM     19  S   UNL     1      -2.898   2.047   6.035  0.00  0.00    -0.098 S 
BRANCH  19  22
ATOM     20  C   UNL     1      -0.532  -0.309   3.803  0.00  0.00    +0.032 A 
ATOM     21  C   UNL     1      -0.995   0.506   4.820  0.00  0.00    +0.037 A 
ATOM     22  C   UNL     1      -2.291   1.008   4.748  0.00  0.00    +0.097 A 
ATOM     23  N   UNL     1      -3.073   0.710   3.720  0.00  0.00    -0.247 NA
ATOM     24  C   UNL     1      -2.655  -0.060   2.734  0.00  0.00    +0.140 A 
ATOM     25  C   UNL     1      -1.383  -0.596   2.744  0.00  0.00    +0.124 A 
BRANCH  25  26
ATOM     26  S   UNL     1      -0.842  -1.628   1.423  0.00  0.00    +0.062 S 
ATOM     27  O   UNL     1       0.577  -1.552   1.403  0.00  0.00    -0.153 OA
ATOM     28  O   UNL     1      -1.639  -1.295   0.295  0.00  0.00    -0.153 OA
BRANCH  26  29
ATOM     29  N   UNL     1      -1.226  -3.187   1.830  0.00  0.00    -0.177 NA
ATOM     30  C   UNL     1      -0.255  -3.972   2.560  0.00  0.00    +0.109 C 
ATOM     31  C   UNL     1       0.676  -4.707   1.573  0.00  0.00    +0.017 C 
ATOM     32  C   UNL     1      -0.053  -5.790   0.895  0.00  0.00    +0.001 C 
ATOM     33  C   UNL     1      -1.222  -5.319   0.035  0.00  0.00    +0.001 C 
ATOM     34  C   UNL     1      -2.448  -5.162   0.900  0.00  0.00    +0.017 C 
ATOM     35  C   UNL     1      -2.542  -3.719   1.428  0.00  0.00    +0.109 C 
ENDBRANCH  26  29
ENDBRANCH  25  26
ENDBRANCH  19  22
ENDBRANCH   1  19
TORSDOF 8
