REMARK  Name = ZINC37866288
REMARK  3 active torsions:
REMARK  status: ('A' for Active; 'I' for Inactive)
REMARK    1  A    between atoms: C_9  and  C_11
REMARK    2  A    between atoms: N_15  and  C_19
REMARK    3  A    between atoms: C_22  and  C_25
REMARK                            x       y       z     vdW  Elec       q    Type
REMARK                         _______ _______ _______ _____ _____    ______ ____
ROOT
ATOM      1  C   UNL     1       4.021  -3.029   1.141  0.00  0.00    +0.066 C 
ATOM      2  C   UNL     1       5.245  -3.077   0.554  0.00  0.00    +0.080 C 
ATOM      3  C   UNL     1       6.260  -4.157   0.574  0.00  0.00    +0.263 C 
ATOM      4  O   UNL     1       6.075  -5.199   1.173  0.00  0.00    -0.269 OA
ATOM      5  N   UNL     1       7.377  -3.927  -0.095  0.00  0.00    -0.224 N 
ATOM      6  C   UNL     1       7.578  -2.770  -0.758  0.00  0.00    +0.125 C 
ATOM      7  S   UNL     1       8.944  -2.293  -1.672  0.00  0.00    -0.027 S 
ATOM      8  S   UNL     1       6.071  -1.860  -0.461  0.00  0.00    -0.061 S 
ENDROOT
BRANCH   1  17
ATOM      9  C   UNL     1       0.158   1.536   0.815  0.00  0.00    +0.002 A 
ATOM     10  C   UNL     1       1.167   2.091   0.038  0.00  0.00    +0.002 A 
ATOM     11  C   UNL     1       2.322   1.404  -0.199  0.00  0.00    +0.030 A 
ATOM     12  C   UNL     1       2.498   0.125   0.344  0.00  0.00    +0.089 A 
ATOM     13  C   UNL     1       1.475  -0.437   1.132  0.00  0.00    +0.066 A 
ATOM     14  C   UNL     1       0.307   0.279   1.361  0.00  0.00    +0.028 A 
ATOM     15  N   UNL     1       1.926  -1.682   1.521  0.00  0.00    -0.338 N 
ATOM     16  H   UNL     1       1.450  -2.321   2.074  0.00  0.00    +0.167 HD
ATOM     17  C   UNL     1       3.176  -1.844   0.977  0.00  0.00    +0.133 A 
ATOM     18  N   UNL     1       3.500  -0.773   0.287  0.00  0.00    -0.228 NA
ENDBRANCH   1  17
BRANCH   5  19
ATOM     19  C   UNL     1       8.373  -4.905  -0.115  0.00  0.00    +0.043 A 
ATOM     20  C   UNL     1       9.359  -4.912   0.866  0.00  0.00    +0.025 A 
ATOM     21  C   UNL     1      10.342  -5.875   0.850  0.00  0.00    +0.017 A 
ATOM     22  C   UNL     1      10.349  -6.848  -0.155  0.00  0.00    +0.063 A 
ATOM     23  C   UNL     1       9.355  -6.838  -1.139  0.00  0.00    +0.017 A 
ATOM     24  C   UNL     1       8.373  -5.875  -1.113  0.00  0.00    +0.025 A 
BRANCH  22  25
ATOM     25  C   UNL     1      11.399  -7.880  -0.176  0.00  0.00    +0.387 C 
ATOM     26  O   UNL     1      12.268  -7.887   0.686  0.00  0.00    -0.241 OA
ATOM     27  O   UNL     1      11.403  -8.731  -1.055  0.00  0.00    -0.241 OA
ENDBRANCH  22  25
ENDBRANCH   5  19
TORSDOF 3
