REMARK  Name = ZINC06443858
REMARK  7 active torsions:
REMARK  status: ('A' for Active; 'I' for Inactive)
REMARK    1  A    between atoms: C_1  and  C_2
REMARK    2  A    between atoms: C_12  and  C_14
REMARK    3  A    between atoms: C_14  and  C_16
REMARK    4  A    between atoms: C_14  and  N_67
REMARK    5  A    between atoms: N_20  and  C_21
REMARK    6  A    between atoms: C_21  and  C_22
REMARK    7  A    between atoms: N_30  and  C_33
REMARK                            x       y       z     vdW  Elec       q    Type
REMARK                         _______ _______ _______ _____ _____    ______ ____
ROOT
ATOM      1  C   UNL     1      -2.604   3.705   0.047  0.00  0.00    +0.039 C 
ENDROOT
BRANCH   1  13
ATOM      2  C   UNL     1       2.436  -0.513  -0.023  0.00  0.00    +0.046 C 
ATOM      3  C   UNL     1       2.399   0.993  -0.015  0.00  0.00    -0.026 A 
ATOM      4  C   UNL     1       3.574   1.714  -0.023  0.00  0.00    +0.005 A 
ATOM      5  C   UNL     1       3.553   3.102  -0.016  0.00  0.00    +0.001 A 
ATOM      6  C   UNL     1       2.367   3.780  -0.001  0.00  0.00    +0.010 A 
ATOM      7  C   UNL     1       1.163   3.069   0.007  0.00  0.00    -0.001 A 
ATOM      8  C   UNL     1       1.179   1.661  -0.000  0.00  0.00    +0.052 A 
ATOM      9  N   UNL     1      -0.011   0.966   0.007  0.00  0.00    -0.322 N 
ATOM     10  H   UNL     1       0.002  -0.004   0.002  0.00  0.00    +0.169 HD
ATOM     11  C   UNL     1      -1.190   1.613   0.017  0.00  0.00    +0.251 A 
ATOM     12  O   UNL     1      -2.223   0.965   0.018  0.00  0.00    -0.268 OA
ATOM     13  C   UNL     1      -1.261   3.022   0.030  0.00  0.00    +0.011 A 
ATOM     14  C   UNL     1      -0.126   3.764   0.023  0.00  0.00    +0.017 A 
ENDBRANCH   1  13
BRANCH   1  20
ATOM     15  C   UNL     1      -2.712   3.434  -2.357  0.00  0.00    -0.058 C 
ATOM     16  C   UNL     1      -3.549   2.850  -3.497  0.00  0.00    +0.086 C 
ATOM     17  N   UNL     1      -4.869   3.497  -3.513  0.00  0.00    -0.331 N 
ATOM     18  C   UNL     1      -5.570   3.288  -2.238  0.00  0.00    +0.086 C 
ATOM     19  C   UNL     1      -4.732   3.872  -1.097  0.00  0.00    -0.058 C 
ATOM     20  N   UNL     1      -3.417   3.198  -1.079  0.00  0.00    +0.391 N 
ATOM     21  H   UNL     1      -3.560   2.188  -0.959  0.00  0.00    -0.080 HD
BRANCH  17  22
ATOM     22  C   UNL     1      -5.638   3.040  -4.588  0.00  0.00    +0.065 A 
ATOM     23  C   UNL     1      -6.892   3.586  -4.828  0.00  0.00    +0.026 A 
ATOM     24  C   UNL     1      -7.649   3.132  -5.891  0.00  0.00    +0.002 A 
ATOM     25  C   UNL     1      -7.161   2.136  -6.715  0.00  0.00    +0.003 A 
ATOM     26  C   UNL     1      -5.913   1.589  -6.480  0.00  0.00    +0.040 A 
ATOM     27  C   UNL     1      -5.147   2.041  -5.422  0.00  0.00    +0.144 A 
ATOM     28  F   UNL     1      -3.925   1.511  -5.196  0.00  0.00    -0.204 F 
ENDBRANCH  17  22
ENDBRANCH   1  20
BRANCH   1  29
ATOM     29  C   UNL     1      -3.312   3.391   1.340  0.00  0.00    +0.143 A 
ATOM     30  N   UNL     1      -3.888   2.259   1.662  0.00  0.00    -0.115 NA
ATOM     31  N   UNL     1      -4.378   2.384   2.847  0.00  0.00    -0.023 NA
ATOM     32  N   UNL     1      -4.130   3.567   3.289  0.00  0.00    -0.044 NA
ATOM     33  N   UNL     1      -3.469   4.217   2.392  0.00  0.00    -0.228 N 
BRANCH  33  34
ATOM     34  C   UNL     1      -2.984   5.595   2.496  0.00  0.00    +0.178 C 
BRANCH  34  35
ATOM     35  C   UNL     1      -4.055   6.554   1.970  0.00  0.00    +0.140 C 
ATOM     36  C   UNL     1      -3.583   8.022   2.122  0.00  0.00    +0.035 C 
ATOM     37  C   UNL     1      -4.422   8.716   1.015  0.00  0.00    +0.031 C 
ATOM     38  C   UNL     1      -4.496   7.624  -0.074  0.00  0.00    +0.160 C 
ATOM     39  O   UNL     1      -4.245   6.364   0.559  0.00  0.00    -0.375 OA
ENDBRANCH  34  35
ENDBRANCH  33  34
ENDBRANCH   1  29
TORSDOF 6
