REMARK  Name = ZINC63694297
REMARK  8 active torsions:
REMARK  status: ('A' for Active; 'I' for Inactive)
REMARK    1  A    between atoms: C_1  and  C_2
REMARK    2  A    between atoms: C_2  and  C_3
REMARK    3  A    between atoms: C_8  and  N_9
REMARK    4  A    between atoms: N_9  and  C_10
REMARK    5  A    between atoms: C_10  and  C_11
REMARK    6  A    between atoms: C_11  and  C_12
REMARK    7  A    between atoms: N_23  and  C_28
REMARK    8  A    between atoms: N_26  and  C_27
REMARK                            x       y       z     vdW  Elec       q    Type
REMARK                         _______ _______ _______ _____ _____    ______ ____
ROOT
ATOM      1  C   UNL     1       1.742  -1.681  -1.654  0.00  0.00    -0.008 A 
ATOM      2  C   UNL     1       1.781  -2.872  -2.347  0.00  0.00    +0.118 A 
ATOM      3  N   UNL     1       2.851  -3.647  -2.338  0.00  0.00    -0.237 NA
ATOM      4  C   UNL     1       3.941  -3.321  -1.664  0.00  0.00    +0.151 A 
ATOM      5  C   UNL     1       3.983  -2.122  -0.931  0.00  0.00    +0.103 A 
ATOM      6  C   UNL     1       2.864  -1.276  -0.927  0.00  0.00    +0.048 A 
ATOM      7  C   UNL     1       5.210  -1.791  -0.195  0.00  0.00    +0.267 A 
ATOM      8  O   UNL     1       5.292  -0.765   0.453  0.00  0.00    -0.267 OA
ATOM      9  N   UNL     1       6.245  -2.658  -0.256  0.00  0.00    -0.263 N 
ATOM     10  C   UNL     1       6.159  -3.791  -0.970  0.00  0.00    +0.333 A 
ATOM     11  O   UNL     1       7.118  -4.538  -0.994  0.00  0.00    -0.246 OA
ATOM     12  N   UNL     1       5.058  -4.137  -1.659  0.00  0.00    -0.281 N 
ATOM     13  C   UNL     1       5.042  -5.393  -2.414  0.00  0.00    +0.155 C 
ATOM     14  C   UNL     1       7.482  -2.355   0.468  0.00  0.00    +0.157 C 
ENDROOT
BRANCH   1  16
ATOM     15  C   UNL     1       0.722   0.350  -2.646  0.00  0.00    +0.009 C 
ATOM     16  C   UNL     1       0.505  -0.821  -1.686  0.00  0.00    +0.035 C 
ENDBRANCH   1  16
BRANCH   6  17
ATOM     17  N   UNL     1       2.868  -0.085  -0.222  0.00  0.00    -0.343 N 
ATOM     18  H   UNL     1       3.260   0.711  -0.615  0.00  0.00    +0.146 HD
BRANCH  17  19
ATOM     19  C   UNL     1       2.281  -0.025   1.119  0.00  0.00    +0.106 C 
BRANCH  19  20
ATOM     20  C   UNL     1       3.291   0.589   2.091  0.00  0.00    +0.052 C 
BRANCH  20  21
ATOM     21  C   UNL     1       2.687   0.650   3.471  0.00  0.00    -0.040 C 
ATOM     22  C   UNL     1       2.835  -0.255   4.464  0.00  0.00    -0.001 A 
ATOM     23  C   UNL     1       3.572  -1.521   4.554  0.00  0.00    +0.010 A 
ATOM     24  C   UNL     1       3.530  -2.225   5.708  0.00  0.00    +0.001 A 
ATOM     25  C   UNL     1       2.800  -1.777   6.818  0.00  0.00    +0.002 A 
ATOM     26  C   UNL     1       2.097  -0.625   6.811  0.00  0.00    +0.026 A 
ATOM     27  C   UNL     1       2.072   0.196   5.650  0.00  0.00    +0.043 A 
ATOM     28  N   UNL     1       1.476   1.336   5.399  0.00  0.00    -0.380 N 
ATOM     29  C   UNL     1       1.799   1.741   4.027  0.00  0.00    +0.144 C 
ATOM     30  H   UNL     1       0.919   1.832   6.019  0.00  0.00    +0.160 HD
ENDBRANCH  20  21
ENDBRANCH  19  20
ENDBRANCH  17  19
ENDBRANCH   6  17
TORSDOF 5
