REMARK  Name = ZINC12849896
REMARK  11 active torsions:
REMARK  status: ('A' for Active; 'I' for Inactive)
REMARK    1  A    between atoms: C_1  and  C_2
REMARK    2  A    between atoms: N_11  and  C_15
REMARK    3  A    between atoms: C_15  and  C_16
REMARK    4  A    between atoms: N_18  and  C_19
REMARK    5  A    between atoms: C_19  and  C_20
REMARK    6  A    between atoms: C_23  and  C_26
REMARK    7  A    between atoms: C_26  and  S_27
REMARK    8  A    between atoms: S_27  and  N_30
REMARK    9  A    between atoms: N_30  and  C_31
REMARK   10  A    between atoms: C_31  and  C_32
REMARK   11  A    between atoms: C_31  and  C_33
REMARK                            x       y       z     vdW  Elec       q    Type
REMARK                         _______ _______ _______ _____ _____    ______ ____
ROOT
ATOM      1  C   UNL     1       0.646   1.051   8.828  0.00  0.00    +0.231 C 
ATOM      2  O   UNL     1       1.679   0.480   9.110  0.00  0.00    -0.274 OA
ATOM      3  N   UNL     1       0.310   1.236   7.536  0.00  0.00    -0.310 N 
ATOM      4  H   UNL     1      -0.515   1.693   7.310  0.00  0.00    +0.149 HD
ENDROOT
BRANCH   1   5
ATOM      5  C   UNL     1      -0.261   1.553   9.922  0.00  0.00    +0.213 C 
BRANCH   5  15
ATOM      6  C   UNL     1      -1.078   1.270  14.271  0.00  0.00    +0.010 C 
ATOM      7  C   UNL     1      -0.031   0.161  14.392  0.00  0.00    +0.018 C 
ATOM      8  C   UNL     1      -0.733  -1.197  14.464  0.00  0.00    +0.006 C 
ATOM      9  C   UNL     1       0.315  -2.307  14.565  0.00  0.00    +0.000 C 
ATOM     10  C   UNL     1       1.215  -2.274  13.328  0.00  0.00    +0.003 C 
ATOM     11  C   UNL     1       1.925  -0.920  13.251  0.00  0.00    +0.035 C 
ATOM     12  C   UNL     1       0.889   0.197  13.177  0.00  0.00    +0.115 C 
ATOM     13  C   UNL     1       0.081   0.089  11.904  0.00  0.00    +0.247 C 
ATOM     14  O   UNL     1      -0.632  -0.830  11.563  0.00  0.00    -0.273 OA
ATOM     15  N   UNL     1       0.323   1.230  11.226  0.00  0.00    -0.215 N 
ATOM     16  C   UNL     1       1.158   2.034  11.896  0.00  0.00    +0.310 C 
ATOM     17  O   UNL     1       1.522   3.120  11.490  0.00  0.00    -0.252 OA
ATOM     18  N   UNL     1       1.550   1.504  13.070  0.00  0.00    -0.285 N 
ATOM     19  H   UNL     1       2.150   1.906  13.718  0.00  0.00    +0.151 HD
ENDBRANCH   5  15
ENDBRANCH   1   5
BRANCH   3  20
ATOM     20  C   UNL     1       1.192   0.749   6.473  0.00  0.00    +0.139 C 
BRANCH  20  21
ATOM     21  C   UNL     1       0.592   1.080   5.131  0.00  0.00    -0.030 A 
ATOM     22  C   UNL     1       0.895   2.280   4.515  0.00  0.00    +0.005 A 
ATOM     23  C   UNL     1       0.345   2.584   3.284  0.00  0.00    +0.005 A 
ATOM     24  C   UNL     1      -0.509   1.688   2.668  0.00  0.00    -0.025 A 
ATOM     25  C   UNL     1      -0.817   0.490   3.286  0.00  0.00    +0.005 A 
ATOM     26  C   UNL     1      -0.263   0.184   4.515  0.00  0.00    +0.005 A 
BRANCH  24  27
ATOM     27  C   UNL     1      -1.110   2.020   1.327  0.00  0.00    +0.220 C 
BRANCH  27  28
ATOM     28  S   UNL     1      -0.017   1.417   0.010  0.00  0.00    +0.034 S 
ATOM     29  O   UNL     1       0.002  -0.004   0.002  0.00  0.00    -0.158 OA
ATOM     30  O   UNL     1       1.195   2.158   0.002  0.00  0.00    -0.158 OA
BRANCH  28  31
ATOM     31  N   UNL     1      -0.778   1.837  -1.400  0.00  0.00    -0.192 NA
ATOM     32  H   UNL     1      -1.104   1.147  -1.999  0.00  0.00    +0.148 HD
BRANCH  31  33
ATOM     33  C   UNL     1      -0.958   3.250  -1.742  0.00  0.00    +0.070 C 
ATOM     34  C   UNL     1      -0.836   3.428  -3.257  0.00  0.00    +0.025 C 
ATOM     35  C   UNL     1      -2.343   3.712  -1.284  0.00  0.00    +0.025 C 
ENDBRANCH  31  33
ENDBRANCH  28  31
ENDBRANCH  27  28
ENDBRANCH  24  27
ENDBRANCH  20  21
ENDBRANCH   3  20
TORSDOF 8
