REMARK  Name = ZINC06214635
REMARK  11 active torsions:
REMARK  status: ('A' for Active; 'I' for Inactive)
REMARK    1  A    between atoms: C_1  and  C_2
REMARK    2  A    between atoms: C_5  and  S_8
REMARK    3  A    between atoms: S_8  and  O_11
REMARK    4  A    between atoms: O_11  and  C_12
REMARK    5  A    between atoms: C_14  and  C_22
REMARK    6  A    between atoms: C_15  and  O_21
REMARK    7  A    between atoms: C_16  and  C_18
REMARK    8  A    between atoms: C_18  and  C_19
REMARK    9  A    between atoms: C_18  and  C_20
REMARK   10  A    between atoms: C_22  and  C_23
REMARK   11  A    between atoms: C_22  and  C_24
REMARK                            x       y       z     vdW  Elec       q    Type
REMARK                         _______ _______ _______ _____ _____    ______ ____
ROOT
ATOM      1  C   UNL     1      -1.223   1.753   0.017  0.00  0.00    +0.158 A 
ATOM      2  C   UNL     1      -0.013   1.076   0.008  0.00  0.00    +0.056 A 
ATOM      3  C   UNL     1       1.174   1.783   0.000  0.00  0.00    +0.000 A 
ATOM      4  C   UNL     1       1.155   3.170   0.008  0.00  0.00    +0.124 A 
ATOM      5  C   UNL     1      -0.055   3.847   0.023  0.00  0.00    +0.000 A 
ATOM      6  C   UNL     1      -1.242   3.140   0.030  0.00  0.00    +0.056 A 
ENDROOT
BRANCH   5   7
ATOM      7  C   UNL     1      -0.075   5.353   0.032  0.00  0.00    +0.017 C 
ATOM      8  C   UNL     1      -0.815   5.861  -1.208  0.00  0.00    +0.012 C 
ATOM      9  C   UNL     1      -0.792   5.846   1.290  0.00  0.00    +0.012 C 
ENDBRANCH   5   7
BRANCH   3  10
ATOM     10  C   UNL     1       2.489   1.047  -0.015  0.00  0.00    +0.017 C 
ATOM     11  C   UNL     1       2.594   0.163   1.229  0.00  0.00    +0.012 C 
ATOM     12  C   UNL     1       2.571   0.174  -1.269  0.00  0.00    +0.012 C 
ENDBRANCH   3  10
BRANCH   4  13
ATOM     13  O   UNL     1       2.324   3.865   0.000  0.00  0.00    -0.506 OA
ATOM     14  H   UNL     1       2.653   4.071  -0.885  0.00  0.00    +0.292 HD
ENDBRANCH   4  13
BRANCH   1  15
ATOM     15  O   UNL     1      -2.391   1.057   0.019  0.00  0.00    -0.342 OA
BRANCH  15  16
ATOM     16  S   UNL     1      -2.916   0.733   1.411  0.00  0.00    +0.151 S 
ATOM     17  O   UNL     1      -4.008  -0.160   1.236  0.00  0.00    -0.131 OA
ATOM     18  O   UNL     1      -1.785   0.406   2.206  0.00  0.00    -0.131 OA
BRANCH  16  23
ATOM     19  C   UNL     1      -5.207   5.831   3.685  0.00  0.00    +0.044 C 
ATOM     20  C   UNL     1      -4.635   4.558   3.118  0.00  0.00    -0.050 A 
ATOM     21  C   UNL     1      -5.441   3.702   2.390  0.00  0.00    +0.005 A 
ATOM     22  C   UNL     1      -4.916   2.534   1.869  0.00  0.00    +0.031 A 
ATOM     23  C   UNL     1      -3.585   2.222   2.075  0.00  0.00    +0.128 A 
ATOM     24  C   UNL     1      -2.780   3.075   2.807  0.00  0.00    +0.031 A 
ATOM     25  C   UNL     1      -3.304   4.245   3.324  0.00  0.00    +0.005 A 
ENDBRANCH  16  23
ENDBRANCH  15  16
ENDBRANCH   1  15
TORSDOF 6
