REMARK  Name = ZINC59187610
REMARK  14 active torsions:
REMARK  status: ('A' for Active; 'I' for Inactive)
REMARK    1  A    between atoms: C_1  and  C_2
REMARK    2  A    between atoms: C_7  and  N_8
REMARK    3  A    between atoms: N_8  and  C_9
REMARK    4  A    between atoms: C_9  and  N_11
REMARK    5  A    between atoms: N_11  and  C_12
REMARK    6  A    between atoms: N_11  and  C_22
REMARK    7  A    between atoms: C_12  and  C_13
REMARK    8  A    between atoms: C_16  and  N_19
REMARK    9  A    between atoms: N_19  and  C_20
REMARK   10  A    between atoms: N_19  and  C_21
REMARK   11  A    between atoms: C_24  and  C_30
REMARK   12  A    between atoms: C_24  and  C_31
REMARK   13  A    between atoms: C_26  and  C_28
REMARK   14  A    between atoms: C_26  and  C_29
REMARK                            x       y       z     vdW  Elec       q    Type
REMARK                         _______ _______ _______ _____ _____    ______ ____
ROOT
ATOM      1  N   UNL     1      -0.714  -0.163   4.724  0.00  0.00    -0.305 N 
ENDROOT
BRANCH   1   2
ATOM      2  C   UNL     1      -0.943   1.287   4.692  0.00  0.00    +0.073 C 
ATOM      3  C   UNL     1      -2.033   1.601   3.666  0.00  0.00    +0.009 C 
ATOM      4  C   UNL     1      -2.275   3.109   3.612  0.00  0.00    -0.072 C 
ATOM      5  N   UNL     1      -1.048   3.852   3.368  0.00  0.00    +0.386 N 
ATOM      6  C   UNL     1       0.125   3.496   4.151  0.00  0.00    -0.072 C 
ATOM      7  C   UNL     1       0.342   1.990   4.258  0.00  0.00    +0.009 C 
ATOM      8  C   UNL     1       1.361   4.087   3.431  0.00  0.00    -0.010 C 
ATOM      9  C   UNL     1       0.083   4.118   5.549  0.00  0.00    -0.010 C 
ATOM     10  C   UNL     1      -2.988   3.575   4.880  0.00  0.00    -0.010 C 
ATOM     11  C   UNL     1      -3.228   3.378   2.425  0.00  0.00    -0.010 C 
ATOM     12  H   UNL     1      -0.811   3.764   2.376  0.00  0.00    -0.084 HD
ATOM     13  H   UNL     1      -1.241   4.846   3.510  0.00  0.00    -0.084 HD
ENDBRANCH   1   2
BRANCH   1  14
ATOM     14  C   UNL     1      -0.457  -0.830   3.582  0.00  0.00    +0.138 C 
ATOM     15  S   UNL     1      -0.327  -2.537   3.598  0.00  0.00    -0.018 S 
BRANCH  14  16
ATOM     16  N   UNL     1      -0.301  -0.154   2.427  0.00  0.00    -0.297 N 
ATOM     17  H   UNL     1      -0.287   0.816   2.431  0.00  0.00    +0.154 HD
BRANCH  16  24
ATOM     18  C   UNL     1      -2.208   0.323   0.369  0.00  0.00    +0.045 C 
ATOM     19  C   UNL     1      -1.069  -0.647   0.191  0.00  0.00    -0.029 A 
ATOM     20  C   UNL     1      -0.924  -1.332  -1.000  0.00  0.00    +0.005 A 
ATOM     21  C   UNL     1       0.121  -2.222  -1.164  0.00  0.00    +0.000 A 
ATOM     22  C   UNL     1       1.024  -2.430  -0.138  0.00  0.00    +0.002 A 
ATOM     23  C   UNL     1       0.885  -1.749   1.055  0.00  0.00    +0.023 A 
ATOM     24  C   UNL     1      -0.161  -0.850   1.222  0.00  0.00    +0.036 A 
ENDBRANCH  16  24
ENDBRANCH  14  16
ENDBRANCH   1  14
BRANCH   1  25
ATOM     25  C   UNL     1      -0.765  -0.885   5.998  0.00  0.00    +0.142 C 
BRANCH  25  26
ATOM     26  C   UNL     1       0.609  -0.909   6.618  0.00  0.00    -0.030 A 
ATOM     27  C   UNL     1       1.480  -1.942   6.325  0.00  0.00    +0.007 A 
ATOM     28  C   UNL     1       2.740  -1.967   6.891  0.00  0.00    +0.023 A 
ATOM     29  C   UNL     1       3.131  -0.952   7.755  0.00  0.00    +0.029 A 
ATOM     30  C   UNL     1       2.254   0.085   8.046  0.00  0.00    +0.023 A 
ATOM     31  C   UNL     1       0.998   0.106   7.473  0.00  0.00    +0.007 A 
BRANCH  29  32
ATOM     32  N   UNL     1       4.404  -0.974   8.329  0.00  0.00    -0.336 N 
ATOM     33  C   UNL     1       5.370  -2.001   7.930  0.00  0.00    +0.129 C 
ATOM     34  C   UNL     1       4.774   0.030   9.330  0.00  0.00    +0.129 C 
ENDBRANCH  29  32
ENDBRANCH  25  26
ENDBRANCH   1  25
TORSDOF 7
