REMARK  Name = ZINC66737174
REMARK  4 active torsions:
REMARK  status: ('A' for Active; 'I' for Inactive)
REMARK    1  A    between atoms: C_8  and  C_11
REMARK    2  A    between atoms: N_13  and  S_14
REMARK    3  A    between atoms: S_14  and  C_17
REMARK    4  A    between atoms: C_21  and  C_23
REMARK                            x       y       z     vdW  Elec       q    Type
REMARK                         _______ _______ _______ _____ _____    ______ ____
ROOT
ATOM      1  C   UNL     1       3.761  -3.379  -0.054  0.00  0.00    +0.313 C 
ATOM      2  O   UNL     1       5.112  -3.304  -0.068  0.00  0.00    -0.262 OA
ATOM      3  N   UNL     1       3.172  -4.541  -0.055  0.00  0.00    -0.084 NA
ENDROOT
BRANCH   1  11
ATOM      4  C   UNL     1      -0.016   1.361   0.009  0.00  0.00    +0.001 A 
ATOM      5  C   UNL     1       1.170   2.083   0.002  0.00  0.00    +0.002 A 
ATOM      6  C   UNL     1       2.386   1.438  -0.013  0.00  0.00    +0.026 A 
ATOM      7  C   UNL     1       2.431   0.046  -0.021  0.00  0.00    +0.048 A 
ATOM      8  C   UNL     1       1.226  -0.682  -0.013  0.00  0.00    +0.019 A 
ATOM      9  C   UNL     1       0.002  -0.004   0.002  0.00  0.00    +0.011 A 
ATOM     10  C   UNL     1       1.597  -2.095  -0.025  0.00  0.00    +0.079 A 
ATOM     11  C   UNL     1       2.956  -2.146  -0.039  0.00  0.00    +0.127 A 
ATOM     12  N   UNL     1       3.463  -0.862  -0.037  0.00  0.00    -0.349 N 
ATOM     13  H   UNL     1       4.406  -0.635  -0.045  0.00  0.00    +0.166 HD
ATOM     14 CL   UNL     1       0.512  -3.450  -0.021  0.00  0.00    -0.081 Cl
ENDBRANCH   1  11
BRANCH   3  15
ATOM     15  S   UNL     1       4.077  -5.928  -0.072  0.00  0.00    +0.102 S 
ATOM     16  O   UNL     1       4.748  -5.960  -1.324  0.00  0.00    -0.146 OA
ATOM     17  O   UNL     1       4.773  -5.974   1.166  0.00  0.00    -0.146 OA
BRANCH  15  18
ATOM     18  C   UNL     1       2.952  -7.284  -0.068  0.00  0.00    +0.114 A 
ATOM     19  C   UNL     1       2.520  -7.819   1.133  0.00  0.00    +0.032 A 
ATOM     20  C   UNL     1       1.638  -8.883   1.147  0.00  0.00    +0.041 A 
ATOM     21  C   UNL     1       1.182  -9.422  -0.042  0.00  0.00    +0.141 A 
ATOM     22  C   UNL     1       1.615  -8.886  -1.259  0.00  0.00    +0.089 A 
ATOM     23  C   UNL     1       2.502  -7.807  -1.262  0.00  0.00    +0.050 A 
ATOM     24  F   UNL     1       0.321 -10.463  -0.028  0.00  0.00    -0.204 F 
BRANCH  22  25
ATOM     25  C   UNL     1       1.148  -9.438  -2.495  0.00  0.00    +0.102 C 
ATOM     26  N   UNL     1       0.778  -9.875  -3.476  0.00  0.00    -0.191 NA
ENDBRANCH  22  25
ENDBRANCH  15  18
ENDBRANCH   3  15
TORSDOF 4
