REMARK  Name = ZINC62825111
REMARK  4 active torsions:
REMARK  status: ('A' for Active; 'I' for Inactive)
REMARK    1  A    between atoms: C_1  and  N_2
REMARK    2  A    between atoms: C_4  and  C_9
REMARK    3  A    between atoms: N_11  and  C_12
REMARK    4  A    between atoms: C_13  and  C_20
REMARK                            x       y       z     vdW  Elec       q    Type
REMARK                         _______ _______ _______ _____ _____    ______ ____
ROOT
ATOM      1  C   UNL     1      -1.316  -2.832  -1.789  0.00  0.00    +0.222 C 
ATOM      2  O   UNL     1      -2.236  -2.253  -2.329  0.00  0.00    -0.275 OA
ATOM      3  N   UNL     1      -0.462  -3.572  -2.523  0.00  0.00    -0.284 N 
ATOM      4  H   UNL     1       0.319  -3.969  -2.105  0.00  0.00    +0.155 HD
ENDROOT
BRANCH   3   5
ATOM      5  C   UNL     1      -0.699  -3.767  -3.881  0.00  0.00    +0.062 A 
ATOM      6  C   UNL     1      -0.740  -5.067  -4.411  0.00  0.00    +0.086 A 
ATOM      7  C   UNL     1      -0.980  -5.249  -5.776  0.00  0.00    +0.032 A 
ATOM      8  C   UNL     1      -1.175  -4.155  -6.592  0.00  0.00    +0.020 A 
ATOM      9  C   UNL     1      -1.133  -2.873  -6.066  0.00  0.00    +0.032 A 
ATOM     10  C   UNL     1      -0.903  -2.677  -4.718  0.00  0.00    +0.041 A 
ATOM     11 BR   UNL     1      -0.856  -0.923  -4.013  0.00  0.00    -0.048 Br
ATOM     12 BR   UNL     1      -1.498  -4.403  -8.438  0.00  0.00    -0.050 Br
BRANCH   6  13
ATOM     13  C   UNL     1      -0.532  -6.230  -3.534  0.00  0.00    +0.388 C 
ATOM     14  O   UNL     1      -0.465  -7.354  -4.014  0.00  0.00    -0.241 OA
ATOM     15  O   UNL     1      -0.425  -6.074  -2.325  0.00  0.00    -0.241 OA
ENDBRANCH   6  13
ENDBRANCH   3   5
BRANCH   1  19
ATOM     16  C   UNL     1      -2.429   0.748   0.547  0.00  0.00    +0.132 C 
ATOM     17  N   UNL     1      -1.647  -0.477   0.367  0.00  0.00    -0.304 N 
ATOM     18  C   UNL     1      -2.220  -1.828   0.332  0.00  0.00    +0.120 C 
ATOM     19  C   UNL     1      -1.129  -2.723  -0.298  0.00  0.00    +0.101 C 
ATOM     20  C   UNL     1       0.159  -1.937   0.043  0.00  0.00    +0.110 C 
ATOM     21  C   UNL     1      -0.312  -0.509   0.207  0.00  0.00    +0.216 C 
ATOM     22  O   UNL     1       0.409   0.466   0.197  0.00  0.00    -0.276 OA
ENDBRANCH   1  19
TORSDOF 3
