REMARK  Name = ZINC43746920
REMARK  3 active torsions:
REMARK  status: ('A' for Active; 'I' for Inactive)
REMARK    1  A    between atoms: N_15  and  C_17
REMARK    2  A    between atoms: C_17  and  C_19
REMARK    3  A    between atoms: C_17  and  C_30
REMARK                            x       y       z     vdW  Elec       q    Type
REMARK                         _______ _______ _______ _____ _____    ______ ____
ROOT
ATOM      1  C   UNL     1       4.303   0.964   3.522  0.00  0.00    +0.203 C 
ENDROOT
BRANCH   1  14
ATOM      2  C   UNL     1       0.296   0.145  -0.276  0.00  0.00    +0.007 A 
ATOM      3  C   UNL     1       1.420   0.975  -0.338  0.00  0.00    +0.022 A 
ATOM      4  C   UNL     1       2.667   0.460  -0.176  0.00  0.00    +0.026 A 
ATOM      5  N   UNL     1       2.845  -0.871  -0.005  0.00  0.00    -0.312 N 
ATOM      6  C   UNL     1       1.770  -1.680   0.156  0.00  0.00    +0.251 A 
ATOM      7  O   UNL     1       1.934  -2.852   0.455  0.00  0.00    -0.268 OA
ATOM      8  C   UNL     1       0.470  -1.183  -0.017  0.00  0.00    +0.070 A 
ATOM      9  C   UNL     1       4.160  -1.514  -0.042  0.00  0.00    +0.130 C 
ATOM     10  C   UNL     1       5.291  -0.529   0.200  0.00  0.00    +0.024 C 
ATOM     11  C   UNL     1       5.085   0.708  -0.678  0.00  0.00    +0.017 C 
ATOM     12  C   UNL     1       3.829   1.429  -0.176  0.00  0.00    +0.050 C 
ATOM     13  C   UNL     1       4.075   1.855   1.280  0.00  0.00    +0.095 C 
ATOM     14  N   UNL     1       4.227   0.638   2.091  0.00  0.00    -0.285 NA
ATOM     15  C   UNL     1       5.388  -0.128   1.664  0.00  0.00    +0.090 C 
ENDBRANCH   1  14
BRANCH   1  16
ATOM     16  C   UNL     1       4.404  -0.309   4.322  0.00  0.00    +0.006 A 
ATOM     17  C   UNL     1       3.934  -1.515   3.967  0.00  0.00    +0.089 A 
ATOM     18  N   UNL     1       4.212  -2.431   4.946  0.00  0.00    -0.360 N 
ATOM     19  H   UNL     1       3.971  -3.370   4.915  0.00  0.00    +0.165 HD
ATOM     20  C   UNL     1       4.884  -1.820   5.981  0.00  0.00    +0.050 A 
ATOM     21  C   UNL     1       5.039  -0.466   5.633  0.00  0.00    +0.005 A 
ATOM     22  C   UNL     1       5.697   0.406   6.503  0.00  0.00    +0.013 A 
ATOM     23  C   UNL     1       6.192  -0.061   7.687  0.00  0.00    +0.039 A 
ATOM     24  C   UNL     1       6.046  -1.399   8.035  0.00  0.00    +0.125 A 
ATOM     25  C   UNL     1       5.391  -2.275   7.193  0.00  0.00    +0.064 A 
ATOM     26  F   UNL     1       6.542  -1.843   9.210  0.00  0.00    -0.205 F 
ENDBRANCH   1  16
BRANCH   1  27
ATOM     27  C   UNL     1       3.064   1.718   3.931  0.00  0.00    +0.377 C 
ATOM     28  O   UNL     1       2.049   1.633   3.262  0.00  0.00    -0.244 OA
ATOM     29  O   UNL     1       3.078   2.414   4.932  0.00  0.00    -0.244 OA
ENDBRANCH   1  27
TORSDOF 3
