REMARK  Name = ZINC56308670
REMARK  6 active torsions:
REMARK  status: ('A' for Active; 'I' for Inactive)
REMARK    1  A    between atoms: C_1  and  C_2
REMARK    2  A    between atoms: C_4  and  N_15
REMARK    3  A    between atoms: N_5  and  C_7
REMARK    4  A    between atoms: C_16  and  C_18
REMARK    5  A    between atoms: C_18  and  N_19
REMARK    6  A    between atoms: C_23  and  C_25
REMARK                            x       y       z     vdW  Elec       q    Type
REMARK                         _______ _______ _______ _____ _____    ______ ____
ROOT
ATOM      1  N   UNL     1       0.040  -3.240  -1.543  0.00  0.00    -0.272 N 
ATOM      2  C   UNL     1       0.031  -3.097  -2.883  0.00  0.00    +0.202 C 
ATOM      3  O   UNL     1       0.014  -1.988  -3.375  0.00  0.00    -0.278 OA
ATOM      4  H   UNL     1       0.054  -4.126  -1.150  0.00  0.00    +0.156 HD
ENDROOT
BRANCH   1   8
ATOM      5  C   UNL     1      -0.018   1.503   0.010  0.00  0.00    +0.067 C 
ATOM      6  C   UNL     1       0.002  -0.004   0.002  0.00  0.00    +0.062 A 
ATOM      7  C   UNL     1       0.008  -0.816  -1.135  0.00  0.00    +0.068 A 
ATOM      8  C   UNL     1       0.028  -2.113  -0.722  0.00  0.00    +0.124 A 
ATOM      9  N   UNL     1       0.035  -2.110   0.631  0.00  0.00    -0.246 N 
ATOM     10  N   UNL     1       0.023  -0.776   1.058  0.00  0.00    -0.175 NA
BRANCH   9  11
ATOM     11  C   UNL     1       0.056  -3.292   1.496  0.00  0.00    +0.132 C 
ATOM     12  C   UNL     1       1.310  -3.252   2.385  0.00  0.00    +0.051 C 
ATOM     13  C   UNL     1       1.151  -4.330   3.495  0.00  0.00    +0.168 C 
ATOM     14  S   UNL     1      -0.629  -4.116   3.920  0.00  0.00    -0.029 S 
ATOM     15  O   UNL     1      -1.235  -5.397   4.030  0.00  0.00    -0.174 OA
ATOM     16  O   UNL     1      -0.740  -3.196   4.997  0.00  0.00    -0.174 OA
ATOM     17  C   UNL     1      -1.216  -3.306   2.378  0.00  0.00    +0.192 C 
ENDBRANCH   9  11
ENDBRANCH   1   8
BRANCH   2  18
ATOM     18  C   UNL     1       0.044  -4.314  -3.771  0.00  0.00    +0.019 C 
BRANCH  18  19
ATOM     19  N   UNL     1       0.031  -3.895  -5.179  0.00  0.00    +0.387 N 
ATOM     20  C   UNL     1       1.290  -3.189  -5.499  0.00  0.00    -0.078 C 
ATOM     21  C   UNL     1       2.206  -4.276  -6.117  0.00  0.00    -0.020 C 
ATOM     22  C   UNL     1       1.188  -5.117  -6.931  0.00  0.00    -0.017 C 
ATOM     23  C   UNL     1      -0.078  -5.080  -6.049  0.00  0.00    -0.065 C 
ATOM     24  H   UNL     1      -0.752  -3.279  -5.343  0.00  0.00    -0.081 HD
BRANCH  23  25
ATOM     25  C   UNL     1      -1.323  -4.965  -6.931  0.00  0.00    -0.025 C 
ATOM     26  C   UNL     1      -2.592  -4.942  -6.054  0.00  0.00    +0.002 C 
ATOM     27  C   UNL     1      -3.631  -5.750  -6.869  0.00  0.00    +0.000 C 
ATOM     28  C   UNL     1      -2.776  -6.885  -7.485  0.00  0.00    +0.000 C 
ATOM     29  C   UNL     1      -1.440  -6.200  -7.841  0.00  0.00    +0.002 C 
ENDBRANCH  23  25
ENDBRANCH  18  19
ENDBRANCH   2  18
TORSDOF 5
