REMARK  Name = ZINC26114958
REMARK  4 active torsions:
REMARK  status: ('A' for Active; 'I' for Inactive)
REMARK    1  A    between atoms: C_9  and  C_11
REMARK    2  A    between atoms: C_16  and  N_19
REMARK    3  A    between atoms: N_19  and  S_20
REMARK    4  A    between atoms: S_20  and  C_23
REMARK                            x       y       z     vdW  Elec       q    Type
REMARK                         _______ _______ _______ _____ _____    ______ ____
ROOT
ATOM      1  C   UNL     1      -0.027   5.345   0.030  0.00  0.00    +0.249 C 
ATOM      2  O   UNL     1      -0.029   4.131   0.100  0.00  0.00    -0.270 OA
ATOM      3  N   UNL     1       1.139   6.011  -0.079  0.00  0.00    -0.297 N 
ATOM      4  C   UNL     1       2.409   5.283  -0.201  0.00  0.00    +0.109 C 
ATOM      5  C   UNL     1       3.148   5.793  -1.448  0.00  0.00    +0.039 C 
ATOM      6  C   UNL     1       3.301   7.313  -1.357  0.00  0.00    +0.080 C 
ATOM      7  C   UNL     1       1.917   7.966  -1.316  0.00  0.00    +0.039 C 
ATOM      8  C   UNL     1       1.165   7.481  -0.073  0.00  0.00    +0.109 C 
ENDROOT
BRANCH   1  17
ATOM      9  C   UNL     1      -2.688   7.804   1.035  0.00  0.00    +0.001 A 
ATOM     10  C   UNL     1      -3.704   7.511   0.153  0.00  0.00    +0.011 A 
ATOM     11  C   UNL     1      -3.538   6.491  -0.790  0.00  0.00    +0.020 A 
ATOM     12  C   UNL     1      -4.384   5.943  -1.847  0.00  0.00    +0.142 A 
ATOM     13  N   UNL     1      -3.714   4.995  -2.438  0.00  0.00    -0.181 NA
ATOM     14  N   UNL     1      -2.451   4.862  -1.851  0.00  0.00    -0.276 N 
ATOM     15  H   UNL     1      -1.747   4.105  -2.226  0.00  0.00    +0.189 HD
ATOM     16  C   UNL     1      -2.328   5.775  -0.843  0.00  0.00    +0.078 A 
ATOM     17  C   UNL     1      -1.301   6.088   0.065  0.00  0.00    +0.062 A 
ATOM     18  C   UNL     1      -1.494   7.103   0.997  0.00  0.00    +0.015 A 
ENDBRANCH   1  17
BRANCH   6  19
ATOM     19  N   UNL     1       4.037   7.800  -2.526  0.00  0.00    -0.186 NA
ATOM     20  H   UNL     1       3.537   7.861  -3.504  0.00  0.00    +0.148 HD
BRANCH  19  21
ATOM     21  S   UNL     1       5.675   8.024  -2.440  0.00  0.00    +0.065 S 
ATOM     22  O   UNL     1       6.092   8.470  -3.723  0.00  0.00    -0.153 OA
ATOM     23  O   UNL     1       5.921   8.772  -1.257  0.00  0.00    -0.153 OA
BRANCH  21  24
ATOM     24  C   UNL     1       6.405   6.439  -2.196  0.00  0.00    +0.142 A 
ATOM     25  C   UNL     1       6.832   5.544  -3.120  0.00  0.00    +0.036 A 
ATOM     26  C   UNL     1       7.380   4.349  -2.693  0.00  0.00    +0.010 A 
ATOM     27  C   UNL     1       7.475   4.108  -1.362  0.00  0.00    +0.047 A 
ATOM     28  S   UNL     1       6.783   5.600  -0.666  0.00  0.00    -0.077 S 
ENDBRANCH  21  24
ENDBRANCH  19  21
ENDBRANCH   6  19
TORSDOF 4
