REMARK  Name = ZINC44020789
REMARK  9 active torsions:
REMARK  status: ('A' for Active; 'I' for Inactive)
REMARK    1  A    between atoms: C_1  and  C_2
REMARK    2  A    between atoms: C_4  and  C_28
REMARK    3  A    between atoms: C_22  and  C_23
REMARK    4  A    between atoms: C_22  and  O_27
REMARK    5  A    between atoms: C_24  and  C_25
REMARK    6  A    between atoms: C_25  and  O_26
REMARK    7  A    between atoms: C_31  and  N_34
REMARK    8  A    between atoms: N_34  and  C_35
REMARK    9  A    between atoms: N_34  and  C_36
REMARK                            x       y       z     vdW  Elec       q    Type
REMARK                         _______ _______ _______ _____ _____    ______ ____
ROOT
ATOM      1  C   UNL     1      -0.033   1.530  -0.013  0.00  0.00    +0.015 C 
ATOM      2  C   UNL     1      -0.015  -0.003  -0.024  0.00  0.00    +0.012 C 
ATOM      3  C   UNL     1       0.638  -0.500  -1.283  0.00  0.00    +0.023 C 
ATOM      4  C   UNL     1       2.152  -0.636  -1.219  0.00  0.00    +0.046 C 
ATOM      5  C   UNL     1       2.843  -0.284   0.064  0.00  0.00    -0.055 C 
ATOM      6  C   UNL     1       4.179  -0.234   0.101  0.00  0.00    -0.044 C 
ATOM      7  C   UNL     1       5.003  -0.221  -1.170  0.00  0.00    +0.043 C 
ATOM      8  C   UNL     1       6.182  -1.185  -0.993  0.00  0.00    +0.083 C 
ATOM      9  C   UNL     1       6.926  -0.828   0.267  0.00  0.00    +0.157 C 
ATOM     10  O   UNL     1       8.131  -0.981   0.311  0.00  0.00    -0.293 OA
ATOM     11  C   UNL     1       6.249  -0.332   1.392  0.00  0.00    +0.050 C 
ATOM     12  C   UNL     1       4.917  -0.088   1.355  0.00  0.00    -0.041 C 
ATOM     13  C   UNL     1       4.180   0.298   2.612  0.00  0.00    +0.036 C 
ATOM     14  C   UNL     1       2.802  -0.370   2.574  0.00  0.00    +0.013 C 
ATOM     15  C   UNL     1       2.068   0.070   1.313  0.00  0.00    +0.020 C 
ATOM     16  C   UNL     1       0.706  -0.576   1.215  0.00  0.00    +0.006 C 
ATOM     17  C   UNL     1      -0.267  -0.239   2.353  0.00  0.00    +0.008 C 
ATOM     18  C   UNL     1      -1.663  -0.477   1.722  0.00  0.00    +0.049 C 
ATOM     19  C   UNL     1      -1.460  -0.487   0.189  0.00  0.00    +0.132 C 
ENDROOT
BRANCH   4  20
ATOM     20  C   UNL     1       2.474  -2.069  -1.556  0.00  0.00    -0.040 A 
ATOM     21  C   UNL     1       1.968  -3.092  -0.775  0.00  0.00    +0.006 A 
ATOM     22  C   UNL     1       2.262  -4.406  -1.081  0.00  0.00    +0.023 A 
ATOM     23  C   UNL     1       3.067  -4.700  -2.174  0.00  0.00    +0.029 A 
ATOM     24  C   UNL     1       3.573  -3.670  -2.956  0.00  0.00    +0.023 A 
ATOM     25  C   UNL     1       3.271  -2.358  -2.648  0.00  0.00    +0.006 A 
BRANCH  23  26
ATOM     26  N   UNL     1       3.366  -6.028  -2.486  0.00  0.00    -0.336 N 
ATOM     27  C   UNL     1       2.937  -7.105  -1.591  0.00  0.00    +0.129 C 
ATOM     28  C   UNL     1       4.109  -6.344  -3.708  0.00  0.00    +0.129 C 
ENDBRANCH  23  26
ENDBRANCH   4  20
BRANCH  19  29
ATOM     29  C   UNL     1      -2.400   0.437  -0.461  0.00  0.00    -0.065 C 
ATOM     30  C   UNL     1      -3.151   1.175  -0.981  0.00  0.00    -0.071 C 
BRANCH  30  31
ATOM     31  C   UNL     1      -4.092   2.100  -1.632  0.00  0.00    +0.244 C 
BRANCH  31  32
ATOM     32  O   UNL     1      -5.430   1.641  -1.427  0.00  0.00    -0.383 OA
ATOM     33  H   UNL     1      -6.105   2.204  -1.830  0.00  0.00    +0.211 HD
ENDBRANCH  31  32
ENDBRANCH  30  31
ENDBRANCH  19  29
BRANCH  19  34
ATOM     34  O   UNL     1      -1.621  -1.809  -0.324  0.00  0.00    -0.376 OA
ATOM     35  H   UNL     1      -2.513  -2.166  -0.217  0.00  0.00    +0.211 HD
ENDBRANCH  19  34
TORSDOF 6
