REMARK  Name = ZINC35215786
REMARK  8 active torsions:
REMARK  status: ('A' for Active; 'I' for Inactive)
REMARK    1  A    between atoms: C_1  and  C_2
REMARK    2  A    between atoms: C_2  and  C_3
REMARK    3  A    between atoms: C_6  and  C_10
REMARK    4  A    between atoms: N_12  and  C_13
REMARK    5  A    between atoms: C_13  and  C_14
REMARK    6  A    between atoms: C_23  and  C_25
REMARK    7  A    between atoms: C_28  and  O_31
REMARK    8  A    between atoms: O_31  and  C_32
REMARK                            x       y       z     vdW  Elec       q    Type
REMARK                         _______ _______ _______ _____ _____    ______ ____
ROOT
ATOM      1  C   UNL     1       0.880  -0.954   0.952  0.00  0.00    +0.135 C 
ATOM      2  N   UNL     1       0.671  -2.379   1.268  0.00  0.00    -0.273 N 
ATOM      3  C   UNL     1       0.296  -2.682   2.647  0.00  0.00    +0.173 C 
ATOM      4  C   UNL     1       0.930  -1.654   3.631  0.00  0.00    +0.103 C 
ATOM      5  S   UNL     1       0.739  -0.130   2.594  0.00  0.00    -0.136 S 
ATOM      6  C   UNL     1       0.816  -3.345   0.340  0.00  0.00    +0.248 C 
ATOM      7  O   UNL     1       0.394  -4.465   0.557  0.00  0.00    -0.270 OA
ENDROOT
BRANCH   6   8
ATOM      8  C   UNL     1       1.487  -3.045  -0.940  0.00  0.00    +0.037 A 
ATOM      9  C   UNL     1       1.634  -1.720  -1.359  0.00  0.00    +0.016 A 
ATOM     10  C   UNL     1       2.262  -1.443  -2.553  0.00  0.00    +0.046 A 
ATOM     11  C   UNL     1       2.748  -2.480  -3.341  0.00  0.00    +0.120 A 
ATOM     12  C   UNL     1       2.604  -3.799  -2.927  0.00  0.00    +0.046 A 
ATOM     13  C   UNL     1       1.983  -4.083  -1.732  0.00  0.00    +0.016 A 
BRANCH  11  14
ATOM     14  O   UNL     1       3.365  -2.203  -4.518  0.00  0.00    -0.495 OA
ATOM     15  C   UNL     1       3.841  -3.316  -5.278  0.00  0.00    +0.277 C 
ENDBRANCH  11  14
ENDBRANCH   6   8
BRANCH   3  16
ATOM     16  C   UNL     1       0.778  -4.065   3.000  0.00  0.00    +0.235 C 
ATOM     17  O   UNL     1       1.685  -4.570   2.372  0.00  0.00    -0.274 OA
ATOM     18  N   UNL     1       0.201  -4.742   4.012  0.00  0.00    -0.310 N 
ATOM     19  H   UNL     1      -0.525  -4.338   4.514  0.00  0.00    +0.149 HD
BRANCH  18  20
ATOM     20  C   UNL     1       0.669  -6.087   4.355  0.00  0.00    +0.139 C 
BRANCH  20  21
ATOM     21  C   UNL     1      -0.136  -6.619   5.513  0.00  0.00    -0.027 A 
ATOM     22  C   UNL     1       0.285  -6.387   6.809  0.00  0.00    +0.009 A 
ATOM     23  C   UNL     1      -0.450  -6.872   7.875  0.00  0.00    +0.050 A 
ATOM     24  C   UNL     1      -1.610  -7.594   7.646  0.00  0.00    +0.166 A 
ATOM     25  C   UNL     1      -2.034  -7.828   6.340  0.00  0.00    +0.167 A 
ATOM     26  C   UNL     1      -1.296  -7.333   5.277  0.00  0.00    +0.054 A 
ATOM     27  O   UNL     1      -3.190  -8.553   6.380  0.00  0.00    -0.453 OA
ATOM     28  C   UNL     1      -3.249  -9.109   7.706  0.00  0.00    +0.466 C 
ATOM     29  O   UNL     1      -2.501  -8.172   8.504  0.00  0.00    -0.453 OA
ENDBRANCH  20  21
ENDBRANCH  18  20
ENDBRANCH   3  16
BRANCH   1  31
ATOM     30  C   UNL     1       0.051   1.027  -0.326  0.00  0.00    +0.006 C 
ATOM     31  C   UNL     1      -0.203  -0.447  -0.002  0.00  0.00    +0.030 C 
ENDBRANCH   1  31
TORSDOF 6
