REMARK  Name = ZINC09325630
REMARK  10 active torsions:
REMARK  status: ('A' for Active; 'I' for Inactive)
REMARK    1  A    between atoms: C_1  and  C_2
REMARK    2  A    between atoms: C_2  and  O_3
REMARK    3  A    between atoms: O_3  and  C_4
REMARK    4  A    between atoms: C_7  and  C_9
REMARK    5  A    between atoms: C_13  and  N_14
REMARK    6  A    between atoms: C_15  and  C_17
REMARK    7  A    between atoms: C_20  and  C_24
REMARK    8  A    between atoms: C_22  and  C_23
REMARK    9  A    between atoms: C_29  and  O_31
REMARK   10  A    between atoms: O_31  and  C_32
REMARK                            x       y       z     vdW  Elec       q    Type
REMARK                         _______ _______ _______ _____ _____    ______ ____
ROOT
ATOM      1  C   UNL     1       4.108  -2.053  -1.018  0.00  0.00    +0.069 A 
ATOM      2  C   UNL     1       5.494  -2.423  -1.254  0.00  0.00    -0.020 A 
ATOM      3  C   UNL     1       6.364  -1.390  -1.285  0.00  0.00    +0.013 A 
ATOM      4  S   UNL     1       5.374   0.050  -1.009  0.00  0.00    -0.076 S 
ATOM      5  C   UNL     1       3.822  -0.705  -0.848  0.00  0.00    +0.085 A 
ATOM      6  C   UNL     1       7.844  -1.468  -1.512  0.00  0.00    +0.153 C 
ATOM      7  N   UNL     1       8.217  -2.895  -1.462  0.00  0.00    -0.262 N 
ATOM      8  C   UNL     1       7.329  -3.854  -2.137  0.00  0.00    +0.116 C 
ATOM      9  C   UNL     1       5.963  -3.859  -1.449  0.00  0.00    +0.056 C 
ATOM     10  C   UNL     1       9.330  -3.305  -0.821  0.00  0.00    +0.403 C 
ATOM     11  O   UNL     1       9.616  -4.486  -0.794  0.00  0.00    -0.226 OA
ENDROOT
BRANCH   1  15
ATOM     12  C   UNL     1       1.758  -4.575   0.263  0.00  0.00    +0.407 C 
ATOM     13  O   UNL     1       1.171  -4.895  -0.751  0.00  0.00    -0.226 OA
ATOM     14  N   UNL     1       2.731  -3.643   0.212  0.00  0.00    -0.217 N 
ATOM     15  C   UNL     1       3.051  -3.066  -0.963  0.00  0.00    +0.255 C 
ATOM     16  O   UNL     1       2.462  -3.387  -1.979  0.00  0.00    -0.270 OA
ATOM     17  H   UNL     1       3.200  -3.387   1.021  0.00  0.00    +0.161 HD
BRANCH  12  18
ATOM     18  O   UNL     1       1.439  -5.151   1.436  0.00  0.00    -0.450 OA
BRANCH  18  20
ATOM     19  C   UNL     1       0.161  -6.684   2.831  0.00  0.00    +0.048 C 
ATOM     20  C   UNL     1       0.382  -6.146   1.416  0.00  0.00    +0.230 C 
ENDBRANCH  18  20
ENDBRANCH  12  18
ENDBRANCH   1  15
BRANCH   5  21
ATOM     21  N   UNL     1       2.595  -0.108  -0.613  0.00  0.00    -0.275 N 
ATOM     22  C   UNL     1       2.512   1.230  -0.472  0.00  0.00    +0.249 C 
ATOM     23  O   UNL     1       3.514   1.913  -0.553  0.00  0.00    -0.270 OA
ATOM     24  H   UNL     1       1.795  -0.653  -0.548  0.00  0.00    +0.156 HD
BRANCH  22  25
ATOM     25  C   UNL     1       1.202   1.867  -0.221  0.00  0.00    +0.040 A 
ATOM     26  C   UNL     1       0.033   1.104  -0.258  0.00  0.00    +0.013 A 
ATOM     27  C   UNL     1      -1.186   1.706  -0.028  0.00  0.00    +0.004 A 
ATOM     28  C   UNL     1      -1.252   3.060   0.250  0.00  0.00    -0.050 A 
ATOM     29  C   UNL     1      -0.097   3.821   0.288  0.00  0.00    +0.007 A 
ATOM     30  C   UNL     1       1.129   3.233   0.054  0.00  0.00    -0.038 A 
ATOM     31  C   UNL     1       2.385   4.064   0.096  0.00  0.00    +0.044 C 
ATOM     32  C   UNL     1      -2.587   3.709   0.507  0.00  0.00    +0.044 C 
ENDBRANCH  22  25
ENDBRANCH   5  21
BRANCH  10  33
ATOM     33  O   UNL     1      10.125  -2.406  -0.211  0.00  0.00    -0.454 OA
ATOM     34  C   UNL     1      11.306  -2.918   0.460  0.00  0.00    +0.282 C 
ENDBRANCH  10  33
TORSDOF 6
