REMARK  Name = ZINC04501460
REMARK  2 active torsions:
REMARK  status: ('A' for Active; 'I' for Inactive)
REMARK    1  A    between atoms: C_4  and  N_24
REMARK    2  A    between atoms: C_5  and  C_7
REMARK                            x       y       z     vdW  Elec       q    Type
REMARK                         _______ _______ _______ _____ _____    ______ ____
ROOT
ATOM      1  C   UNL     1       0.496   3.147   0.953  0.00  0.00    +0.107 C 
ATOM      2  C   UNL     1       1.680   3.251  -0.011  0.00  0.00    +0.029 C 
ATOM      3  C   UNL     1       2.975   3.392   0.839  0.00  0.00    +0.033 C 
ATOM      4  C   UNL     1       3.318   1.961   1.203  0.00  0.00    -0.030 C 
ATOM      5  C   UNL     1       2.750   1.125   0.370  0.00  0.00    -0.023 C 
ATOM      6  C   UNL     1       1.945   1.876  -0.666  0.00  0.00    +0.049 C 
ATOM      7  C   UNL     1       0.665   1.154  -0.965  0.00  0.00    -0.018 A 
ATOM      8  C   UNL     1       0.738  -0.027  -1.693  0.00  0.00    +0.006 A 
ATOM      9  C   UNL     1      -0.405  -0.738  -1.998  0.00  0.00    +0.002 A 
ATOM     10  C   UNL     1      -1.639  -0.276  -1.579  0.00  0.00    +0.022 A 
ATOM     11  C   UNL     1      -1.723   0.895  -0.856  0.00  0.00    +0.062 A 
ATOM     12  C   UNL     1      -0.570   1.617  -0.546  0.00  0.00    +0.050 A 
ATOM     13  N   UNL     1      -0.712   2.798   0.183  0.00  0.00    -0.335 N 
ATOM     14 CL   UNL     1      -3.272   1.475  -0.328  0.00  0.00    -0.082 Cl
ATOM     15  H   UNL     1      -1.519   2.755   0.787  0.00  0.00    +0.147 HD
ENDROOT
BRANCH   1  20
ATOM     16  C   UNL     1       0.654  -0.233   2.627  0.00  0.00    +0.000 A 
ATOM     17  C   UNL     1       1.262   0.082   3.828  0.00  0.00    +0.002 A 
ATOM     18  C   UNL     1       1.621   1.389   4.099  0.00  0.00    +0.033 A 
ATOM     19  C   UNL     1       1.374   2.381   3.168  0.00  0.00    +0.131 A 
ATOM     20  C   UNL     1       0.766   2.066   1.967  0.00  0.00    +0.003 A 
ATOM     21  C   UNL     1       0.401   0.760   1.699  0.00  0.00    +0.008 A 
BRANCH  19  22
ATOM     22  N   UNL     1       1.759   3.780   3.458  0.00  0.00    +0.057 N 
ATOM     23  O   UNL     1       2.843   4.023   3.956  0.00  0.00    -0.126 OA
ATOM     24  O   UNL     1       0.991   4.690   3.198  0.00  0.00    -0.126 OA
ENDBRANCH  19  22
ENDBRANCH   1  20
TORSDOF 2
