REMARK  Name = ZINC14728513
REMARK  5 active torsions:
REMARK  status: ('A' for Active; 'I' for Inactive)
REMARK    1  A    between atoms: C_1  and  N_2
REMARK    2  A    between atoms: C_3  and  C_7
REMARK    3  A    between atoms: C_11  and  N_13
REMARK    4  A    between atoms: N_13  and  S_14
REMARK    5  A    between atoms: S_14  and  C_17
REMARK                            x       y       z     vdW  Elec       q    Type
REMARK                         _______ _______ _______ _____ _____    ______ ____
ROOT
ATOM      1  N   UNL     1       4.672  -3.828  -0.329  0.00  0.00    -0.216 N 
ATOM      2  H   UNL     1       5.137  -3.561   0.479  0.00  0.00    +0.174 HD
ENDROOT
BRANCH   1   7
ATOM      3  C   UNL     1       1.634  -1.751  -0.480  0.00  0.00    +0.022 A 
ATOM      4  C   UNL     1       0.706  -2.684  -0.944  0.00  0.00    +0.012 A 
ATOM      5  C   UNL     1       1.101  -3.982  -1.197  0.00  0.00    +0.003 A 
ATOM      6  C   UNL     1       2.414  -4.363  -0.993  0.00  0.00    +0.024 A 
ATOM      7  C   UNL     1       3.345  -3.440  -0.532  0.00  0.00    +0.049 A 
ATOM      8  C   UNL     1       2.959  -2.132  -0.280  0.00  0.00    +0.036 A 
BRANCH   3  11
ATOM      9  C   UNL     1      -1.286  -0.717  -0.062  0.00  0.00    +0.176 C 
ATOM     10  N   UNL     1      -0.058   0.080  -0.029  0.00  0.00    -0.228 N 
ATOM     11  C   UNL     1       1.213  -0.358  -0.209  0.00  0.00    +0.182 A 
ATOM     12  N   UNL     1       2.002   0.690  -0.096  0.00  0.00    -0.108 NA
ATOM     13  N   UNL     1       1.313   1.748   0.141  0.00  0.00    -0.023 NA
ATOM     14  N   UNL     1       0.057   1.463   0.197  0.00  0.00    -0.044 NA
ENDBRANCH   3  11
ENDBRANCH   1   7
BRANCH   1  15
ATOM     15  S   UNL     1       5.450  -4.745  -1.468  0.00  0.00    +0.072 S 
ATOM     16  O   UNL     1       6.773  -4.949  -0.990  0.00  0.00    -0.150 OA
ATOM     17  O   UNL     1       4.580  -5.822  -1.786  0.00  0.00    -0.150 OA
BRANCH  15  18
ATOM     18  C   UNL     1       5.587  -3.762  -2.923  0.00  0.00    +0.109 A 
ATOM     19  C   UNL     1       4.575  -3.808  -3.881  0.00  0.00    +0.029 A 
ATOM     20  C   UNL     1       4.647  -3.057  -5.013  0.00  0.00    +0.010 A 
ATOM     21  C   UNL     1       5.763  -2.230  -5.229  0.00  0.00    -0.018 A 
ATOM     22  C   UNL     1       5.876  -1.446  -6.390  0.00  0.00    +0.008 A 
ATOM     23  C   UNL     1       6.971  -0.656  -6.565  0.00  0.00    +0.001 A 
ATOM     24  C   UNL     1       7.985  -0.614  -5.611  0.00  0.00    +0.001 A 
ATOM     25  C   UNL     1       7.910  -1.360  -4.475  0.00  0.00    +0.008 A 
ATOM     26  C   UNL     1       6.794  -2.187  -4.259  0.00  0.00    -0.016 A 
ATOM     27  C   UNL     1       6.682  -2.972  -3.098  0.00  0.00    +0.037 A 
ENDBRANCH  15  18
ENDBRANCH   1  15
TORSDOF 4
