REMARK  Name = ZINC64409680
REMARK  4 active torsions:
REMARK  status: ('A' for Active; 'I' for Inactive)
REMARK    1  A    between atoms: C_1  and  C_2
REMARK    2  A    between atoms: C_5  and  C_8
REMARK    3  A    between atoms: C_15  and  C_17
REMARK    4  A    between atoms: C_20  and  C_23
REMARK                            x       y       z     vdW  Elec       q    Type
REMARK                         _______ _______ _______ _____ _____    ______ ____
ROOT
ATOM      1  C   UNL     1       1.317  -3.495   0.744  0.00  0.00    +0.039 C 
ATOM      2  C   UNL     1       2.537  -2.590   0.559  0.00  0.00    +0.009 C 
ATOM      3  C   UNL     1       3.814  -3.397   0.806  0.00  0.00    +0.019 C 
ATOM      4  C   UNL     1       3.813  -3.920   2.246  0.00  0.00    +0.108 C 
ATOM      5  N   UNL     1       2.571  -4.670   2.476  0.00  0.00    -0.299 N 
ATOM      6  C   UNL     1       1.287  -4.019   2.183  0.00  0.00    +0.114 C 
ATOM      7  C   UNL     1       2.609  -5.933   2.945  0.00  0.00    +0.246 C 
ATOM      8  O   UNL     1       1.576  -6.542   3.131  0.00  0.00    -0.273 OA
ENDROOT
BRANCH   1  13
ATOM      9  C   UNL     1      -0.018   1.503   0.010  0.00  0.00    +0.075 C 
ATOM     10  C   UNL     1       0.002  -0.004   0.002  0.00  0.00    +0.090 C 
ATOM     11  N   UNL     1       0.009  -0.793  -1.019  0.00  0.00    -0.184 NA
ATOM     12  N   UNL     1       0.029  -2.167  -0.918  0.00  0.00    -0.255 N 
ATOM     13  C   UNL     1       0.042  -2.695   0.465  0.00  0.00    +0.157 C 
ATOM     14  S   UNL     1       0.030  -1.111   1.403  0.00  0.00    -0.085 S 
ATOM     15  H   UNL     1       0.033  -2.745  -1.696  0.00  0.00    +0.169 HD
ENDBRANCH   1  13
BRANCH   7  16
ATOM     16  C   UNL     1       3.933  -6.588   3.240  0.00  0.00    +0.238 C 
ATOM     17  C   UNL     1       4.547  -7.153   1.972  0.00  0.00    +0.040 C 
ATOM     18  C   UNL     1       4.631  -8.475   2.215  0.00  0.00    +0.092 C 
ATOM     19  N   UNL     1       4.150  -8.761   3.453  0.00  0.00    -0.153 NA
ATOM     20  N   UNL     1       3.748  -7.778   4.087  0.00  0.00    -0.170 NA
BRANCH  18  21
ATOM     21  C   UNL     1       5.172  -9.477   1.264  0.00  0.00    +0.006 A 
ATOM     22  C   UNL     1       5.646  -9.073   0.017  0.00  0.00    +0.014 A 
ATOM     23  C   UNL     1       6.149 -10.006  -0.866  0.00  0.00    +0.050 A 
ATOM     24  C   UNL     1       6.186 -11.348  -0.517  0.00  0.00    +0.166 A 
ATOM     25  C   UNL     1       5.714 -11.758   0.729  0.00  0.00    +0.167 A 
ATOM     26  C   UNL     1       5.213 -10.825   1.619  0.00  0.00    +0.059 A 
ATOM     27  O   UNL     1       5.859 -13.111   0.826  0.00  0.00    -0.453 OA
ATOM     28  C   UNL     1       6.044 -13.576  -0.524  0.00  0.00    +0.466 C 
ATOM     29  O   UNL     1       6.627 -12.445  -1.198  0.00  0.00    -0.453 OA
ENDBRANCH  18  21
ENDBRANCH   7  16
TORSDOF 3
