REMARK  Name = ZINC14879831
REMARK  5 active torsions:
REMARK  status: ('A' for Active; 'I' for Inactive)
REMARK    1  A    between atoms: C_4  and  C_7
REMARK    2  A    between atoms: C_7  and  C_8
REMARK    3  A    between atoms: C_8  and  C_15
REMARK    4  A    between atoms: C_20  and  C_21
REMARK    5  A    between atoms: C_20  and  N_52
REMARK                            x       y       z     vdW  Elec       q    Type
REMARK                         _______ _______ _______ _____ _____    ______ ____
ROOT
ATOM      1  C   UNL     1      -2.773   2.065  -4.901  0.00  0.00    +0.119 C 
ATOM      2  C   UNL     1      -1.984   1.916  -6.186  0.00  0.00    +0.244 C 
ATOM      3  O   UNL     1      -1.691   0.884  -6.750  0.00  0.00    -0.273 OA
ATOM      4  N   UNL     1      -1.677   3.170  -6.572  0.00  0.00    -0.238 N 
ATOM      5  C   UNL     1      -2.157   4.081  -5.718  0.00  0.00    +0.307 C 
ATOM      6  O   UNL     1      -2.008   5.280  -5.854  0.00  0.00    -0.252 OA
ATOM      7  N   UNL     1      -2.827   3.522  -4.690  0.00  0.00    -0.284 N 
ATOM      8  H   UNL     1      -1.170   3.386  -7.371  0.00  0.00    +0.159 HD
ATOM      9  H   UNL     1      -3.260   3.986  -3.956  0.00  0.00    +0.151 HD
ENDROOT
BRANCH   1  10
ATOM     10  C   UNL     1      -2.047   1.380  -3.741  0.00  0.00    +0.018 C 
ATOM     11  C   UNL     1      -0.641   1.970  -3.598  0.00  0.00    -0.013 C 
ATOM     12  C   UNL     1       0.058   1.323  -2.400  0.00  0.00    -0.078 C 
ATOM     13  C   UNL     1      -2.061   0.974  -1.278  0.00  0.00    -0.078 C 
ATOM     14  C   UNL     1      -2.824   1.611  -2.442  0.00  0.00    -0.013 C 
ATOM     15  N   UNL     1      -0.726   1.602  -1.178  0.00  0.00    +0.382 N 
ATOM     16  H   UNL     1      -0.842   2.618  -1.082  0.00  0.00    -0.081 HD
BRANCH  15  17
ATOM     17  C   UNL     1      -0.013   1.086   0.008  0.00  0.00    -0.043 C 
BRANCH  17  18
ATOM     18  C   UNL     1      -0.718   1.572   1.248  0.00  0.00    -0.059 A 
ATOM     19  C   UNL     1      -0.359   2.779   1.818  0.00  0.00    +0.040 A 
ATOM     20  C   UNL     1      -1.010   3.228   2.955  0.00  0.00    +0.126 A 
ATOM     21  C   UNL     1      -2.013   2.464   3.526  0.00  0.00    +0.076 A 
ATOM     22  C   UNL     1      -2.367   1.253   2.957  0.00  0.00    +0.126 A 
ATOM     23  C   UNL     1      -1.719   0.808   1.817  0.00  0.00    +0.040 A 
ATOM     24  F   UNL     1      -3.345   0.505   3.514  0.00  0.00    -0.205 F 
ATOM     25  F   UNL     1      -0.663   4.411   3.509  0.00  0.00    -0.205 F 
ENDBRANCH  17  18
ENDBRANCH  15  17
ENDBRANCH   1  10
BRANCH   1  26
ATOM     26  C   UNL     1      -4.182   1.492  -5.065  0.00  0.00    +0.070 C 
BRANCH  26  30
ATOM     27  C   UNL     1      -6.146   3.449  -8.315  0.00  0.00    +0.000 A 
ATOM     28  C   UNL     1      -5.404   2.305  -8.543  0.00  0.00    +0.000 A 
ATOM     29  C   UNL     1      -4.768   1.672  -7.492  0.00  0.00    +0.004 A 
ATOM     30  C   UNL     1      -4.875   2.183  -6.212  0.00  0.00    -0.045 A 
ATOM     31  C   UNL     1      -5.621   3.324  -5.982  0.00  0.00    +0.004 A 
ATOM     32  C   UNL     1      -6.253   3.959  -7.035  0.00  0.00    +0.000 A 
ENDBRANCH  26  30
ENDBRANCH   1  26
TORSDOF 5
