REMARK  Name = ZINC07884365
REMARK  5 active torsions:
REMARK  status: ('A' for Active; 'I' for Inactive)
REMARK    1  A    between atoms: C_1  and  O_2
REMARK    2  A    between atoms: O_2  and  C_3
REMARK    3  A    between atoms: C_5  and  C_11
REMARK    4  A    between atoms: C_8  and  O_9
REMARK    5  A    between atoms: N_22  and  C_23
REMARK                            x       y       z     vdW  Elec       q    Type
REMARK                         _______ _______ _______ _____ _____    ______ ____
ROOT
ATOM      1  C   UNL     1       2.517  -2.776  -0.154  0.00  0.00    +0.198 C 
ATOM      2  N   UNL     1       2.483  -4.041   0.596  0.00  0.00    -0.321 N 
ATOM      3  C   UNL     1       1.352  -4.844   0.498  0.00  0.00    +0.041 A 
ATOM      4  C   UNL     1       1.419  -6.219   0.649  0.00  0.00    +0.024 A 
ATOM      5  C   UNL     1       0.263  -6.972   0.571  0.00  0.00    +0.002 A 
ATOM      6  C   UNL     1      -0.961  -6.363   0.347  0.00  0.00    +0.001 A 
ATOM      7  C   UNL     1      -1.044  -4.995   0.192  0.00  0.00    +0.015 A 
ATOM      8  C   UNL     1       0.114  -4.224   0.255  0.00  0.00    +0.058 A 
ATOM      9  C   UNL     1       0.080  -2.760   0.090  0.00  0.00    +0.254 C 
ATOM     10  O   UNL     1      -0.984  -2.172   0.053  0.00  0.00    -0.270 OA
ATOM     11  N   UNL     1       1.238  -2.079  -0.021  0.00  0.00    -0.244 N 
ATOM     12  H   UNL     1       3.236  -4.312   1.145  0.00  0.00    +0.148 HD
ENDROOT
BRANCH   1  15
ATOM     13  C   UNL     1       3.762  -4.436  -3.312  0.00  0.00    +0.163 A 
ATOM     14  C   UNL     1       3.518  -4.172  -1.973  0.00  0.00    +0.056 A 
ATOM     15  C   UNL     1       2.781  -3.061  -1.610  0.00  0.00    -0.004 A 
ATOM     16  C   UNL     1       2.281  -2.212  -2.580  0.00  0.00    +0.031 A 
ATOM     17  C   UNL     1       2.525  -2.466  -3.918  0.00  0.00    +0.086 A 
ATOM     18  C   UNL     1       3.264  -3.579  -4.288  0.00  0.00    +0.177 A 
ATOM     19 CL   UNL     1       1.902  -1.394  -5.133  0.00  0.00    -0.080 Cl
BRANCH  13  21
ATOM     20  C   UNL     1       4.967  -6.364  -2.614  0.00  0.00    +0.277 C 
ATOM     21  O   UNL     1       4.487  -5.529  -3.670  0.00  0.00    -0.491 OA
ENDBRANCH  13  21
BRANCH  18  22
ATOM     22  O   UNL     1       3.501  -3.834  -5.603  0.00  0.00    -0.502 OA
ATOM     23  H   UNL     1       2.828  -4.385  -6.024  0.00  0.00    +0.292 HD
ENDBRANCH  18  22
ENDBRANCH   1  15
BRANCH  11  24
ATOM     24  C   UNL     1       1.215  -0.680  -0.013  0.00  0.00    +0.039 A 
ATOM     25  C   UNL     1       0.466   0.008  -0.959  0.00  0.00    +0.023 A 
ATOM     26  C   UNL     1       0.446   1.389  -0.948  0.00  0.00    +0.002 A 
ATOM     27  C   UNL     1       1.170   2.086   0.002  0.00  0.00    +0.000 A 
ATOM     28  C   UNL     1       1.916   1.403   0.944  0.00  0.00    +0.002 A 
ATOM     29  C   UNL     1       1.941   0.022   0.940  0.00  0.00    +0.023 A 
ENDBRANCH  11  24
TORSDOF 4
