REMARK  Name = ZINC05061297
REMARK  4 active torsions:
REMARK  status: ('A' for Active; 'I' for Inactive)
REMARK    1  A    between atoms: C_4  and  C_7
REMARK    2  A    between atoms: C_8  and  C_9
REMARK    3  A    between atoms: C_9  and  C_11
REMARK    4  A    between atoms: C_18  and  N_23
REMARK                            x       y       z     vdW  Elec       q    Type
REMARK                         _______ _______ _______ _____ _____    ______ ____
ROOT
ATOM      1  C   UNL     1       1.077   7.443  -0.292  0.00  0.00    +0.081 C 
ATOM      2  C   UNL     1      -0.111   8.105  -0.278  0.00  0.00    +0.121 C 
ATOM      3  C   UNL     1      -1.422   7.418  -0.058  0.00  0.00    +0.359 C 
ATOM      4  O   UNL     1      -1.710   6.380  -0.621  0.00  0.00    -0.243 OA
ATOM      5  O   UNL     1      -2.264   8.030   0.813  0.00  0.00    -0.420 OA
ATOM      6  C   UNL     1      -2.276   9.390   0.800  0.00  0.00    +0.155 A 
ATOM      7  C   UNL     1      -3.318  10.057   1.433  0.00  0.00    +0.081 A 
ATOM      8  C   UNL     1      -3.343  11.437   1.463  0.00  0.00    +0.130 A 
ATOM      9  C   UNL     1      -2.332  12.166   0.862  0.00  0.00    +0.035 A 
ATOM     10  C   UNL     1      -1.294  11.515   0.225  0.00  0.00    +0.029 A 
ATOM     11  C   UNL     1      -1.265  10.126   0.187  0.00  0.00    +0.075 A 
ATOM     12  N   UNL     1      -0.212   9.481  -0.474  0.00  0.00    -0.306 N 
ATOM     13  H   UNL     1       0.413   9.965  -1.036  0.00  0.00    +0.152 HD
ENDROOT
BRANCH   8  14
ATOM     14  N   UNL     1      -4.456  12.139   2.140  0.00  0.00    +0.057 N 
ATOM     15  O   UNL     1      -4.481  13.357   2.167  0.00  0.00    -0.126 OA
ATOM     16  O   UNL     1      -5.348  11.500   2.669  0.00  0.00    -0.126 OA
ENDBRANCH   8  14
BRANCH   1  17
ATOM     17  C   UNL     1       1.110   5.997  -0.080  0.00  0.00    +0.181 C 
ATOM     18  O   UNL     1       0.072   5.384   0.110  0.00  0.00    -0.288 OA
BRANCH  17  20
ATOM     19  C   UNL     1       2.436   3.974   0.229  0.00  0.00    +0.011 C 
ATOM     20  C   UNL     1       2.389   5.283  -0.095  0.00  0.00    +0.051 C 
BRANCH  19  24
ATOM     21  C   UNL     1      -0.953   2.098   1.959  0.00  0.00    +0.000 A 
ATOM     22  C   UNL     1      -0.299   1.496   0.898  0.00  0.00    +0.001 A 
ATOM     23  C   UNL     1       0.802   2.100   0.329  0.00  0.00    +0.008 A 
ATOM     24  C   UNL     1       1.261   3.322   0.830  0.00  0.00    -0.025 A 
ATOM     25  C   UNL     1       0.598   3.922   1.906  0.00  0.00    +0.008 A 
ATOM     26  C   UNL     1      -0.501   3.306   2.464  0.00  0.00    +0.001 A 
ENDBRANCH  19  24
ENDBRANCH  17  20
ENDBRANCH   1  17
TORSDOF 4
