REMARK  Name = ZINC16162835
REMARK  4 active torsions:
REMARK  status: ('A' for Active; 'I' for Inactive)
REMARK    1  A    between atoms: C_1  and  C_2
REMARK    2  A    between atoms: C_2  and  N_3
REMARK    3  A    between atoms: C_12  and  C_13
REMARK    4  A    between atoms: C_15  and  C_16
REMARK                            x       y       z     vdW  Elec       q    Type
REMARK                         _______ _______ _______ _____ _____    ______ ____
ROOT
ATOM      1  N   UNL     1       1.992  -0.164   1.950  0.00  0.00    -0.308 N 
ATOM      2  C   UNL     1       3.195  -0.816   2.129  0.00  0.00    +0.056 A 
ATOM      3  C   UNL     1       4.263  -0.586   1.267  0.00  0.00    +0.026 A 
ATOM      4  C   UNL     1       5.457  -1.246   1.462  0.00  0.00    +0.002 A 
ATOM      5  C   UNL     1       5.609  -2.140   2.512  0.00  0.00    +0.001 A 
ATOM      6  C   UNL     1       4.564  -2.382   3.377  0.00  0.00    +0.014 A 
ATOM      7  C   UNL     1       3.349  -1.721   3.192  0.00  0.00    +0.046 A 
ATOM      8  C   UNL     1       2.210  -1.955   4.098  0.00  0.00    +0.202 A 
ATOM      9  O   UNL     1       2.300  -2.733   5.034  0.00  0.00    -0.286 OA
ATOM     10  C   UNL     1       1.007  -1.248   3.848  0.00  0.00    +0.114 A 
ATOM     11  C   UNL     1       0.939  -0.367   2.780  0.00  0.00    +0.265 A 
ATOM     12  O   UNL     1      -0.210   0.304   2.557  0.00  0.00    -0.267 OA
ENDROOT
BRANCH  10  13
ATOM     13  C   UNL     1      -0.167  -1.445   4.726  0.00  0.00    +0.110 C 
ATOM     14  C   UNL     1      -0.820  -2.732   5.039  0.00  0.00    +0.067 C 
ATOM     15  C   UNL     1      -0.466  -3.994   4.579  0.00  0.00    +0.030 C 
ATOM     16  C   UNL     1      -1.923  -2.387   5.943  0.00  0.00    +0.265 C 
ATOM     17  O   UNL     1      -2.724  -3.156   6.447  0.00  0.00    -0.268 OA
ATOM     18  N   UNL     1      -1.875  -1.049   6.104  0.00  0.00    -0.202 N 
ATOM     19  H   UNL     1      -2.487  -0.535   6.653  0.00  0.00    +0.178 HD
ATOM     20  N   UNL     1      -0.817  -0.512   5.372  0.00  0.00    -0.179 NA
BRANCH  15  21
ATOM     21  C   UNL     1      -1.087  -5.136   5.111  0.00  0.00    +0.013 A 
ATOM     22  C   UNL     1      -1.424  -6.332   4.475  0.00  0.00    +0.015 A 
ATOM     23  C   UNL     1      -2.029  -7.273   5.266  0.00  0.00    +0.008 A 
ATOM     24  C   UNL     1      -2.256  -6.990   6.577  0.00  0.00    +0.046 A 
ATOM     25  S   UNL     1      -1.646  -5.438   6.777  0.00  0.00    -0.097 S 
ENDBRANCH  15  21
ENDBRANCH  10  13
BRANCH   1  27
ATOM     26  C   UNL     1       2.262   2.177   1.295  0.00  0.00    +0.027 C 
ATOM     27  C   UNL     1       1.850   0.777   0.836  0.00  0.00    +0.122 C 
ENDBRANCH   1  27
TORSDOF 3
