REMARK  Name = ZINC20091750
REMARK  5 active torsions:
REMARK  status: ('A' for Active; 'I' for Inactive)
REMARK    1  A    between atoms: C_4  and  C_7
REMARK    2  A    between atoms: C_7  and  S_8
REMARK    3  A    between atoms: S_8  and  C_9
REMARK    4  A    between atoms: C_14  and  C_24
REMARK    5  A    between atoms: C_27  and  C_30
REMARK                            x       y       z     vdW  Elec       q    Type
REMARK                         _______ _______ _______ _____ _____    ______ ____
ROOT
ATOM      1  C   UNL     1       2.671   5.551  -3.214  0.00  0.00    +0.211 A 
ATOM      2  N   UNL     1       2.449   6.574  -2.375  0.00  0.00    -0.187 NA
ATOM      3  C   UNL     1       2.352   6.123  -1.154  0.00  0.00    +0.219 A 
ATOM      4  N   UNL     1       2.508   4.777  -1.188  0.00  0.00    -0.220 N 
ATOM      5  N   UNL     1       2.715   4.432  -2.523  0.00  0.00    -0.141 NA
ATOM      6  C   UNL     1       2.452   3.933  -0.001  0.00  0.00    +0.175 C 
ATOM      7  C   UNL     1       2.540   4.786   1.246  0.00  0.00    +0.041 C 
ATOM      8  C   UNL     1       2.375   6.125   1.212  0.00  0.00    +0.020 C 
ATOM      9  N   UNL     1       2.135   6.796   0.037  0.00  0.00    -0.287 N 
ATOM     10  C   UNL     1       2.443   6.947   2.477  0.00  0.00    +0.052 C 
ATOM     11  C   UNL     1       3.415   6.295   3.462  0.00  0.00    +0.014 C 
ATOM     12  C   UNL     1       2.925   4.873   3.754  0.00  0.00    +0.080 C 
ATOM     13  C   UNL     1       2.804   4.122   2.458  0.00  0.00    +0.163 C 
ATOM     14  O   UNL     1       2.939   2.914   2.456  0.00  0.00    -0.292 OA
ATOM     15  H   UNL     1       1.782   7.838   0.023  0.00  0.00    +0.155 HD
ENDROOT
BRANCH   6  16
ATOM     16  C   UNL     1       1.155   3.167   0.008  0.00  0.00    -0.018 A 
ATOM     17  C   UNL     1       1.172   1.783   0.000  0.00  0.00    +0.007 A 
ATOM     18  C   UNL     1      -0.013   1.076   0.008  0.00  0.00    +0.015 A 
ATOM     19  C   UNL     1      -1.230   1.759   0.017  0.00  0.00    +0.063 A 
ATOM     20  C   UNL     1      -1.240   3.155   0.030  0.00  0.00    +0.015 A 
ATOM     21  C   UNL     1      -0.048   3.850   0.023  0.00  0.00    +0.007 A 
BRANCH  19  22
ATOM     22  C   UNL     1      -2.502   1.008   0.020  0.00  0.00    +0.387 C 
ATOM     23  O   UNL     1      -2.491  -0.206   0.013  0.00  0.00    -0.241 OA
ATOM     24  O   UNL     1      -3.675   1.670   0.029  0.00  0.00    -0.241 OA
ENDBRANCH  19  22
ENDBRANCH   6  16
BRANCH   1  25
ATOM     25  S   UNL     1       2.872   5.684  -4.959  0.00  0.00    -0.080 S 
BRANCH  25  26
ATOM     26  C   UNL     1       2.705   7.460  -5.286  0.00  0.00    +0.112 C 
BRANCH  26  30
ATOM     27  C   UNL     1       3.139   8.185  -9.473  0.00  0.00    +0.000 A 
ATOM     28  C   UNL     1       1.889   7.931  -8.942  0.00  0.00    +0.000 A 
ATOM     29  C   UNL     1       1.748   7.696  -7.587  0.00  0.00    +0.004 A 
ATOM     30  C   UNL     1       2.858   7.716  -6.763  0.00  0.00    -0.037 A 
ATOM     31  C   UNL     1       4.108   7.976  -7.294  0.00  0.00    +0.004 A 
ATOM     32  C   UNL     1       4.249   8.205  -8.650  0.00  0.00    +0.000 A 
ENDBRANCH  26  30
ENDBRANCH  25  26
ENDBRANCH   1  25
TORSDOF 5
