REMARK  Name = ZINC39242937
REMARK  5 active torsions:
REMARK  status: ('A' for Active; 'I' for Inactive)
REMARK    1  A    between atoms: C_4  and  C_7
REMARK    2  A    between atoms: C_9  and  C_27
REMARK    3  A    between atoms: N_11  and  C_18
REMARK    4  A    between atoms: C_21  and  C_24
REMARK    5  A    between atoms: C_31  and  O_33
REMARK                            x       y       z     vdW  Elec       q    Type
REMARK                         _______ _______ _______ _____ _____    ______ ____
ROOT
ATOM      1  C   UNL     1       3.699  -0.689  -0.037  0.00  0.00    +0.097 C 
ATOM      2  C   UNL     1       3.827  -2.001  -0.051  0.00  0.00    +0.018 C 
ATOM      3  C   UNL     1       3.419  -3.438   0.172  0.00  0.00    +0.142 C 
ATOM      4  N   UNL     1       4.521  -3.970   1.013  0.00  0.00    -0.258 N 
ATOM      5  C   UNL     1       5.645  -3.227   0.817  0.00  0.00    +0.251 C 
ATOM      6  O   UNL     1       6.703  -3.360   1.395  0.00  0.00    -0.272 OA
ATOM      7  C   UNL     1       5.338  -2.213  -0.244  0.00  0.00    +0.244 C 
ATOM      8  N   UNL     1       5.878  -0.878  -0.091  0.00  0.00    -0.170 NA
ATOM      9  N   UNL     1       4.923  -0.086  -0.047  0.00  0.00    -0.153 NA
ENDROOT
BRANCH   1  13
ATOM     10  C   UNL     1      -0.017   1.379   0.010  0.00  0.00    +0.000 A 
ATOM     11  C   UNL     1       1.169   2.092   0.002  0.00  0.00    +0.001 A 
ATOM     12  C   UNL     1       2.377   1.426  -0.013  0.00  0.00    +0.010 A 
ATOM     13  C   UNL     1       2.402   0.033  -0.021  0.00  0.00    +0.002 A 
ATOM     14  C   UNL     1       1.205  -0.680  -0.013  0.00  0.00    +0.010 A 
ATOM     15  C   UNL     1       0.002  -0.004   0.002  0.00  0.00    +0.001 A 
ENDBRANCH   1  13
BRANCH   4  16
ATOM     16  C   UNL     1       4.420  -5.061   1.873  0.00  0.00    +0.037 A 
ATOM     17  C   UNL     1       3.214  -5.747   1.985  0.00  0.00    +0.024 A 
ATOM     18  C   UNL     1       3.110  -6.826   2.833  0.00  0.00    +0.017 A 
ATOM     19  C   UNL     1       4.219  -7.234   3.582  0.00  0.00    +0.063 A 
ATOM     20  C   UNL     1       5.430  -6.542   3.466  0.00  0.00    +0.017 A 
ATOM     21  C   UNL     1       5.527  -5.467   2.612  0.00  0.00    +0.024 A 
BRANCH  19  22
ATOM     22  C   UNL     1       4.113  -8.387   4.491  0.00  0.00    +0.387 C 
ATOM     23  O   UNL     1       3.053  -8.991   4.591  0.00  0.00    -0.241 OA
ATOM     24  O   UNL     1       5.083  -8.742   5.145  0.00  0.00    -0.241 OA
ENDBRANCH  19  22
ENDBRANCH   4  16
BRANCH   3  25
ATOM     25  C   UNL     1       3.339  -4.179  -1.138  0.00  0.00    -0.019 A 
ATOM     26  C   UNL     1       4.492  -4.657  -1.734  0.00  0.00    +0.006 A 
ATOM     27  C   UNL     1       4.421  -5.336  -2.936  0.00  0.00    +0.004 A 
ATOM     28  C   UNL     1       3.198  -5.540  -3.545  0.00  0.00    +0.045 A 
ATOM     29  C   UNL     1       2.040  -5.062  -2.949  0.00  0.00    +0.117 A 
ATOM     30  C   UNL     1       2.113  -4.385  -1.740  0.00  0.00    +0.051 A 
BRANCH  29  31
ATOM     31  O   UNL     1       0.836  -5.261  -3.546  0.00  0.00    -0.507 OA
ATOM     32  H   UNL     1       0.397  -6.081  -3.283  0.00  0.00    +0.292 HD
ENDBRANCH  29  31
ENDBRANCH   3  25
TORSDOF 5
