REMARK  Name = ZINC61276593
REMARK  2 active torsions:
REMARK  status: ('A' for Active; 'I' for Inactive)
REMARK    1  A    between atoms: C_5  and  N_7
REMARK    2  A    between atoms: N_7  and  C_8
REMARK                            x       y       z     vdW  Elec       q    Type
REMARK                         _______ _______ _______ _____ _____    ______ ____
ROOT
ATOM      1  N   UNL     1       1.173  -2.051  -0.021  0.00  0.00    -0.326 N 
ATOM      2  H   UNL     1       2.019  -2.526  -0.032  0.00  0.00    +0.148 HD
ENDROOT
BRANCH   1   7
ATOM      3  C   UNL     1      -0.016   1.313   0.009  0.00  0.00    +0.223 A 
ATOM      4  N   UNL     1       1.093   2.025   0.003  0.00  0.00    -0.240 NA
ATOM      5  C   UNL     1       2.283   1.437  -0.012  0.00  0.00    +0.049 A 
ATOM      6  C   UNL     1       2.349   0.059  -0.020  0.00  0.00    +0.014 A 
ATOM      7  C   UNL     1       1.156  -0.666  -0.013  0.00  0.00    +0.126 A 
ATOM      8  N   UNL     1       0.002  -0.004   0.002  0.00  0.00    -0.221 NA
ATOM      9  C   UNL     1       3.791  -0.388  -0.037  0.00  0.00    +0.041 C 
ATOM     10  C   UNL     1       4.594   0.856  -0.474  0.00  0.00    +0.011 C 
ATOM     11  C   UNL     1       3.679   2.015  -0.022  0.00  0.00    +0.056 C 
ENDBRANCH   1   7
BRANCH   1  12
ATOM     12  C   UNL     1      -0.086  -2.800  -0.014  0.00  0.00    +0.072 C 
ATOM     13  C   UNL     1      -0.575  -2.961   1.427  0.00  0.00    +0.022 C 
ATOM     14  C   UNL     1      -2.048  -3.375   1.422  0.00  0.00    +0.002 C 
ATOM     15  C   UNL     1      -2.812  -2.532   0.400  0.00  0.00    +0.000 C 
ATOM     16  C   UNL     1      -3.284  -3.427  -0.748  0.00  0.00    +0.000 C 
ATOM     17  C   UNL     1      -2.099  -3.752  -1.661  0.00  0.00    +0.000 C 
ATOM     18  C   UNL     1      -1.213  -4.804  -0.991  0.00  0.00    +0.002 C 
ATOM     19  C   UNL     1       0.138  -4.181  -0.634  0.00  0.00    +0.022 C 
ENDBRANCH   1  12
TORSDOF 2
