REMARK  Name = ZINC12412722
REMARK  12 active torsions:
REMARK  status: ('A' for Active; 'I' for Inactive)
REMARK    1  A    between atoms: C_1  and  C_2
REMARK    2  A    between atoms: C_2  and  O_3
REMARK    3  A    between atoms: O_3  and  C_4
REMARK    4  A    between atoms: C_4  and  C_6
REMARK    5  A    between atoms: C_7  and  C_29
REMARK    6  A    between atoms: C_9  and  N_28
REMARK    7  A    between atoms: C_10  and  C_26
REMARK    8  A    between atoms: C_11  and  C_13
REMARK    9  A    between atoms: C_15  and  C_18
REMARK   10  A    between atoms: C_18  and  S_19
REMARK   11  A    between atoms: S_19  and  C_20
REMARK   12  A    between atoms: N_24  and  C_25
REMARK                            x       y       z     vdW  Elec       q    Type
REMARK                         _______ _______ _______ _____ _____    ______ ____
ROOT
ATOM      1  C   UNL     1      -0.635   1.767   3.605  0.00  0.00    +0.087 C 
ATOM      2  C   UNL     1      -0.294   1.155   4.747  0.00  0.00    +0.115 C 
ATOM      3  O   UNL     1      -0.957   1.360   5.894  0.00  0.00    -0.445 OA
ATOM      4  C   UNL     1      -1.738   2.447   6.022  0.00  0.00    +0.198 C 
ATOM      5  C   UNL     1      -2.176   3.142   4.945  0.00  0.00    +0.099 C 
ATOM      6  C   UNL     1      -1.799   2.718   3.551  0.00  0.00    +0.111 C 
ATOM      7  C   UNL     1       0.878   0.208   4.742  0.00  0.00    +0.087 C 
ENDROOT
BRANCH   6   8
ATOM      8  C   UNL     1      -2.974   2.035   2.900  0.00  0.00    +0.003 A 
ATOM      9  C   UNL     1      -3.647   2.381   1.775  0.00  0.00    +0.016 A 
ATOM     10  C   UNL     1      -4.706   1.596   1.359  0.00  0.00    -0.030 A 
ATOM     11  C   UNL     1      -5.040   0.503   2.088  0.00  0.00    +0.050 A 
ATOM     12  S   UNL     1      -3.836   0.555   3.405  0.00  0.00    -0.100 S 
BRANCH  10  13
ATOM     13  C   UNL     1      -5.477   1.950   0.114  0.00  0.00    +0.113 C 
BRANCH  13  14
ATOM     14  S   UNL     1      -4.716   1.142  -1.316  0.00  0.00    -0.080 S 
BRANCH  14  15
ATOM     15  C   UNL     1      -5.787   1.711  -2.595  0.00  0.00    +0.209 A 
ATOM     16  N   UNL     1      -6.831   2.498  -2.447  0.00  0.00    -0.102 NA
ATOM     17  N   UNL     1      -7.389   2.722  -3.582  0.00  0.00    -0.022 NA
ATOM     18  N   UNL     1      -6.763   2.098  -4.520  0.00  0.00    -0.043 NA
ATOM     19  N   UNL     1      -5.695   1.415  -3.913  0.00  0.00    -0.223 N 
ATOM     20  C   UNL     1      -4.696   0.566  -4.566  0.00  0.00    +0.177 C 
ENDBRANCH  14  15
ENDBRANCH  13  14
ENDBRANCH  10  13
ENDBRANCH   6   8
BRANCH   4  21
ATOM     21  N   UNL     1      -2.100   2.864   7.279  0.00  0.00    -0.328 N 
ATOM     22  H   UNL     1      -2.663   3.647   7.386  0.00  0.00    +0.145 HD
ATOM     23  H   UNL     1      -1.793   2.376   8.059  0.00  0.00    +0.145 HD
ENDBRANCH   4  21
BRANCH   1  24
ATOM     24  C   UNL     1       0.111   1.511   2.428  0.00  0.00    +0.339 C 
ATOM     25  O   UNL     1       0.969   2.295   2.069  0.00  0.00    -0.245 OA
BRANCH  24  26
ATOM     26  O   UNL     1      -0.131   0.397   1.706  0.00  0.00    -0.462 OA
BRANCH  26  28
ATOM     27  C   UNL     1       0.243  -1.103  -0.151  0.00  0.00    +0.048 C 
ATOM     28  C   UNL     1       0.658   0.202   0.531  0.00  0.00    +0.229 C 
ENDBRANCH  26  28
ENDBRANCH  24  26
ENDBRANCH   1  24
BRANCH   5  29
ATOM     29  C   UNL     1      -3.008   4.292   5.135  0.00  0.00    +0.101 C 
ATOM     30  N   UNL     1      -3.667   5.204   5.286  0.00  0.00    -0.191 NA
ENDBRANCH   5  29
TORSDOF 9
