REMARK  Name = ZINC11855684
REMARK  7 active torsions:
REMARK  status: ('A' for Active; 'I' for Inactive)
REMARK    1  A    between atoms: C_1  and  C_2
REMARK    2  A    between atoms: C_2  and  C_3
REMARK    3  A    between atoms: C_2  and  C_4
REMARK    4  A    between atoms: C_13  and  N_22
REMARK    5  A    between atoms: C_15  and  C_17
REMARK    6  A    between atoms: C_23  and  C_25
REMARK    7  A    between atoms: C_27  and  C_30
REMARK                            x       y       z     vdW  Elec       q    Type
REMARK                         _______ _______ _______ _____ _____    ______ ____
ROOT
ATOM      1  C   UNL     1       3.709  -4.759   0.201  0.00  0.00    +0.053 A 
ATOM      2  C   UNL     1       4.481  -5.869   0.383  0.00  0.00    +0.093 A 
ATOM      3  C   UNL     1       5.879  -5.720   0.451  0.00  0.00    +0.253 A 
ATOM      4  O   UNL     1       6.601  -6.689   0.613  0.00  0.00    -0.268 OA
ATOM      5  N   UNL     1       6.406  -4.482   0.327  0.00  0.00    -0.291 N 
ATOM      6  H   UNL     1       7.367  -4.356   0.366  0.00  0.00    +0.172 HD
ATOM      7  C   UNL     1       5.584  -3.413   0.152  0.00  0.00    +0.234 A 
ATOM      8  N   UNL     1       4.278  -3.561   0.090  0.00  0.00    -0.217 NA
ATOM      9  N   UNL     1       6.131  -2.151   0.032  0.00  0.00    -0.185 N 
ATOM     10  C   UNL     1       5.434  -0.978  -0.053  0.00  0.00    +0.132 A 
ATOM     11  C   UNL     1       6.336   0.031  -0.153  0.00  0.00    +0.074 A 
ATOM     12  C   UNL     1       7.626  -0.540  -0.135  0.00  0.00    +0.102 A 
ATOM     13  N   UNL     1       7.497  -1.847  -0.028  0.00  0.00    -0.162 NA
ENDROOT
BRANCH  12  14
ATOM     14  C   UNL     1       8.903   0.200  -0.222  0.00  0.00    +0.039 A 
ATOM     15  C   UNL     1      10.183  -0.284  -0.211  0.00  0.00    +0.018 A 
ATOM     16  C   UNL     1      11.229   0.608  -0.305  0.00  0.00    +0.008 A 
ATOM     17  C   UNL     1      10.960   1.935  -0.406  0.00  0.00    +0.046 A 
ATOM     18  S   UNL     1       9.176   1.958  -0.376  0.00  0.00    -0.095 S 
ENDBRANCH  12  14
BRANCH  10  19
ATOM     19  N   UNL     1       4.049  -0.843  -0.034  0.00  0.00    -0.265 N 
ATOM     20  C   UNL     1       3.492   0.384   0.010  0.00  0.00    +0.271 C 
ATOM     21  O   UNL     1       4.199   1.371   0.033  0.00  0.00    -0.268 OA
ATOM     22  H   UNL     1       3.484  -1.632  -0.052  0.00  0.00    +0.157 HD
BRANCH  20  23
ATOM     23  C   UNL     1       2.016   0.528   0.030  0.00  0.00    +0.168 A 
ATOM     24  C   UNL     1       1.276   1.742   0.076  0.00  0.00    +0.081 A 
ATOM     25  C   UNL     1      -0.015   1.337   0.076  0.00  0.00    +0.141 A 
ATOM     26  O   UNL     1       0.003  -0.002   0.035  0.00  0.00    -0.359 OA
ATOM     27  N   UNL     1       1.131  -0.437   0.009  0.00  0.00    -0.073 NA
BRANCH  25  28
ATOM     28  C   UNL     1      -1.235   2.220   0.111  0.00  0.00    +0.058 C 
ATOM     29  C   UNL     1      -2.593   1.542   0.304  0.00  0.00    +0.012 C 
ATOM     30  C   UNL     1      -2.213   2.120  -1.062  0.00  0.00    +0.012 C 
ENDBRANCH  25  28
ENDBRANCH  20  23
ENDBRANCH  10  19
BRANCH   1  32
ATOM     31  C   UNL     1       1.568  -4.071   1.246  0.00  0.00    +0.014 C 
ATOM     32  C   UNL     1       2.210  -4.891   0.124  0.00  0.00    +0.032 C 
ATOM     33  C   UNL     1       1.721  -4.373  -1.230  0.00  0.00    +0.014 C 
ENDBRANCH   1  32
TORSDOF 5
