REMARK  Name = ZINC22622893
REMARK  12 active torsions:
REMARK  status: ('A' for Active; 'I' for Inactive)
REMARK    1  A    between atoms: C_1  and  N_2
REMARK    2  A    between atoms: N_2  and  C_3
REMARK    3  A    between atoms: N_2  and  C_4
REMARK    4  A    between atoms: C_4  and  C_6
REMARK    5  A    between atoms: C_4  and  C_30
REMARK    6  A    between atoms: C_6  and  N_7
REMARK    7  A    between atoms: C_8  and  C_10
REMARK    8  A    between atoms: C_10  and  C_12
REMARK    9  A    between atoms: C_10  and  N_19
REMARK   10  A    between atoms: C_12  and  C_13
REMARK   11  A    between atoms: N_19  and  S_20
REMARK   12  A    between atoms: S_20  and  C_23
REMARK                            x       y       z     vdW  Elec       q    Type
REMARK                         _______ _______ _______ _____ _____    ______ ____
ROOT
ATOM      1  C   UNL     1      -0.572   0.362   1.377  0.00  0.00    +0.166 C 
ENDROOT
BRANCH   1   3
ATOM      2  N   UNL     1       0.027  -1.876   0.509  0.00  0.00    -0.315 N 
ATOM      3  C   UNL     1      -0.526  -1.140   1.493  0.00  0.00    +0.232 C 
ATOM      4  O   UNL     1      -0.987  -1.686   2.473  0.00  0.00    -0.274 OA
ATOM      5  H   UNL     1       0.446  -1.380  -0.380  0.00  0.00    +0.149 HD
BRANCH   2   6
ATOM      6  C   UNL     1       0.072  -3.336   0.623  0.00  0.00    +0.093 C 
BRANCH   6   7
ATOM      7  C   UNL     1       0.637  -3.931  -0.669  0.00  0.00    -0.021 C 
BRANCH   7   8
ATOM      8  C   UNL     1       0.837  -5.414  -0.493  0.00  0.00    -0.059 A 
ATOM      9  C   UNL     1       1.532  -5.893   0.603  0.00  0.00    +0.002 A 
ATOM     10  C   UNL     1       1.712  -7.253   0.766  0.00  0.00    +0.000 A 
ATOM     11  C   UNL     1       1.205  -8.135  -0.170  0.00  0.00    +0.000 A 
ATOM     12  C   UNL     1       0.515  -7.656  -1.268  0.00  0.00    +0.000 A 
ATOM     13  C   UNL     1       0.331  -6.296  -1.429  0.00  0.00    +0.002 A 
ENDBRANCH   7   8
BRANCH   7  15
ATOM     14  C   UNL     1       2.799  -3.276   0.203  0.00  0.00    -0.096 C 
ATOM     15  N   UNL     1       1.925  -3.296  -0.978  0.00  0.00    +0.382 N 
ATOM     16  C   UNL     1       2.583  -3.964  -2.108  0.00  0.00    -0.096 C 
ATOM     17  H   UNL     1       1.727  -2.254  -1.270  0.00  0.00    -0.082 HD
ENDBRANCH   7  15
ENDBRANCH   6   7
ENDBRANCH   2   6
ENDBRANCH   1   3
BRANCH   1  18
ATOM     18  N   UNL     1      -1.217   0.925   2.565  0.00  0.00    -0.178 NA
ATOM     19  H   UNL     1      -2.293   1.153   2.551  0.00  0.00    +0.149 HD
BRANCH  18  20
ATOM     20  S   UNL     1      -0.295   1.448   3.838  0.00  0.00    +0.062 S 
ATOM     21  O   UNL     1      -1.188   1.673   4.920  0.00  0.00    -0.153 OA
ATOM     22  O   UNL     1       0.808   0.557   3.934  0.00  0.00    -0.153 OA
BRANCH  20  23
ATOM     23  C   UNL     1       0.364   3.020   3.393  0.00  0.00    +0.140 A 
ATOM     24  C   UNL     1      -0.196   4.175   3.906  0.00  0.00    +0.031 A 
ATOM     25  C   UNL     1       0.325   5.408   3.562  0.00  0.00    +0.002 A 
ATOM     26  C   UNL     1       1.399   5.488   2.695  0.00  0.00    +0.003 A 
ATOM     27  C   UNL     1       1.957   4.335   2.177  0.00  0.00    +0.040 A 
ATOM     28  C   UNL     1       1.440   3.099   2.526  0.00  0.00    +0.150 A 
ATOM     29  F   UNL     1       1.984   1.971   2.019  0.00  0.00    -0.203 F 
ENDBRANCH  20  23
ENDBRANCH  18  20
ENDBRANCH   1  18
BRANCH   1  30
ATOM     30  C   UNL     1      -1.369   0.753   0.131  0.00  0.00    +0.065 C 
BRANCH  30  31
ATOM     31  C   UNL     1      -1.500   2.253   0.068  0.00  0.00    -0.045 A 
ATOM     32  C   UNL     1      -2.606   2.873   0.619  0.00  0.00    +0.004 A 
ATOM     33  C   UNL     1      -2.725   4.249   0.566  0.00  0.00    +0.000 A 
ATOM     34  C   UNL     1      -1.742   5.004  -0.047  0.00  0.00    +0.000 A 
ATOM     35  C   UNL     1      -0.639   4.384  -0.602  0.00  0.00    +0.000 A 
ATOM     36  C   UNL     1      -0.518   3.008  -0.545  0.00  0.00    +0.004 A 
ENDBRANCH  30  31
ENDBRANCH   1  30
TORSDOF 10
