REMARK  Name = ZINC12888364
REMARK  9 active torsions:
REMARK  status: ('A' for Active; 'I' for Inactive)
REMARK    1  A    between atoms: C_1  and  C_2
REMARK    2  A    between atoms: C_7  and  N_69
REMARK    3  A    between atoms: C_16  and  O_25
REMARK    4  A    between atoms: C_18  and  O_23
REMARK    5  A    between atoms: O_23  and  C_24
REMARK    6  A    between atoms: O_25  and  C_26
REMARK    7  A    between atoms: C_27  and  C_28
REMARK    8  A    between atoms: C_27  and  N_69
REMARK    9  A    between atoms: C_28  and  C_29
REMARK                            x       y       z     vdW  Elec       q    Type
REMARK                         _______ _______ _______ _____ _____    ______ ____
ROOT
ATOM      1  C   UNL     1       5.180   4.703   1.429  0.00  0.00    +0.052 C 
ATOM      2  C   UNL     1       5.116   3.432   0.579  0.00  0.00    +0.174 C 
ATOM      3  C   UNL     1       6.229   2.467   1.007  0.00  0.00    +0.044 C 
ATOM      4  C   UNL     1       7.120   2.141  -0.199  0.00  0.00    +0.002 C 
ATOM      5  C   UNL     1       8.255   1.215   0.235  0.00  0.00    -0.016 C 
ATOM      6  C   UNL     1       8.151  -0.140  -0.472  0.00  0.00    -0.072 C 
ATOM      7  C   UNL     1       6.921  -0.883   0.056  0.00  0.00    -0.015 C 
ATOM      8  C   UNL     1       6.414  -1.881  -0.984  0.00  0.00    +0.002 C 
ATOM      9  C   UNL     1       5.451  -2.883  -0.327  0.00  0.00    +0.027 C 
ATOM     10  C   UNL     1       4.039  -2.352  -0.423  0.00  0.00    -0.026 C 
ATOM     11  C   UNL     1       3.755  -1.176   0.107  0.00  0.00    +0.005 C 
ATOM     12  C   UNL     1       2.425  -0.548   0.067  0.00  0.00    -0.004 A 
ATOM     13  C   UNL     1       1.257  -1.269  -0.081  0.00  0.00    +0.054 A 
ATOM     14  C   UNL     1       0.029  -0.616  -0.002  0.00  0.00    +0.124 A 
ATOM     15  C   UNL     1      -0.039   0.750   0.237  0.00  0.00    +0.092 A 
ATOM     16  C   UNL     1       1.129   1.492   0.343  0.00  0.00    +0.138 A 
ATOM     17  C   UNL     1       2.367   0.865   0.215  0.00  0.00    +0.108 A 
ATOM     18  C   UNL     1       3.629   1.612   0.143  0.00  0.00    +0.344 C 
ATOM     19  O   UNL     1       4.525   1.165  -0.558  0.00  0.00    -0.245 OA
ATOM     20  O   UNL     1       3.825   2.782   0.770  0.00  0.00    -0.458 OA
ENDROOT
BRANCH   6  21
ATOM     21  N   UNL     1       8.052   0.051  -1.928  0.00  0.00    +0.381 N 
ATOM     22  H   UNL     1       7.531   0.914  -2.123  0.00  0.00    -0.086 HD
ATOM     23  H   UNL     1       7.557  -0.748  -2.342  0.00  0.00    -0.086 HD
BRANCH  21  24
ATOM     24  C   UNL     1       9.398   0.151  -2.524  0.00  0.00    -0.078 C 
BRANCH  24  25
ATOM     25  C   UNL     1       9.268   0.218  -4.047  0.00  0.00    +0.016 C 
BRANCH  25  26
ATOM     26  C   UNL     1      10.639   0.321  -4.664  0.00  0.00    -0.049 A 
ATOM     27  C   UNL     1      11.203   1.562  -4.894  0.00  0.00    +0.003 A 
ATOM     28  C   UNL     1      12.462   1.657  -5.455  0.00  0.00    +0.000 A 
ATOM     29  C   UNL     1      13.155   0.510  -5.796  0.00  0.00    +0.000 A 
ATOM     30  C   UNL     1      12.589  -0.731  -5.571  0.00  0.00    +0.000 A 
ATOM     31  C   UNL     1      11.332  -0.826  -5.005  0.00  0.00    +0.003 A 
ENDBRANCH  25  26
ENDBRANCH  24  25
ENDBRANCH  21  24
ENDBRANCH   6  21
BRANCH  16  32
ATOM     32  O   UNL     1       1.060   2.828   0.572  0.00  0.00    -0.494 OA
ATOM     33  C   UNL     1      -0.245   3.399   0.691  0.00  0.00    +0.277 C 
ENDBRANCH  16  32
BRANCH  14  34
ATOM     34  O   UNL     1      -1.117  -1.330  -0.144  0.00  0.00    -0.495 OA
ATOM     35  C   UNL     1      -2.347  -0.611  -0.035  0.00  0.00    +0.277 C 
ENDBRANCH  14  34
TORSDOF 6
