REMARK  Name = ZINC32521607
REMARK  5 active torsions:
REMARK  status: ('A' for Active; 'I' for Inactive)
REMARK    1  A    between atoms: C_3  and  C_6
REMARK    2  A    between atoms: C_6  and  C_8
REMARK    3  A    between atoms: C_6  and  N_23
REMARK    4  A    between atoms: C_8  and  N_9
REMARK    5  A    between atoms: C_10  and  C_12
REMARK                            x       y       z     vdW  Elec       q    Type
REMARK                         _______ _______ _______ _____ _____    ______ ____
ROOT
ATOM      1  N   UNL     1       3.345  -3.867   3.841  0.00  0.00    -0.312 N 
ATOM      2  C   UNL     1       3.509  -2.558   3.563  0.00  0.00    +0.244 C 
ATOM      3  O   UNL     1       4.384  -1.923   4.119  0.00  0.00    -0.270 OA
ATOM      4  H   UNL     1       2.554  -4.441   3.337  0.00  0.00    +0.149 HD
ENDROOT
BRANCH   2   5
ATOM      5  C   UNL     1       2.625  -1.895   2.583  0.00  0.00    +0.042 A 
ATOM      6  C   UNL     1       2.793  -0.539   2.294  0.00  0.00    +0.062 A 
ATOM      7  C   UNL     1       1.964   0.079   1.375  0.00  0.00    +0.164 A 
ATOM      8  C   UNL     1       0.965  -0.652   0.738  0.00  0.00    +0.180 A 
ATOM      9  C   UNL     1       0.797  -2.002   1.027  0.00  0.00    +0.087 A 
ATOM     10  C   UNL     1       1.620  -2.623   1.943  0.00  0.00    +0.037 A 
ATOM     11 CL   UNL     1      -0.452  -2.908   0.232  0.00  0.00    -0.080 Cl
ATOM     12  O   UNL     1       0.144  -0.060  -0.171  0.00  0.00    -0.483 OA
ATOM     13  C   UNL     1       0.093   1.370  -0.158  0.00  0.00    +0.270 C 
ATOM     14  C   UNL     1       1.532   1.902  -0.089  0.00  0.00    +0.270 C 
ATOM     15  O   UNL     1       2.136   1.403   1.109  0.00  0.00    -0.485 OA
ENDBRANCH   2   5
BRANCH   1  16
ATOM     16  C   UNL     1       4.222  -4.524   4.813  0.00  0.00    +0.097 C 
BRANCH  16  17
ATOM     17  C   UNL     1       3.827  -5.997   4.942  0.00  0.00    +0.016 C 
BRANCH  17  18
ATOM     18  N   UNL     1       2.401  -6.093   5.280  0.00  0.00    +0.387 N 
ATOM     19  C   UNL     1       2.100  -5.350   6.511  0.00  0.00    -0.078 C 
ATOM     20  C   UNL     1       0.589  -5.351   6.753  0.00  0.00    -0.019 C 
ATOM     21  C   UNL     1       0.097  -6.795   6.873  0.00  0.00    -0.004 C 
ATOM     22  C   UNL     1       0.465  -7.560   5.599  0.00  0.00    -0.019 C 
ATOM     23  C   UNL     1       1.980  -7.496   5.390  0.00  0.00    -0.078 C 
ATOM     24  H   UNL     1       1.826  -5.634   4.463  0.00  0.00    -0.081 HD
ENDBRANCH  17  18
BRANCH  17  27
ATOM     25  C   UNL     1       6.131  -7.870   7.125  0.00  0.00    +0.041 A 
ATOM     26  C   UNL     1       5.645  -7.525   5.843  0.00  0.00    +0.043 A 
ATOM     27  C   UNL     1       4.646  -6.643   6.029  0.00  0.00    +0.093 A 
ATOM     28  O   UNL     1       4.506  -6.432   7.348  0.00  0.00    -0.469 OA
ATOM     29  C   UNL     1       5.401  -7.178   8.018  0.00  0.00    +0.195 A 
ENDBRANCH  17  27
ENDBRANCH  16  17
ENDBRANCH   1  16
TORSDOF 5
