REMARK  Name = ZINC09600059
REMARK  7 active torsions:
REMARK  status: ('A' for Active; 'I' for Inactive)
REMARK    1  A    between atoms: C_3  and  S_25
REMARK    2  A    between atoms: C_6  and  C_7
REMARK    3  A    between atoms: C_13  and  S_15
REMARK    4  A    between atoms: S_15  and  C_16
REMARK    5  A    between atoms: C_16  and  C_17
REMARK    6  A    between atoms: N_19  and  C_20
REMARK    7  A    between atoms: S_25  and  N_28
REMARK                            x       y       z     vdW  Elec       q    Type
REMARK                         _______ _______ _______ _____ _____    ______ ____
ROOT
ATOM      1  C   UNL     1      13.149   2.033  -1.013  0.00  0.00    +0.250 C 
ATOM      2  O   UNL     1      12.479   1.426  -1.826  0.00  0.00    -0.270 OA
ATOM      3  N   UNL     1      12.567   2.557   0.084  0.00  0.00    -0.259 N 
ATOM      4  C   UNL     1      11.199   2.402   0.286  0.00  0.00    +0.189 A 
ATOM      5  N   UNL     1      10.293   1.788  -0.458  0.00  0.00    -0.125 NA
ATOM      6  N   UNL     1       9.078   1.739  -0.126  0.00  0.00    -0.133 NA
ATOM      7  C   UNL     1       8.633   2.300   0.989  0.00  0.00    +0.160 A 
ATOM      8  S   UNL     1      10.161   2.982   1.625  0.00  0.00    -0.024 S 
ATOM      9  H   UNL     1      13.102   3.041   0.732  0.00  0.00    +0.157 HD
ENDROOT
BRANCH   1  15
ATOM     10  C   UNL     1      15.374   2.899  -0.300  0.00  0.00    +0.015 A 
ATOM     11  C   UNL     1      16.730   3.044  -0.504  0.00  0.00    +0.029 A 
ATOM     12  C   UNL     1      17.325   2.506  -1.632  0.00  0.00    +0.106 A 
ATOM     13  C   UNL     1      16.565   1.815  -2.559  0.00  0.00    +0.029 A 
ATOM     14  C   UNL     1      15.209   1.657  -2.364  0.00  0.00    +0.015 A 
ATOM     15  C   UNL     1      14.602   2.198  -1.229  0.00  0.00    +0.037 A 
BRANCH  12  16
ATOM     16  S   UNL     1      19.057   2.703  -1.889  0.00  0.00    +0.061 S 
ATOM     17  O   UNL     1      19.636   2.917  -0.609  0.00  0.00    -0.153 OA
ATOM     18  O   UNL     1      19.464   1.641  -2.741  0.00  0.00    -0.153 OA
BRANCH  16  19
ATOM     19  N   UNL     1      19.269   4.104  -2.745  0.00  0.00    -0.177 NA
ATOM     20  C   UNL     1      19.284   4.089  -4.214  0.00  0.00    +0.109 C 
ATOM     21  C   UNL     1      18.252   5.106  -4.723  0.00  0.00    +0.017 C 
ATOM     22  C   UNL     1      18.546   6.476  -4.106  0.00  0.00    +0.003 C 
ATOM     23  C   UNL     1      18.423   6.387  -2.583  0.00  0.00    +0.017 C 
ATOM     24  C   UNL     1      19.452   5.386  -2.049  0.00  0.00    +0.109 C 
ENDBRANCH  16  19
ENDBRANCH  12  16
ENDBRANCH   1  15
BRANCH   7  25
ATOM     25  S   UNL     1       7.002   2.362   1.653  0.00  0.00    -0.088 S 
BRANCH  25  26
ATOM     26  C   UNL     1       6.000   1.457   0.442  0.00  0.00    +0.172 C 
BRANCH  26  27
ATOM     27  C   UNL     1       4.563   1.435   0.895  0.00  0.00    +0.224 C 
ATOM     28  O   UNL     1       4.245   1.976   1.933  0.00  0.00    -0.275 OA
ATOM     29  N   UNL     1       3.630   0.814   0.146  0.00  0.00    -0.312 N 
ATOM     30  H   UNL     1       3.883   0.381  -0.684  0.00  0.00    +0.149 HD
BRANCH  29  31
ATOM     31  C   UNL     1       2.232   0.792   0.586  0.00  0.00    +0.073 C 
ATOM     32  C   UNL     1       1.453   1.995  -0.001  0.00  0.00    +0.022 C 
ATOM     33  C   UNL     1      -0.019   1.534   0.011  0.00  0.00    +0.002 C 
ATOM     34  C   UNL     1       0.002  -0.004   0.002  0.00  0.00    +0.002 C 
ATOM     35  C   UNL     1       1.486  -0.425  -0.014  0.00  0.00    +0.022 C 
ENDBRANCH  29  31
ENDBRANCH  26  27
ENDBRANCH  25  26
ENDBRANCH   7  25
TORSDOF 7
