REMARK  Name = ZINC05256062
REMARK  2 active torsions:
REMARK  status: ('A' for Active; 'I' for Inactive)
REMARK    1  A    between atoms: C_9  and  C_11
REMARK    2  A    between atoms: N_20  and  C_21
REMARK                            x       y       z     vdW  Elec       q    Type
REMARK                         _______ _______ _______ _____ _____    ______ ____
ROOT
ATOM      1  C   UNL     1      -0.659   2.135  -2.896  0.00  0.00    +0.019 A 
ATOM      2  C   UNL     1      -1.905   2.401  -2.290  0.00  0.00    +0.025 A 
ATOM      3  C   UNL     1      -1.820   2.002  -1.012  0.00  0.00    +0.044 A 
ATOM      4  N   UNL     1      -0.569   1.490  -0.797  0.00  0.00    -0.347 N 
ATOM      5  C   UNL     1       0.137   1.580  -1.957  0.00  0.00    +0.086 A 
ATOM      6  C   UNL     1      -0.101   0.942   0.480  0.00  0.00    +0.140 C 
ATOM      7  C   UNL     1      -1.005   1.446   1.609  0.00  0.00    +0.132 C 
ATOM      8  N   UNL     1      -2.413   1.298   1.205  0.00  0.00    -0.271 N 
ATOM      9  C   UNL     1      -2.890   2.086   0.053  0.00  0.00    +0.155 C 
ATOM     10  C   UNL     1      -3.242   0.469   1.869  0.00  0.00    +0.303 C 
ATOM     11  O   UNL     1      -2.856  -0.102   2.871  0.00  0.00    -0.253 OA
ATOM     12  N   UNL     1      -4.498   0.272   1.422  0.00  0.00    -0.296 N 
ATOM     13  H   UNL     1      -4.783   0.669   0.584  0.00  0.00    +0.151 HD
ENDROOT
BRANCH   9  14
ATOM     14  C   UNL     1      -3.097   3.522   0.462  0.00  0.00    -0.021 A 
ATOM     15  C   UNL     1      -4.360   4.080   0.407  0.00  0.00    +0.007 A 
ATOM     16  C   UNL     1      -4.552   5.395   0.787  0.00  0.00    +0.020 A 
ATOM     17  C   UNL     1      -3.477   6.156   1.212  0.00  0.00    +0.041 A 
ATOM     18  C   UNL     1      -2.212   5.598   1.261  0.00  0.00    +0.020 A 
ATOM     19  C   UNL     1      -2.023   4.281   0.886  0.00  0.00    +0.007 A 
ATOM     20 CL   UNL     1      -3.716   7.810   1.682  0.00  0.00    -0.084 Cl
ENDBRANCH   9  14
BRANCH  12  21
ATOM     21  C   UNL     1      -5.434  -0.542   2.203  0.00  0.00    +0.074 C 
ATOM     22  C   UNL     1      -5.236  -2.019   1.857  0.00  0.00    +0.022 C 
ATOM     23  C   UNL     1      -6.213  -2.869   2.672  0.00  0.00    +0.002 C 
ATOM     24  C   UNL     1      -7.648  -2.455   2.340  0.00  0.00    +0.000 C 
ATOM     25  C   UNL     1      -7.846  -0.978   2.686  0.00  0.00    +0.002 C 
ATOM     26  C   UNL     1      -6.869  -0.128   1.871  0.00  0.00    +0.022 C 
ENDBRANCH  12  21
TORSDOF 2
