REMARK  Name = ZINC38635536
REMARK  12 active torsions:
REMARK  status: ('A' for Active; 'I' for Inactive)
REMARK    1  A    between atoms: C_1  and  N_2
REMARK    2  A    between atoms: N_2  and  C_3
REMARK    3  A    between atoms: N_2  and  C_4
REMARK    4  A    between atoms: N_2  and  C_5
REMARK    5  A    between atoms: C_9  and  N_11
REMARK    6  A    between atoms: N_12  and  C_13
REMARK    7  A    between atoms: C_16  and  N_23
REMARK    8  A    between atoms: N_24  and  C_25
REMARK    9  A    between atoms: C_28  and  N_33
REMARK   10  A    between atoms: C_29  and  N_32
REMARK   11  A    between atoms: C_30  and  N_31
REMARK   12  A    between atoms: N_34  and  C_35
REMARK                            x       y       z     vdW  Elec       q    Type
REMARK                         _______ _______ _______ _____ _____    ______ ____
ROOT
ATOM      1  C   UNL     1       8.742  -4.167  -1.261  0.00  0.00    +0.094 A 
ATOM      2  C   UNL     1       8.788  -2.806  -0.972  0.00  0.00    +0.032 A 
ATOM      3  C   UNL     1       9.788  -1.997  -1.471  0.00  0.00    +0.032 A 
ATOM      4  C   UNL     1      10.796  -2.507  -2.285  0.00  0.00    +0.094 A 
ATOM      5  C   UNL     1      10.800  -3.930  -2.623  0.00  0.00    +0.011 A 
ATOM      6  C   UNL     1       9.777  -4.760  -2.107  0.00  0.00    +0.011 A 
ATOM      7  C   UNL     1       9.774  -6.125  -2.419  0.00  0.00    +0.011 A 
ATOM      8  C   UNL     1      10.758  -6.637  -3.212  0.00  0.00    +0.001 A 
ATOM      9  C   UNL     1      11.768  -5.822  -3.715  0.00  0.00    +0.001 A 
ATOM     10  C   UNL     1      11.793  -4.486  -3.437  0.00  0.00    +0.011 A 
ENDROOT
BRANCH   1  12
ATOM     11  N   UNL     1       6.834  -4.413  -0.010  0.00  0.00    -0.149 NA
ATOM     12  N   UNL     1       7.745  -4.941  -0.755  0.00  0.00    -0.149 NA
BRANCH  11  17
ATOM     13  C   UNL     1       3.836  -5.413   1.816  0.00  0.00    +0.017 A 
ATOM     14  C   UNL     1       3.801  -6.766   1.528  0.00  0.00    +0.022 A 
ATOM     15  C   UNL     1       4.776  -7.336   0.728  0.00  0.00    +0.004 A 
ATOM     16  C   UNL     1       5.791  -6.558   0.211  0.00  0.00    +0.029 A 
ATOM     17  C   UNL     1       5.833  -5.190   0.498  0.00  0.00    +0.088 A 
ATOM     18  C   UNL     1       4.840  -4.620   1.302  0.00  0.00    +0.051 A 
BRANCH  13  20
ATOM     19  C   UNL     1       2.131  -3.809   1.871  0.00  0.00    +0.109 C 
ATOM     20  N   UNL     1       2.846  -4.847   2.625  0.00  0.00    -0.390 NA
ATOM     21  C   UNL     1       3.469  -4.247   3.813  0.00  0.00    +0.109 C 
ATOM     22  C   UNL     1       1.900  -5.889   3.043  0.00  0.00    +0.109 C 
ENDBRANCH  13  20
ENDBRANCH  11  17
ENDBRANCH   1  12
BRANCH   4  23
ATOM     23  N   UNL     1      11.769  -1.688  -2.764  0.00  0.00    -0.149 NA
ATOM     24  N   UNL     1      11.761  -0.433  -2.464  0.00  0.00    -0.147 NA
BRANCH  24  25
ATOM     25  C   UNL     1      12.736   0.386  -2.943  0.00  0.00    +0.109 A 
ATOM     26  C   UNL     1      13.746  -0.131  -3.768  0.00  0.00    +0.033 A 
ATOM     27  C   UNL     1      14.724   0.683  -4.252  0.00  0.00    +0.033 A 
ATOM     28  C   UNL     1      14.734   2.048  -3.931  0.00  0.00    +0.109 A 
ATOM     29  C   UNL     1      13.732   2.583  -3.107  0.00  0.00    +0.075 A 
ATOM     30  C   UNL     1      12.727   1.752  -2.617  0.00  0.00    +0.075 A 
BRANCH  30  31
ATOM     31  N   UNL     1      11.722   2.272  -1.802  0.00  0.00    -0.355 N 
ATOM     32  H   UNL     1      11.026   1.690  -1.459  0.00  0.00    +0.142 HD
ATOM     33  H   UNL     1      11.719   3.216  -1.579  0.00  0.00    +0.142 HD
ENDBRANCH  30  31
BRANCH  29  34
ATOM     34  N   UNL     1      13.738   3.940  -2.786  0.00  0.00    -0.355 N 
ATOM     35  H   UNL     1      14.437   4.517  -3.132  0.00  0.00    +0.142 HD
ATOM     36  H   UNL     1      13.044   4.307  -2.216  0.00  0.00    +0.142 HD
ENDBRANCH  29  34
BRANCH  28  37
ATOM     37  N   UNL     1      15.716   2.856  -4.419  0.00  0.00    -0.147 NA
ATOM     38  N   UNL     1      16.311   2.552  -5.523  0.00  0.00    -0.149 NA
BRANCH  38  39
ATOM     39  C   UNL     1      15.677   1.774  -6.449  0.00  0.00    +0.086 A 
ATOM     40  C   UNL     1      16.406   1.172  -7.479  0.00  0.00    +0.029 A 
ATOM     41  C   UNL     1      15.759   0.388  -8.410  0.00  0.00    +0.002 A 
ATOM     42  C   UNL     1      14.391   0.196  -8.328  0.00  0.00    +0.000 A 
ATOM     43  C   UNL     1      13.662   0.788  -7.311  0.00  0.00    +0.002 A 
ATOM     44  C   UNL     1      14.296   1.571  -6.370  0.00  0.00    +0.029 A 
ENDBRANCH  38  39
ENDBRANCH  28  37
ENDBRANCH  24  25
ENDBRANCH   4  23
TORSDOF 9
