REMARK  Name = ZINC66930353
REMARK  6 active torsions:
REMARK  status: ('A' for Active; 'I' for Inactive)
REMARK    1  A    between atoms: C_1  and  C_2
REMARK    2  A    between atoms: C_4  and  C_14
REMARK    3  A    between atoms: C_7  and  N_8
REMARK    4  A    between atoms: N_16  and  C_17
REMARK    5  A    between atoms: C_17  and  C_18
REMARK    6  A    between atoms: C_18  and  O_28
REMARK                            x       y       z     vdW  Elec       q    Type
REMARK                         _______ _______ _______ _____ _____    ______ ____
ROOT
ATOM      1  C   UNL     1      -0.367  -2.856  -2.485  0.00  0.00    +0.244 C 
ATOM      2  O   UNL     1      -0.466  -2.254  -3.537  0.00  0.00    -0.270 OA
ATOM      3  N   UNL     1      -0.110  -4.179  -2.488  0.00  0.00    -0.308 N 
ATOM      4  H   UNL     1      -0.030  -4.659  -1.649  0.00  0.00    +0.149 HD
ENDROOT
BRANCH   1   8
ATOM      5  C   UNL     1      -1.231   1.379   0.001  0.00  0.00    +0.046 C 
ATOM      6  C   UNL     1      -0.943  -0.100  -0.005  0.00  0.00    -0.028 A 
ATOM      7  C   UNL     1      -0.794  -0.766  -1.201  0.00  0.00    +0.018 A 
ATOM      8  C   UNL     1      -0.527  -2.138  -1.206  0.00  0.00    +0.037 A 
ATOM      9  C   UNL     1      -0.414  -2.829   0.004  0.00  0.00    +0.015 A 
ATOM     10  C   UNL     1      -0.564  -2.157   1.196  0.00  0.00    +0.024 A 
ATOM     11  C   UNL     1      -0.824  -0.790   1.197  0.00  0.00    +0.041 A 
BRANCH  11  12
ATOM     12  N   UNL     1      -0.970  -0.111   2.406  0.00  0.00    -0.254 N 
ATOM     13  C   UNL     1      -2.235   0.071   3.134  0.00  0.00    +0.134 C 
ATOM     14  C   UNL     1      -1.830   0.880   4.382  0.00  0.00    +0.125 C 
ATOM     15  N   UNL     1      -0.380   1.067   4.225  0.00  0.00    -0.297 N 
ATOM     16  C   UNL     1       0.020   0.475   3.092  0.00  0.00    +0.307 C 
ATOM     17  O   UNL     1       1.177   0.472   2.718  0.00  0.00    -0.252 OA
ATOM     18  H   UNL     1       0.196   1.541   4.845  0.00  0.00    +0.150 HD
ENDBRANCH  11  12
ENDBRANCH   1   8
BRANCH   3  19
ATOM     19  C   UNL     1       0.050  -4.891  -3.758  0.00  0.00    +0.144 C 
BRANCH  19  20
ATOM     20  C   UNL     1       0.197  -6.390  -3.487  0.00  0.00    +0.107 C 
ATOM     21  C   UNL     1      -1.022  -6.884  -2.712  0.00  0.00    +0.041 C 
ATOM     22  C   UNL     1      -0.963  -8.415  -2.641  0.00  0.00    +0.008 C 
ATOM     23  C   UNL     1      -1.225  -8.972  -4.038  0.00  0.00    +0.035 C 
ATOM     24  C   UNL     1      -0.326  -8.309  -5.050  0.00  0.00    -0.041 A 
ATOM     25  C   UNL     1       0.324  -7.122  -4.798  0.00  0.00    -0.011 A 
ATOM     26  C   UNL     1       1.133  -6.560  -5.777  0.00  0.00    +0.007 A 
ATOM     27  C   UNL     1       1.294  -7.184  -6.997  0.00  0.00    +0.000 A 
ATOM     28  C   UNL     1       0.645  -8.378  -7.248  0.00  0.00    +0.000 A 
ATOM     29  C   UNL     1      -0.162  -8.936  -6.278  0.00  0.00    +0.004 A 
BRANCH  20  30
ATOM     30  O   UNL     1       1.373  -6.614  -2.707  0.00  0.00    -0.382 OA
ATOM     31  H   UNL     1       2.190  -6.317  -3.132  0.00  0.00    +0.211 HD
ENDBRANCH  20  30
ENDBRANCH  19  20
ENDBRANCH   3  19
TORSDOF 5
