REMARK  Name = ZINC08920423
REMARK  12 active torsions:
REMARK  status: ('A' for Active; 'I' for Inactive)
REMARK    1  A    between atoms: C_1  and  C_2
REMARK    2  A    between atoms: C_2  and  N_58
REMARK    3  A    between atoms: C_8  and  N_14
REMARK    4  A    between atoms: C_9  and  C_10
REMARK    5  A    between atoms: N_12  and  C_13
REMARK    6  A    between atoms: C_15  and  C_17
REMARK    7  A    between atoms: C_20  and  S_23
REMARK    8  A    between atoms: S_23  and  N_26
REMARK    9  A    between atoms: N_26  and  C_27
REMARK   10  A    between atoms: N_26  and  C_30
REMARK   11  A    between atoms: C_27  and  C_28
REMARK   12  A    between atoms: C_30  and  C_31
REMARK                            x       y       z     vdW  Elec       q    Type
REMARK                         _______ _______ _______ _____ _____    ______ ____
ROOT
ATOM      1  N   UNL     1      -0.011   0.966   0.007  0.00  0.00    -0.275 N 
ATOM      2  C   UNL     1      -1.187   1.624   0.017  0.00  0.00    +0.249 C 
ATOM      3  O   UNL     1      -1.204   2.839   0.023  0.00  0.00    -0.270 OA
ATOM      4  H   UNL     1       0.002  -0.004   0.002  0.00  0.00    +0.156 HD
ENDROOT
BRANCH   1  10
ATOM      5  C   UNL     1       5.827   3.025  -0.483  0.00  0.00    -0.074 C 
ATOM      6  C   UNL     1       5.041   1.787  -0.041  0.00  0.00    +0.018 C 
ATOM      7  C   UNL     1       3.560   2.147  -0.021  0.00  0.00    -0.027 A 
ATOM      8  C   UNL     1       3.177   3.444  -0.011  0.00  0.00    -0.021 A 
ATOM      9  S   UNL     1       1.409   3.393  -0.001  0.00  0.00    -0.079 S 
ATOM     10  C   UNL     1       1.179   1.675  -0.000  0.00  0.00    +0.085 A 
ATOM     11  C   UNL     1       2.478   1.181  -0.015  0.00  0.00    +0.068 A 
ATOM     12  C   UNL     1       4.081   4.637  -0.012  0.00  0.00    -0.035 C 
ATOM     13  N   UNL     1       5.441   4.176   0.359  0.00  0.00    +0.383 N 
ATOM     14  H   UNL     1       5.439   3.885   1.343  0.00  0.00    -0.081 HD
BRANCH  11  15
ATOM     15  C   UNL     1       2.744  -0.261  -0.025  0.00  0.00    +0.246 C 
ATOM     16  O   UNL     1       2.843  -0.854  -1.083  0.00  0.00    -0.270 OA
ATOM     17  N   UNL     1       2.878  -0.929   1.138  0.00  0.00    -0.314 N 
ATOM     18  C   UNL     1       3.144  -2.369   1.128  0.00  0.00    +0.128 C 
ATOM     19  H   UNL     1       2.798  -0.456   1.981  0.00  0.00    +0.149 HD
ENDBRANCH  11  15
BRANCH  13  21
ATOM     20  C   UNL     1       5.859   6.544   0.842  0.00  0.00    -0.017 C 
ATOM     21  C   UNL     1       6.413   5.277   0.186  0.00  0.00    -0.082 C 
ENDBRANCH  13  21
ENDBRANCH   1  10
BRANCH   2  22
ATOM     22  C   UNL     1      -2.457   0.868   0.018  0.00  0.00    +0.037 A 
ATOM     23  C   UNL     1      -2.442  -0.528   0.005  0.00  0.00    +0.015 A 
ATOM     24  C   UNL     1      -3.631  -1.228   0.013  0.00  0.00    +0.029 A 
ATOM     25  C   UNL     1      -4.836  -0.550   0.022  0.00  0.00    +0.106 A 
ATOM     26  C   UNL     1      -4.859   0.834   0.030  0.00  0.00    +0.029 A 
ATOM     27  C   UNL     1      -3.677   1.546   0.028  0.00  0.00    +0.015 A 
BRANCH  25  28
ATOM     28  S   UNL     1      -6.350  -1.451   0.024  0.00  0.00    +0.063 S 
ATOM     29  O   UNL     1      -6.059  -2.732   0.567  0.00  0.00    -0.153 OA
ATOM     30  O   UNL     1      -7.334  -0.592   0.585  0.00  0.00    -0.153 OA
BRANCH  28  31
ATOM     31  N   UNL     1      -6.778  -1.693  -1.557  0.00  0.00    -0.149 NA
BRANCH  31  32
ATOM     32  C   UNL     1      -6.319  -2.890  -2.265  0.00  0.00    +0.228 C 
BRANCH  32  33
ATOM     33  C   UNL     1      -7.355  -3.933  -2.192  0.00  0.00    +0.080 C 
ATOM     34  N   UNL     1      -8.155  -4.737  -2.135  0.00  0.00    -0.195 NA
ENDBRANCH  32  33
ENDBRANCH  31  32
BRANCH  31  35
ATOM     35  C   UNL     1      -7.617  -0.710  -2.247  0.00  0.00    +0.228 C 
BRANCH  35  36
ATOM     36  C   UNL     1      -6.761   0.230  -2.990  0.00  0.00    +0.080 C 
ATOM     37  N   UNL     1      -6.101   0.955  -3.562  0.00  0.00    -0.195 NA
ENDBRANCH  35  36
ENDBRANCH  31  35
ENDBRANCH  28  31
ENDBRANCH  25  28
ENDBRANCH   2  22
TORSDOF 10
