REMARK  Name = ZINC13499048
REMARK  12 active torsions:
REMARK  status: ('A' for Active; 'I' for Inactive)
REMARK    1  A    between atoms: C_1  and  C_2
REMARK    2  A    between atoms: C_4  and  C_38
REMARK    3  A    between atoms: C_7  and  C_14
REMARK    4  A    between atoms: C_14  and  N_76
REMARK    5  A    between atoms: C_15  and  N_76
REMARK    6  A    between atoms: C_21  and  C_23
REMARK    7  A    between atoms: C_21  and  C_35
REMARK    8  A    between atoms: C_21  and  N_76
REMARK    9  A    between atoms: N_27  and  C_28
REMARK   10  A    between atoms: C_28  and  C_29
REMARK   11  A    between atoms: C_35  and  C_36
REMARK   12  A    between atoms: C_35  and  C_37
REMARK                            x       y       z     vdW  Elec       q    Type
REMARK                         _______ _______ _______ _____ _____    ______ ____
ROOT
ATOM      1  N   UNL     1       3.995   0.187  -1.511  0.00  0.00    +0.391 N 
ATOM      2  H   UNL     1       4.021  -0.793  -1.206  0.00  0.00    -0.080 HD
ENDROOT
BRANCH   1   3
ATOM      3  C   UNL     1       3.123   0.297  -2.699  0.00  0.00    -0.067 C 
ATOM      4  C   UNL     1       3.334  -0.938  -3.577  0.00  0.00    -0.015 C 
ATOM      5  C   UNL     1       2.427  -0.851  -4.806  0.00  0.00    -0.002 C 
ATOM      6  C   UNL     1       2.769   0.408  -5.605  0.00  0.00    -0.000 C 
ATOM      7  C   UNL     1       2.558   1.643  -4.727  0.00  0.00    -0.002 C 
ATOM      8  C   UNL     1       3.466   1.556  -3.498  0.00  0.00    -0.015 C 
ENDBRANCH   1   3
BRANCH   1   9
ATOM      9  C   UNL     1       5.367   0.620  -1.849  0.00  0.00    -0.036 C 
BRANCH   9  16
ATOM     10  C   UNL     1       8.572  -4.010  -7.498  0.00  0.00    +0.044 C 
ATOM     11  C   UNL     1       7.962  -2.969  -6.595  0.00  0.00    -0.048 A 
ATOM     12  C   UNL     1       7.701  -1.699  -7.090  0.00  0.00    +0.007 A 
ATOM     13  C   UNL     1       7.149  -0.741  -6.288  0.00  0.00    -0.041 A 
ATOM     14  C   UNL     1       6.844  -1.042  -4.957  0.00  0.00    +0.002 A 
ATOM     15  C   UNL     1       6.252  -0.039  -4.070  0.00  0.00    +0.017 A 
ATOM     16  C   UNL     1       5.977  -0.389  -2.788  0.00  0.00    +0.001 A 
ATOM     17  C   UNL     1       6.266  -1.692  -2.330  0.00  0.00    +0.251 A 
ATOM     18  O   UNL     1       6.016  -1.984  -1.173  0.00  0.00    -0.268 OA
ATOM     19  N   UNL     1       6.805  -2.621  -3.138  0.00  0.00    -0.322 N 
ATOM     20  H   UNL     1       6.987  -3.509  -2.792  0.00  0.00    +0.169 HD
ATOM     21  C   UNL     1       7.107  -2.329  -4.452  0.00  0.00    +0.050 A 
ATOM     22  C   UNL     1       7.670  -3.289  -5.287  0.00  0.00    +0.029 A 
ATOM     23  C   UNL     1       6.869   0.635  -6.835  0.00  0.00    +0.044 C 
ENDBRANCH   9  16
ENDBRANCH   1   9
BRANCH   1  24
ATOM     24  C   UNL     1       3.460   1.018  -0.412  0.00  0.00    +0.006 C 
BRANCH  24  25
ATOM     25  C   UNL     1       2.038   0.606  -0.133  0.00  0.00    +0.138 A 
ATOM     26  N   UNL     1       1.634  -0.556   0.321  0.00  0.00    -0.115 NA
ATOM     27  N   UNL     1       0.350  -0.518   0.425  0.00  0.00    -0.023 NA
ATOM     28  N   UNL     1      -0.075   0.637   0.049  0.00  0.00    -0.044 NA
ATOM     29  N   UNL     1       0.935   1.359  -0.303  0.00  0.00    -0.228 N 
BRANCH  29  30
ATOM     30  C   UNL     1       0.890   2.738  -0.795  0.00  0.00    +0.178 C 
BRANCH  30  31
ATOM     31  C   UNL     1       0.804   3.700   0.392  0.00  0.00    +0.140 C 
ATOM     32  C   UNL     1       0.628   5.146  -0.118  0.00  0.00    +0.035 C 
ATOM     33  C   UNL     1       1.519   5.953   0.864  0.00  0.00    +0.031 C 
ATOM     34  C   UNL     1       2.660   4.938   1.128  0.00  0.00    +0.160 C 
ATOM     35  O   UNL     1       2.021   3.652   1.146  0.00  0.00    -0.375 OA
ENDBRANCH  30  31
ENDBRANCH  29  30
ENDBRANCH  24  25
BRANCH  24  36
ATOM     36  C   UNL     1       4.311   0.792   0.839  0.00  0.00    -0.024 C 
ATOM     37  C   UNL     1       3.731   1.599   2.003  0.00  0.00    +0.006 C 
ATOM     38  C   UNL     1       4.306  -0.695   1.198  0.00  0.00    +0.006 C 
ENDBRANCH  24  36
ENDBRANCH   1  24
TORSDOF 8
