REMARK  Name = ZINC57662658
REMARK  11 active torsions:
REMARK  status: ('A' for Active; 'I' for Inactive)
REMARK    1  A    between atoms: C_1  and  C_2
REMARK    2  A    between atoms: C_2  and  O_3
REMARK    3  A    between atoms: O_3  and  C_4
REMARK    4  A    between atoms: C_7  and  C_11
REMARK    5  A    between atoms: C_9  and  N_10
REMARK    6  A    between atoms: C_11  and  C_13
REMARK    7  A    between atoms: C_11  and  O_25
REMARK    8  A    between atoms: C_13  and  C_14
REMARK    9  A    between atoms: C_14  and  N_15
REMARK   10  A    between atoms: C_17  and  C_24
REMARK   11  A    between atoms: C_20  and  C_23
REMARK                            x       y       z     vdW  Elec       q    Type
REMARK                         _______ _______ _______ _____ _____    ______ ____
ROOT
ATOM      1  C   UNL     1       1.108  -6.046  -1.841  0.00  0.00    +0.143 C 
ENDROOT
BRANCH   1   5
ATOM      2  C   UNL     1       0.777  -1.811  -1.336  0.00  0.00    +0.141 A 
ATOM      3  C   UNL     1       0.244  -2.669  -0.388  0.00  0.00    +0.048 A 
ATOM      4  C   UNL     1       0.353  -4.037  -0.555  0.00  0.00    +0.010 A 
ATOM      5  C   UNL     1       0.993  -4.554  -1.666  0.00  0.00    -0.017 A 
ATOM      6  C   UNL     1       1.527  -3.704  -2.617  0.00  0.00    +0.032 A 
ATOM      7  C   UNL     1       1.417  -2.331  -2.459  0.00  0.00    +0.067 A 
BRANCH   7   8
ATOM      8  N   UNL     1       1.952  -1.469  -3.424  0.00  0.00    -0.355 N 
ATOM      9  H   UNL     1       1.877  -0.508  -3.310  0.00  0.00    +0.142 HD
ATOM     10  H   UNL     1       2.397  -1.832  -4.205  0.00  0.00    +0.142 HD
ENDBRANCH   7   8
BRANCH   2  11
ATOM     11  O   UNL     1       0.671  -0.465  -1.174  0.00  0.00    -0.490 OA
BRANCH  11  13
ATOM     12  C   UNL     1      -0.019   1.526   0.010  0.00  0.00    +0.048 C 
ATOM     13  C   UNL     1       0.002  -0.004   0.002  0.00  0.00    +0.226 C 
ENDBRANCH  11  13
ENDBRANCH   2  11
ENDBRANCH   1   5
BRANCH   1  14
ATOM     14  O   UNL     1      -0.113  -6.669  -1.438  0.00  0.00    -0.387 OA
ATOM     15  H   UNL     1      -0.350  -6.508  -0.514  0.00  0.00    +0.210 HD
ENDBRANCH   1  14
BRANCH   1  16
ATOM     16  C   UNL     1       2.258  -6.573  -0.981  0.00  0.00    +0.017 C 
BRANCH  16  17
ATOM     17  C   UNL     1       2.457  -8.065  -1.253  0.00  0.00    -0.076 C 
BRANCH  17  18
ATOM     18  N   UNL     1       3.561  -8.571  -0.426  0.00  0.00    +0.380 N 
ATOM     19  C   UNL     1       4.813  -7.924  -0.836  0.00  0.00    -0.076 C 
ATOM     20  C   UNL     1       5.952  -8.386   0.074  0.00  0.00    -0.031 C 
ATOM     21  C   UNL     1       6.102  -9.906  -0.037  0.00  0.00    +0.003 C 
ATOM     22  C   UNL     1       4.768 -10.568   0.322  0.00  0.00    -0.031 C 
ATOM     23  C   UNL     1       3.672 -10.025  -0.598  0.00  0.00    -0.076 C 
ATOM     24  C   UNL     1       4.884 -12.083   0.140  0.00  0.00    +0.005 C 
ATOM     25  C   UNL     1       5.636  -8.007   1.522  0.00  0.00    +0.005 C 
ATOM     26  H   UNL     1       3.378  -8.361   0.543  0.00  0.00    -0.082 HD
ENDBRANCH  17  18
ENDBRANCH  16  17
ENDBRANCH   1  16
TORSDOF 8
