REMARK  Name = ZINC19562225
REMARK  7 active torsions:
REMARK  status: ('A' for Active; 'I' for Inactive)
REMARK    1  A    between atoms: C_1  and  O_2
REMARK    2  A    between atoms: O_2  and  C_3
REMARK    3  A    between atoms: C_9  and  O_33
REMARK    4  A    between atoms: N_16  and  C_19
REMARK    5  A    between atoms: C_19  and  C_20
REMARK    6  A    between atoms: C_20  and  C_22
REMARK    7  A    between atoms: C_20  and  O_32
REMARK                            x       y       z     vdW  Elec       q    Type
REMARK                         _______ _______ _______ _____ _____    ______ ____
ROOT
ATOM      1  C   UNL     1       6.498  -7.456  -5.856  0.00  0.00    +0.121 A 
ATOM      2  C   UNL     1       5.244  -7.364  -5.271  0.00  0.00    +0.049 A 
ATOM      3  C   UNL     1       5.068  -6.597  -4.138  0.00  0.00    +0.049 A 
ATOM      4  C   UNL     1       6.143  -5.913  -3.580  0.00  0.00    +0.127 A 
ATOM      5  C   UNL     1       7.394  -6.003  -4.165  0.00  0.00    +0.026 A 
ATOM      6  C   UNL     1       7.569  -6.775  -5.302  0.00  0.00    +0.055 A 
ATOM      7  C   UNL     1       8.582  -5.272  -3.595  0.00  0.00    +0.152 C 
ATOM      8  C   UNL     1       8.294  -4.869  -2.147  0.00  0.00    +0.084 C 
ATOM      9  C   UNL     1       6.913  -4.207  -2.096  0.00  0.00    +0.110 C 
ATOM     10  O   UNL     1       5.928  -5.172  -2.460  0.00  0.00    -0.485 OA
ATOM     11  C   UNL     1       6.873  -3.030  -3.072  0.00  0.00    +0.029 C 
ATOM     12  C   UNL     1       5.514  -2.333  -2.970  0.00  0.00    -0.075 C 
ATOM     13  N   UNL     1       5.305  -1.863  -1.594  0.00  0.00    +0.382 N 
ATOM     14  C   UNL     1       5.289  -2.985  -0.646  0.00  0.00    -0.075 C 
ATOM     15  C   UNL     1       6.642  -3.700  -0.678  0.00  0.00    +0.029 C 
ATOM     16  H   UNL     1       6.152  -1.214  -1.330  0.00  0.00    -0.082 HD
ENDROOT
BRANCH   1  18
ATOM     17  C   UNL     1       5.526  -8.887  -7.488  0.00  0.00    +0.277 C 
ATOM     18  O   UNL     1       6.676  -8.213  -6.972  0.00  0.00    -0.495 OA
ENDBRANCH   1  18
BRANCH   7  19
ATOM     19  O   UNL     1       9.728  -6.125  -3.631  0.00  0.00    -0.387 OA
ATOM     20  H   UNL     1      10.696  -5.763  -3.255  0.00  0.00    +0.210 HD
ENDBRANCH   7  19
BRANCH  13  21
ATOM     21  C   UNL     1       4.074  -1.069  -1.490  0.00  0.00    -0.042 C 
BRANCH  21  22
ATOM     22  C   UNL     1       4.232   0.223  -2.294  0.00  0.00    +0.128 C 
BRANCH  22  23
ATOM     23  C   UNL     1       2.975   1.046  -2.175  0.00  0.00    -0.017 A 
ATOM     24  C   UNL     1       2.805   1.894  -1.096  0.00  0.00    +0.010 A 
ATOM     25  C   UNL     1       1.653   2.649  -0.983  0.00  0.00    +0.050 A 
ATOM     26  C   UNL     1       0.664   2.558  -1.952  0.00  0.00    +0.162 A 
ATOM     27  C   UNL     1       0.837   1.708  -3.037  0.00  0.00    +0.162 A 
ATOM     28  C   UNL     1       1.994   0.952  -3.144  0.00  0.00    +0.055 A 
ATOM     29  O   UNL     1      -0.117   1.610  -4.003  0.00  0.00    -0.485 OA
ATOM     30  C   UNL     1      -1.422   2.098  -3.672  0.00  0.00    +0.270 C 
ATOM     31  C   UNL     1      -1.265   3.469  -3.000  0.00  0.00    +0.270 C 
ATOM     32  O   UNL     1      -0.468   3.302  -1.822  0.00  0.00    -0.485 OA
ENDBRANCH  22  23
BRANCH  22  33
ATOM     33  O   UNL     1       5.339   0.969  -1.785  0.00  0.00    -0.389 OA
ATOM     34  H   UNL     1       5.609   1.934  -2.240  0.00  0.00    +0.210 HD
ENDBRANCH  22  33
ENDBRANCH  21  22
ENDBRANCH  13  21
TORSDOF 6
