REMARK  Name = ZINC22318852
REMARK  4 active torsions:
REMARK  status: ('A' for Active; 'I' for Inactive)
REMARK    1  A    between atoms: C_4  and  S_7
REMARK    2  A    between atoms: S_7  and  N_10
REMARK    3  A    between atoms: N_21  and  C_22
REMARK    4  A    between atoms: C_22  and  C_23
REMARK                            x       y       z     vdW  Elec       q    Type
REMARK                         _______ _______ _______ _____ _____    ______ ____
ROOT
ATOM      1  N   UNL     1       3.509   4.795  -4.026  0.00  0.00    -0.197 N 
ATOM      2  C   UNL     1       4.280   5.285  -2.983  0.00  0.00    +0.179 A 
ATOM      3  C   UNL     1       3.902   5.023  -1.644  0.00  0.00    +0.161 A 
ATOM      4  N   UNL     1       4.623   5.487  -0.645  0.00  0.00    -0.227 NA
ATOM      5  C   UNL     1       5.728   6.204  -0.897  0.00  0.00    +0.091 A 
ATOM      6  C   UNL     1       6.516   6.706   0.151  0.00  0.00    +0.030 A 
ATOM      7  C   UNL     1       7.631   7.436  -0.131  0.00  0.00    +0.002 A 
ATOM      8  C   UNL     1       8.003   7.694  -1.447  0.00  0.00    +0.002 A 
ATOM      9  C   UNL     1       7.262   7.223  -2.489  0.00  0.00    +0.030 A 
ATOM     10  C   UNL     1       6.106   6.466  -2.236  0.00  0.00    +0.091 A 
ATOM     11  N   UNL     1       5.360   5.992  -3.244  0.00  0.00    -0.226 NA
ATOM     12  N   UNL     1       2.763   4.277  -1.383  0.00  0.00    -0.322 N 
ATOM     13  H   UNL     1       2.606   4.204  -3.812  0.00  0.00    +0.175 HD
ATOM     14  H   UNL     1       2.155   3.891  -2.216  0.00  0.00    +0.148 HD
ENDROOT
BRANCH   1  15
ATOM     15  S   UNL     1       3.946   5.099  -5.594  0.00  0.00    +0.074 S 
ATOM     16  O   UNL     1       2.986   4.451  -6.416  0.00  0.00    -0.150 OA
ATOM     17  O   UNL     1       4.206   6.493  -5.680  0.00  0.00    -0.150 OA
BRANCH  15  21
ATOM     18  C   UNL     1       7.892   3.000  -6.313  0.00  0.00    +0.000 A 
ATOM     19  C   UNL     1       6.703   2.339  -6.557  0.00  0.00    +0.002 A 
ATOM     20  C   UNL     1       5.498   2.979  -6.337  0.00  0.00    +0.029 A 
ATOM     21  C   UNL     1       5.482   4.282  -5.874  0.00  0.00    +0.109 A 
ATOM     22  C   UNL     1       6.671   4.945  -5.635  0.00  0.00    +0.029 A 
ATOM     23  C   UNL     1       7.876   4.302  -5.849  0.00  0.00    +0.002 A 
ENDBRANCH  15  21
ENDBRANCH   1  15
BRANCH  12  24
ATOM     24  C   UNL     1       2.367   4.003   0.001  0.00  0.00    +0.140 C 
BRANCH  24  25
ATOM     25  C   UNL     1       1.105   3.180   0.009  0.00  0.00    -0.012 A 
ATOM     26  C   UNL     1       1.171   1.793   0.001  0.00  0.00    +0.010 A 
ATOM     27  C   UNL     1      -0.013   1.076   0.008  0.00  0.00    +0.047 A 
ATOM     28  C   UNL     1      -1.220   1.764   0.017  0.00  0.00    +0.139 A 
ATOM     29  N   UNL     1      -1.242   3.086   0.031  0.00  0.00    -0.237 NA
ATOM     30  C   UNL     1      -0.131   3.797   0.024  0.00  0.00    +0.118 A 
ATOM     31  N   UNL     1      -2.423   1.051   0.019  0.00  0.00    -0.290 N 
ATOM     32  C   UNL     1      -3.687   1.584   0.028  0.00  0.00    +0.114 A 
ATOM     33  C   UNL     1      -4.547   0.548   0.026  0.00  0.00    +0.130 A 
ATOM     34  N   UNL     1      -3.834  -0.589   0.016  0.00  0.00    -0.244 NA
ATOM     35  C   UNL     1      -2.561  -0.301   0.006  0.00  0.00    +0.205 A 
ENDBRANCH  24  25
ENDBRANCH  12  24
TORSDOF 4
