REMARK  Name = ZINC65988387
REMARK  5 active torsions:
REMARK  status: ('A' for Active; 'I' for Inactive)
REMARK    1  A    between atoms: C_1  and  C_2
REMARK    2  A    between atoms: C_2  and  C_24
REMARK    3  A    between atoms: C_4  and  N_10
REMARK    4  A    between atoms: C_6  and  C_8
REMARK    5  A    between atoms: C_6  and  C_9
REMARK                            x       y       z     vdW  Elec       q    Type
REMARK                         _______ _______ _______ _____ _____    ______ ____
ROOT
ATOM      1  N   UNL     1       2.619  -0.823  -2.622  0.00  0.00    -0.296 N 
ATOM      2  C   UNL     1       3.771  -0.334  -3.123  0.00  0.00    +0.303 C 
ATOM      3  O   UNL     1       4.325   0.598  -2.574  0.00  0.00    -0.253 OA
ATOM      4  N   UNL     1       4.307  -0.878  -4.234  0.00  0.00    -0.282 N 
ATOM      5  C   UNL     1       3.564  -1.893  -4.924  0.00  0.00    +0.113 C 
ATOM      6  C   UNL     1       3.759  -1.854  -6.409  0.00  0.00    +0.007 C 
ATOM      7  C   UNL     1       3.659  -0.450  -6.982  0.00  0.00    +0.008 C 
ATOM      8  C   UNL     1       4.966   0.317  -6.983  0.00  0.00    -0.009 C 
ATOM      9  C   UNL     1       6.093  -0.519  -7.595  0.00  0.00    +0.007 C 
ATOM     10  C   UNL     1       6.224  -1.789  -6.750  0.00  0.00    -0.009 C 
ATOM     11  C   UNL     1       4.949  -2.615  -6.923  0.00  0.00    +0.008 C 
ATOM     12  C   UNL     1       6.477  -1.467  -5.295  0.00  0.00    +0.026 C 
ATOM     13  C   UNL     1       5.606  -0.403  -4.677  0.00  0.00    +0.078 C 
ATOM     14  C   UNL     1       5.398   0.789  -5.603  0.00  0.00    +0.026 C 
ATOM     15  H   UNL     1       2.139  -1.518  -3.099  0.00  0.00    +0.151 HD
ENDROOT
BRANCH   1  19
ATOM     16  C   UNL     1      -0.023   1.518   0.012  0.00  0.00    -0.010 C 
ATOM     17  C   UNL     1       0.007  -0.014   0.009  0.00  0.00    -0.072 C 
ATOM     18  C   UNL     1       0.578  -0.516  -1.313  0.00  0.00    +0.009 C 
ATOM     19  C   UNL     1       2.091  -0.304  -1.354  0.00  0.00    +0.072 C 
ATOM     20  C   UNL     1       2.713  -1.081  -0.193  0.00  0.00    +0.009 C 
ATOM     21  C   UNL     1       2.157  -0.584   1.137  0.00  0.00    -0.072 C 
ATOM     22  N   UNL     1       0.707  -0.531   1.171  0.00  0.00    +0.386 N 
ATOM     23  C   UNL     1       2.618  -1.577   2.229  0.00  0.00    -0.010 C 
ATOM     24  C   UNL     1       2.773   0.777   1.479  0.00  0.00    -0.010 C 
ATOM     25  C   UNL     1      -1.461  -0.495   0.090  0.00  0.00    -0.010 C 
ATOM     26  H   UNL     1       0.424   0.020   1.987  0.00  0.00    -0.084 HD
ATOM     27  H   UNL     1       0.356  -1.476   1.362  0.00  0.00    -0.084 HD
ENDBRANCH   1  19
TORSDOF 1
