REMARK  Name = ZINC38697138
REMARK  5 active torsions:
REMARK  status: ('A' for Active; 'I' for Inactive)
REMARK    1  A    between atoms: C_9  and  C_12
REMARK    2  A    between atoms: N_14  and  N_15
REMARK    3  A    between atoms: C_16  and  C_18
REMARK    4  A    between atoms: C_18  and  C_19
REMARK    5  A    between atoms: C_19  and  C_20
REMARK                            x       y       z     vdW  Elec       q    Type
REMARK                         _______ _______ _______ _____ _____    ______ ____
ROOT
ATOM      1  N   UNL     1       6.355  -4.522  -0.051  0.00  0.00    -0.234 N 
ATOM      2  C   UNL     1       6.593  -5.804  -0.392  0.00  0.00    +0.229 C 
ATOM      3  O   UNL     1       5.752  -6.437  -0.994  0.00  0.00    -0.274 OA
ATOM      4  H   UNL     1       7.028  -4.015   0.430  0.00  0.00    +0.173 HD
ENDROOT
BRANCH   1   7
ATOM      5  C   UNL     1       4.898  -2.639  -0.050  0.00  0.00    +0.273 C 
ATOM      6  O   UNL     1       5.739  -2.006   0.552  0.00  0.00    -0.270 OA
ATOM      7  N   UNL     1       5.136  -3.921  -0.391  0.00  0.00    -0.231 N 
ATOM      8  H   UNL     1       4.464  -4.428  -0.873  0.00  0.00    +0.173 HD
BRANCH   5  17
ATOM      9  C   UNL     1      -0.017   1.378   0.010  0.00  0.00    +0.004 A 
ATOM     10  C   UNL     1       1.170   2.088   0.002  0.00  0.00    +0.004 A 
ATOM     11  C   UNL     1       2.378   1.418  -0.012  0.00  0.00    +0.049 A 
ATOM     12  C   UNL     1       2.404   0.031  -0.019  0.00  0.00    +0.163 A 
ATOM     13  C   UNL     1       1.212  -0.683  -0.014  0.00  0.00    +0.162 A 
ATOM     14  C   UNL     1       0.002  -0.004   0.002  0.00  0.00    +0.049 A 
ATOM     15  O   UNL     1       1.214  -2.043  -0.029  0.00  0.00    -0.484 OA
ATOM     16  C   UNL     1       2.441  -2.689   0.331  0.00  0.00    +0.283 C 
ATOM     17  C   UNL     1       3.587  -1.993  -0.416  0.00  0.00    +0.297 C 
ATOM     18  O   UNL     1       3.602  -0.615  -0.029  0.00  0.00    -0.472 OA
ENDBRANCH   5  17
ENDBRANCH   1   7
BRANCH   2  19
ATOM     19  C   UNL     1       7.905  -6.450  -0.026  0.00  0.00    +0.105 C 
BRANCH  19  20
ATOM     20  C   UNL     1       7.918  -7.896  -0.526  0.00  0.00    +0.083 C 
BRANCH  20  21
ATOM     21  C   UNL     1       9.229  -8.542  -0.160  0.00  0.00    +0.124 C 
ATOM     22  N   UNL     1      10.112  -7.828   0.495  0.00  0.00    -0.161 NA
ATOM     23  C   UNL     1      11.304  -8.310   0.862  0.00  0.00    +0.271 C 
ATOM     24  O   UNL     1      12.100  -7.619   1.475  0.00  0.00    -0.268 OA
ATOM     25  C   UNL     1      11.630  -9.725   0.497  0.00  0.00    +0.071 C 
ATOM     26  C   UNL     1      12.782 -10.389   0.706  0.00  0.00    -0.042 C 
ATOM     27  C   UNL     1      14.059  -9.736   1.226  0.00  0.00    +0.033 C 
ATOM     28  C   UNL     1      15.164 -10.051   0.208  0.00  0.00    +0.004 C 
ATOM     29  C   UNL     1      15.233 -11.555  -0.047  0.00  0.00    +0.002 C 
ATOM     30  C   UNL     1      13.933 -12.062  -0.678  0.00  0.00    +0.019 C 
ATOM     31  C   UNL     1      12.794 -11.866   0.326  0.00  0.00    +0.079 C 
ATOM     32  S   UNL     1      11.177 -12.058  -0.514  0.00  0.00    -0.097 S 
ATOM     33  C   UNL     1      10.549 -10.422  -0.230  0.00  0.00    +0.111 C 
ATOM     34  N   UNL     1       9.427  -9.803  -0.512  0.00  0.00    -0.227 NA
ENDBRANCH  20  21
ENDBRANCH  19  20
ENDBRANCH   2  19
TORSDOF 5
