REMARK  Name = ZINC49060837
REMARK  6 active torsions:
REMARK  status: ('A' for Active; 'I' for Inactive)
REMARK    1  A    between atoms: C_3  and  O_21
REMARK    2  A    between atoms: C_6  and  N_7
REMARK    3  A    between atoms: N_7  and  C_8
REMARK    4  A    between atoms: N_7  and  S_12
REMARK    5  A    between atoms: C_8  and  C_9
REMARK    6  A    between atoms: S_12  and  C_15
REMARK                            x       y       z     vdW  Elec       q    Type
REMARK                         _______ _______ _______ _____ _____    ______ ____
ROOT
ATOM      1  N   UNL     1      -1.200  -0.721   0.010  0.00  0.00    -0.192 N 
ENDROOT
BRANCH   1   7
ATOM      2  C   UNL     1       0.146   1.138   0.761  0.00  0.00    +0.028 A 
ATOM      3  C   UNL     1       1.335   1.841   0.741  0.00  0.00    +0.047 A 
ATOM      4  C   UNL     1       2.387   1.402  -0.050  0.00  0.00    +0.117 A 
ATOM      5  C   UNL     1       2.246   0.258  -0.821  0.00  0.00    +0.047 A 
ATOM      6  C   UNL     1       1.058  -0.446  -0.802  0.00  0.00    +0.028 A 
ATOM      7  C   UNL     1       0.004  -0.008  -0.010  0.00  0.00    +0.052 A 
BRANCH   4   8
ATOM      8  O   UNL     1       3.557   2.095  -0.070  0.00  0.00    -0.507 OA
ATOM      9  H   UNL     1       4.197   1.806   0.596  0.00  0.00    +0.292 HD
ENDBRANCH   4   8
ENDBRANCH   1   7
BRANCH   1  10
ATOM     10  S   UNL     1      -1.216  -2.305   0.492  0.00  0.00    +0.083 S 
ATOM     11  O   UNL     1      -2.287  -2.929  -0.202  0.00  0.00    -0.149 OA
ATOM     12  O   UNL     1       0.123  -2.770   0.404  0.00  0.00    -0.149 OA
BRANCH  10  13
ATOM     13  C   UNL     1      -1.644  -2.325   2.201  0.00  0.00    +0.160 A 
ATOM     14  C   UNL     1      -1.778  -3.385   3.036  0.00  0.00    +0.052 A 
ATOM     15  C   UNL     1      -2.125  -3.160   4.355  0.00  0.00    +0.025 A 
ATOM     16  C   UNL     1      -2.321  -1.886   4.775  0.00  0.00    +0.048 A 
ATOM     17  S   UNL     1      -2.006  -0.953   3.286  0.00  0.00    -0.076 S 
ATOM     18 BR   UNL     1      -1.495  -5.145   2.405  0.00  0.00    -0.048 Br
ENDBRANCH  10  13
ENDBRANCH   1  10
BRANCH   1  19
ATOM     19  C   UNL     1      -2.446  -0.065  -0.395  0.00  0.00    +0.256 C 
BRANCH  19  20
ATOM     20  C   UNL     1      -2.591  -0.145  -1.893  0.00  0.00    +0.375 C 
ATOM     21  O   UNL     1      -1.734  -0.698  -2.560  0.00  0.00    -0.245 OA
ATOM     22  O   UNL     1      -3.567   0.343  -2.438  0.00  0.00    -0.245 OA
ENDBRANCH  19  20
ENDBRANCH   1  19
TORSDOF 6
