REMARK  Name = ZINC19973080
REMARK  8 active torsions:
REMARK  status: ('A' for Active; 'I' for Inactive)
REMARK    1  A    between atoms: C_1  and  C_2
REMARK    2  A    between atoms: C_12  and  C_14
REMARK    3  A    between atoms: C_14  and  C_16
REMARK    4  A    between atoms: C_14  and  N_25
REMARK    5  A    between atoms: N_20  and  C_21
REMARK    6  A    between atoms: C_21  and  C_22
REMARK    7  A    between atoms: C_21  and  C_23
REMARK    8  A    between atoms: C_21  and  C_24
REMARK                            x       y       z     vdW  Elec       q    Type
REMARK                         _______ _______ _______ _____ _____    ______ ____
ROOT
ATOM      1  C   UNL     1       0.110  -2.860   5.069  0.00  0.00    +0.162 C 
ENDROOT
BRANCH   1  13
ATOM      2  C   UNL     1      -1.513   0.416  -0.393  0.00  0.00    +0.046 C 
ATOM      3  C   UNL     1      -0.278   0.468   0.469  0.00  0.00    -0.026 A 
ATOM      4  C   UNL     1       0.760   1.315   0.141  0.00  0.00    +0.005 A 
ATOM      5  C   UNL     1       1.900   1.376   0.929  0.00  0.00    +0.001 A 
ATOM      6  C   UNL     1       2.021   0.589   2.040  0.00  0.00    +0.010 A 
ATOM      7  C   UNL     1       0.984  -0.282   2.388  0.00  0.00    -0.001 A 
ATOM      8  C   UNL     1      -0.177  -0.343   1.594  0.00  0.00    +0.052 A 
ATOM      9  N   UNL     1      -1.197  -1.203   1.942  0.00  0.00    -0.322 N 
ATOM     10  H   UNL     1      -2.107  -1.255   1.326  0.00  0.00    +0.169 HD
ATOM     11  C   UNL     1      -1.099  -1.986   3.030  0.00  0.00    +0.254 A 
ATOM     12  O   UNL     1      -2.020  -2.735   3.308  0.00  0.00    -0.268 OA
ATOM     13  C   UNL     1       0.043  -1.964   3.859  0.00  0.00    +0.042 A 
ATOM     14  C   UNL     1       1.080  -1.139   3.571  0.00  0.00    +0.021 A 
ENDBRANCH   1  13
BRANCH   1  15
ATOM     15  N   UNL     1      -0.996  -2.535   5.981  0.00  0.00    -0.285 NA
ATOM     16  C   UNL     1      -0.991  -1.106   6.327  0.00  0.00    +0.113 C 
ATOM     17  C   UNL     1      -2.191  -0.801   7.227  0.00  0.00    +0.175 C 
ATOM     18  O   UNL     1      -2.137  -1.639   8.385  0.00  0.00    -0.377 OA
ATOM     19  C   UNL     1      -2.141  -3.037   8.085  0.00  0.00    +0.175 C 
ATOM     20  C   UNL     1      -0.940  -3.365   7.193  0.00  0.00    +0.113 C 
ENDBRANCH   1  15
BRANCH   1  21
ATOM     21  C   UNL     1       1.423  -2.649   5.778  0.00  0.00    +0.174 A 
ATOM     22  N   UNL     1       1.774  -1.599   6.480  0.00  0.00    -0.111 NA
ATOM     23  N   UNL     1       2.967  -1.798   6.923  0.00  0.00    -0.023 NA
ATOM     24  N   UNL     1       3.387  -2.947   6.522  0.00  0.00    -0.043 NA
ATOM     25  N   UNL     1       2.461  -3.505   5.818  0.00  0.00    -0.222 N 
BRANCH  25  26
ATOM     26  C   UNL     1       2.529  -4.821   5.178  0.00  0.00    +0.059 C 
ATOM     27  C   UNL     1       2.276  -4.672   3.677  0.00  0.00    +0.036 C 
ATOM     28  C   UNL     1       3.915  -5.428   5.404  0.00  0.00    +0.036 C 
ATOM     29  C   UNL     1       1.465  -5.739   5.786  0.00  0.00    +0.036 C 
ENDBRANCH  25  26
ENDBRANCH   1  21
TORSDOF 4
