REMARK  Name = ZINC03661510
REMARK  5 active torsions:
REMARK  status: ('A' for Active; 'I' for Inactive)
REMARK    1  A    between atoms: C_4  and  O_24
REMARK    2  A    between atoms: C_5  and  C_7
REMARK    3  A    between atoms: N_11  and  C_15
REMARK    4  A    between atoms: C_15  and  N_16
REMARK    5  A    between atoms: N_16  and  C_17
REMARK                            x       y       z     vdW  Elec       q    Type
REMARK                         _______ _______ _______ _____ _____    ______ ____
ROOT
ATOM      1  C   UNL     1      -1.600   2.643  -4.644  0.00  0.00    +0.032 C 
ATOM      2  C   UNL     1      -2.014   2.089  -3.476  0.00  0.00    +0.080 C 
ATOM      3  C   UNL     1      -1.928   2.619  -2.101  0.00  0.00    +0.262 C 
ATOM      4  O   UNL     1      -1.432   3.704  -1.864  0.00  0.00    -0.269 OA
ATOM      5  N   UNL     1      -2.414   1.853  -1.139  0.00  0.00    -0.212 N 
ATOM      6  C   UNL     1      -2.968   0.652  -1.406  0.00  0.00    +0.287 C 
ATOM      7  O   UNL     1      -3.453  -0.146  -0.627  0.00  0.00    -0.262 OA
ATOM      8  S   UNL     1      -2.817   0.519  -3.180  0.00  0.00    -0.026 S 
ENDROOT
BRANCH   1  13
ATOM      9  C   UNL     1       1.014   5.168  -3.732  0.00  0.00    +0.001 A 
ATOM     10  C   UNL     1       0.709   6.201  -4.604  0.00  0.00    +0.004 A 
ATOM     11  C   UNL     1      -0.344   6.081  -5.490  0.00  0.00    +0.046 A 
ATOM     12  C   UNL     1      -1.106   4.924  -5.512  0.00  0.00    +0.124 A 
ATOM     13  C   UNL     1      -0.801   3.874  -4.630  0.00  0.00    +0.018 A 
ATOM     14  C   UNL     1       0.265   4.012  -3.734  0.00  0.00    +0.011 A 
BRANCH  12  15
ATOM     15  O   UNL     1      -2.141   4.806  -6.382  0.00  0.00    -0.506 OA
ATOM     16  H   UNL     1      -2.986   5.119  -6.032  0.00  0.00    +0.292 HD
ENDBRANCH  12  15
ENDBRANCH   1  13
BRANCH   5  17
ATOM     17  C   UNL     1      -2.356   2.321   0.248  0.00  0.00    +0.222 C 
BRANCH  17  18
ATOM     18  N   UNL     1      -1.023   2.058   0.796  0.00  0.00    -0.328 N 
ATOM     19  H   UNL     1      -0.303   2.690   0.645  0.00  0.00    +0.148 HD
BRANCH  18  20
ATOM     20  C   UNL     1      -0.790   0.900   1.542  0.00  0.00    +0.029 A 
ATOM     21  C   UNL     1       0.503   0.563   1.920  0.00  0.00    +0.023 A 
ATOM     22  C   UNL     1       0.730  -0.582   2.657  0.00  0.00    +0.003 A 
ATOM     23  C   UNL     1      -0.329  -1.394   3.020  0.00  0.00    +0.015 A 
ATOM     24  C   UNL     1      -1.619  -1.062   2.645  0.00  0.00    +0.020 A 
ATOM     25  C   UNL     1      -1.853   0.085   1.911  0.00  0.00    +0.038 A 
ATOM     26 BR   UNL     1      -3.063  -2.176   3.143  0.00  0.00    -0.050 Br
ENDBRANCH  18  20
ENDBRANCH  17  18
ENDBRANCH   5  17
TORSDOF 5
