REMARK  Name = ZINC35646215
REMARK  9 active torsions:
REMARK  status: ('A' for Active; 'I' for Inactive)
REMARK    1  A    between atoms: C_1  and  C_2
REMARK    2  A    between atoms: C_2  and  O_3
REMARK    3  A    between atoms: O_3  and  C_4
REMARK    4  A    between atoms: C_4  and  C_6
REMARK    5  A    between atoms: C_7  and  C_23
REMARK    6  A    between atoms: N_8  and  C_22
REMARK    7  A    between atoms: C_12  and  C_14
REMARK    8  A    between atoms: C_23  and  N_24
REMARK    9  A    between atoms: C_30  and  C_32
REMARK                            x       y       z     vdW  Elec       q    Type
REMARK                         _______ _______ _______ _____ _____    ______ ____
ROOT
ATOM      1  C   UNL     1      -2.786  -2.306   0.181  0.00  0.00    +0.080 C 
ATOM      2  C   UNL     1      -2.869  -3.644   0.017  0.00  0.00    +0.041 C 
ATOM      3  N   UNL     1      -4.079  -4.267  -0.091  0.00  0.00    -0.260 N 
ATOM      4  C   UNL     1      -5.252  -3.623  -0.045  0.00  0.00    +0.307 C 
ATOM      5  O   UNL     1      -6.279  -4.265  -0.150  0.00  0.00    -0.252 OA
ATOM      6  N   UNL     1      -5.332  -2.287   0.115  0.00  0.00    -0.288 N 
ATOM      7  C   UNL     1      -4.080  -1.522   0.248  0.00  0.00    +0.145 C 
ATOM      8  C   UNL     1      -4.095  -5.721  -0.268  0.00  0.00    +0.139 C 
ATOM      9  H   UNL     1      -6.192  -1.841   0.146  0.00  0.00    +0.151 HD
ENDROOT
BRANCH   7  10
ATOM     10  C   UNL     1      -4.114  -0.792   1.566  0.00  0.00    -0.004 A 
ATOM     11  C   UNL     1      -4.714  -1.378   2.665  0.00  0.00    +0.008 A 
ATOM     12  C   UNL     1      -4.745  -0.709   3.874  0.00  0.00    +0.020 A 
ATOM     13  C   UNL     1      -4.176   0.548   3.985  0.00  0.00    +0.042 A 
ATOM     14  C   UNL     1      -3.576   1.134   2.886  0.00  0.00    +0.040 A 
ATOM     15  C   UNL     1      -3.541   0.462   1.677  0.00  0.00    +0.048 A 
ATOM     16 CL   UNL     1      -2.782   1.195   0.298  0.00  0.00    -0.083 Cl
ATOM     17 CL   UNL     1      -4.216   1.388   5.504  0.00  0.00    -0.083 Cl
ENDBRANCH   7  10
BRANCH   1  18
ATOM     18  C   UNL     1      -1.532  -1.660   0.294  0.00  0.00    +0.339 C 
ATOM     19  O   UNL     1      -1.100  -1.358   1.390  0.00  0.00    -0.245 OA
BRANCH  18  20
ATOM     20  O   UNL     1      -0.817  -1.377  -0.815  0.00  0.00    -0.462 OA
BRANCH  20  22
ATOM     21  C   UNL     1       1.100  -0.488  -1.987  0.00  0.00    +0.048 C 
ATOM     22  C   UNL     1       0.440  -0.724  -0.627  0.00  0.00    +0.229 C 
ENDBRANCH  20  22
ENDBRANCH  18  20
ENDBRANCH   1  18
BRANCH   2  23
ATOM     23  C   UNL     1      -1.605  -4.463  -0.049  0.00  0.00    +0.136 C 
BRANCH  23  24
ATOM     24  N   UNL     1      -1.545  -5.365   1.108  0.00  0.00    -0.294 NA
ATOM     25  C   UNL     1      -1.415  -4.608   2.360  0.00  0.00    +0.104 C 
ATOM     26  C   UNL     1      -1.538  -5.567   3.549  0.00  0.00    +0.123 C 
ATOM     27  N   UNL     1      -0.562  -6.654   3.375  0.00  0.00    -0.299 N 
ATOM     28  C   UNL     1      -0.541  -7.371   2.091  0.00  0.00    +0.123 C 
ATOM     29  C   UNL     1      -0.457  -6.341   0.960  0.00  0.00    +0.104 C 
ATOM     30  C   UNL     1       0.289  -6.985   4.366  0.00  0.00    +0.219 C 
ATOM     31  O   UNL     1       0.257  -6.383   5.419  0.00  0.00    -0.275 OA
BRANCH  30  32
ATOM     32  C   UNL     1       1.280  -8.102   4.166  0.00  0.00    +0.075 C 
ATOM     33  C   UNL     1       0.536  -9.435   3.941  0.00  0.00    +0.013 C 
ATOM     34  C   UNL     1       1.408 -10.485   4.673  0.00  0.00    +0.001 C 
ATOM     35  C   UNL     1       1.876  -9.720   5.935  0.00  0.00    +0.001 C 
ATOM     36  C   UNL     1       2.132  -8.284   5.435  0.00  0.00    +0.013 C 
ENDBRANCH  30  32
ENDBRANCH  23  24
ENDBRANCH   2  23
TORSDOF 7
