REMARK  Name = ZINC15414662
REMARK  12 active torsions:
REMARK  status: ('A' for Active; 'I' for Inactive)
REMARK    1  A    between atoms: C_1  and  C_2
REMARK    2  A    between atoms: C_2  and  C_3
REMARK    3  A    between atoms: C_3  and  C_4
REMARK    4  A    between atoms: C_4  and  N_5
REMARK    5  A    between atoms: C_6  and  N_31
REMARK    6  A    between atoms: C_7  and  N_14
REMARK    7  A    between atoms: N_14  and  C_15
REMARK    8  A    between atoms: C_20  and  C_22
REMARK    9  A    between atoms: C_22  and  N_61
REMARK   10  A    between atoms: C_23  and  N_61
REMARK   11  A    between atoms: C_24  and  C_25
REMARK   12  A    between atoms: C_24  and  N_61
REMARK                            x       y       z     vdW  Elec       q    Type
REMARK                         _______ _______ _______ _____ _____    ______ ____
ROOT
ATOM      1  N   UNL     1       6.942  -2.297  -3.216  0.00  0.00    -0.263 N 
ATOM      2  C   UNL     1       5.714  -1.787  -2.985  0.00  0.00    +0.204 C 
ATOM      3  O   UNL     1       5.400  -1.449  -1.863  0.00  0.00    -0.277 OA
ENDROOT
BRANCH   1   6
ATOM      4  N   UNL     1       7.866  -1.954  -6.756  0.00  0.00    -0.280 N 
ATOM      5  C   UNL     1       7.477  -1.617  -5.481  0.00  0.00    +0.127 A 
ATOM      6  C   UNL     1       7.339  -2.611  -4.534  0.00  0.00    +0.140 A 
ATOM      7  C   UNL     1       7.605  -3.943  -4.902  0.00  0.00    +0.277 A 
ATOM      8  O   UNL     1       7.495  -4.840  -4.084  0.00  0.00    -0.266 OA
ATOM      9  N   UNL     1       7.978  -4.220  -6.167  0.00  0.00    -0.273 N 
ATOM     10  H   UNL     1       8.160  -5.167  -6.433  0.00  0.00    +0.173 HD
ATOM     11  C   UNL     1       8.108  -3.238  -7.077  0.00  0.00    +0.331 A 
ATOM     12  O   UNL     1       8.450  -3.516  -8.210  0.00  0.00    -0.246 OA
BRANCH   5  13
ATOM     13  N   UNL     1       7.230  -0.305  -5.153  0.00  0.00    -0.343 N 
ATOM     14  H   UNL     1       7.036  -0.063  -4.234  0.00  0.00    +0.144 HD
ATOM     15  H   UNL     1       7.251   0.379  -5.841  0.00  0.00    +0.144 HD
ENDBRANCH   5  13
BRANCH   4  16
ATOM     16  C   UNL     1       8.016  -0.909  -7.772  0.00  0.00    +0.128 C 
BRANCH  16  17
ATOM     17  C   UNL     1       9.451  -0.379  -7.749  0.00  0.00    +0.021 C 
BRANCH  17  19
ATOM     18  C   UNL     1      11.043   1.244  -8.786  0.00  0.00    +0.004 C 
ATOM     19  C   UNL     1       9.608   0.713  -8.809  0.00  0.00    -0.002 C 
ENDBRANCH  17  19
ENDBRANCH  16  17
ENDBRANCH   4  16
ENDBRANCH   1   6
BRANCH   1  20
ATOM     20  C   UNL     1       7.864  -2.524  -2.100  0.00  0.00    +0.082 C 
ATOM     21  C   UNL     1       7.252  -3.534  -1.107  0.00  0.00    +0.023 C 
ATOM     22  C   UNL     1       7.692  -3.011   0.284  0.00  0.00    +0.002 C 
ATOM     23  C   UNL     1       7.592  -1.474   0.120  0.00  0.00    +0.002 C 
ATOM     24  C   UNL     1       8.080  -1.215  -1.321  0.00  0.00    +0.023 C 
ENDBRANCH   1  20
BRANCH   2  25
ATOM     25  C   UNL     1       4.734  -1.639  -4.119  0.00  0.00    +0.019 C 
BRANCH  25  27
ATOM     26  C   UNL     1       2.834  -2.233  -2.741  0.00  0.00    -0.095 C 
ATOM     27  N   UNL     1       3.441  -1.174  -3.574  0.00  0.00    +0.387 N 
ATOM     28  H   UNL     1       3.604  -0.344  -2.992  0.00  0.00    -0.081 HD
BRANCH  27  29
ATOM     29  C   UNL     1       2.527  -0.814  -4.679  0.00  0.00    -0.035 C 
BRANCH  29  30
ATOM     30  C   UNL     1       1.309  -0.140  -4.102  0.00  0.00    -0.025 A 
ATOM     31  C   UNL     1       1.100   1.174  -3.849  0.00  0.00    +0.011 A 
ATOM     32  C   UNL     1      -0.110   1.570  -3.311  0.00  0.00    +0.028 A 
ATOM     33  C   UNL     1      -1.053   0.630  -3.052  0.00  0.00    +0.078 A 
ATOM     34  S   UNL     1      -0.234  -0.868  -3.574  0.00  0.00    -0.084 S 
ATOM     35 CL   UNL     1      -2.641   0.830  -2.379  0.00  0.00    -0.076 Cl
ENDBRANCH  29  30
ENDBRANCH  27  29
ENDBRANCH  25  27
ENDBRANCH   2  25
TORSDOF 10
