REMARK  Name = ZINC33297444
REMARK  8 active torsions:
REMARK  status: ('A' for Active; 'I' for Inactive)
REMARK    1  A    between atoms: C_1  and  C_2
REMARK    2  A    between atoms: C_5  and  S_9
REMARK    3  A    between atoms: C_6  and  C_8
REMARK    4  A    between atoms: S_9  and  N_12
REMARK    5  A    between atoms: C_19  and  C_23
REMARK    6  A    between atoms: C_23  and  O_24
REMARK    7  A    between atoms: O_24  and  C_25
REMARK    8  A    between atoms: C_25  and  C_26
REMARK                            x       y       z     vdW  Elec       q    Type
REMARK                         _______ _______ _______ _____ _____    ______ ____
ROOT
ATOM      1  N   UNL     1      -1.746   9.595  -2.675  0.00  0.00    -0.169 NA
ATOM      2  C   UNL     1      -1.723  10.738  -1.760  0.00  0.00    +0.151 C 
ATOM      3  C   UNL     1      -1.536  10.287  -0.319  0.00  0.00    +0.246 C 
ATOM      4  O   UNL     1      -0.284   9.607  -0.172  0.00  0.00    -0.490 OA
ATOM      5  C   UNL     1      -0.309   8.267  -0.383  0.00  0.00    +0.125 A 
ATOM      6  C   UNL     1      -0.177   7.387   0.682  0.00  0.00    +0.046 A 
ATOM      7  C   UNL     1      -0.292   6.027   0.467  0.00  0.00    +0.009 A 
ATOM      8  C   UNL     1      -0.526   5.539  -0.806  0.00  0.00    -0.021 A 
ATOM      9  C   UNL     1      -0.642   6.414  -1.872  0.00  0.00    +0.014 A 
ATOM     10  C   UNL     1      -0.518   7.769  -1.660  0.00  0.00    +0.010 A 
ATOM     11  C   UNL     1      -0.564   8.740  -2.822  0.00  0.00    +0.148 C 
ENDROOT
BRANCH   1  12
ATOM     12  S   UNL     1      -3.114   9.268  -3.550  0.00  0.00    +0.061 S 
ATOM     13  O   UNL     1      -3.144   7.860  -3.744  0.00  0.00    -0.153 OA
ATOM     14  O   UNL     1      -4.176   9.973  -2.922  0.00  0.00    -0.153 OA
BRANCH  12  19
ATOM     15  C   UNL     1      -2.382  11.745  -9.002  0.00  0.00    +0.044 C 
ATOM     16  C   UNL     1      -2.565  11.127  -7.640  0.00  0.00    -0.050 A 
ATOM     17  C   UNL     1      -2.702   9.756  -7.516  0.00  0.00    +0.005 A 
ATOM     18  C   UNL     1      -2.865   9.188  -6.267  0.00  0.00    +0.029 A 
ATOM     19  C   UNL     1      -2.901   9.991  -5.142  0.00  0.00    +0.108 A 
ATOM     20  C   UNL     1      -2.763  11.361  -5.266  0.00  0.00    -0.024 A 
ATOM     21  C   UNL     1      -2.595  11.929  -6.515  0.00  0.00    +0.008 A 
ATOM     22  C   UNL     1      -2.796  12.236  -4.039  0.00  0.00    +0.046 C 
ENDBRANCH  12  19
ENDBRANCH   1  12
BRANCH   8  23
ATOM     23  C   UNL     1      -0.661   4.055  -1.030  0.00  0.00    +0.195 C 
BRANCH  23  24
ATOM     24  O   UNL     1       0.624   3.498  -1.318  0.00  0.00    -0.371 OA
BRANCH  24  25
ATOM     25  C   UNL     1       0.607   2.088  -1.548  0.00  0.00    +0.198 C 
BRANCH  25  26
ATOM     26  C   UNL     1       2.007   1.611  -1.840  0.00  0.00    +0.013 A 
ATOM     27  C   UNL     1       3.055   2.511  -1.857  0.00  0.00    +0.009 A 
ATOM     28  C   UNL     1       4.338   2.075  -2.130  0.00  0.00    +0.001 A 
ATOM     29  C   UNL     1       4.574   0.737  -2.387  0.00  0.00    +0.003 A 
ATOM     30  C   UNL     1       3.527  -0.166  -2.371  0.00  0.00    +0.039 A 
ATOM     31  C   UNL     1       2.242   0.271  -2.097  0.00  0.00    +0.129 A 
ATOM     32  F   UNL     1       1.218  -0.610  -2.082  0.00  0.00    -0.205 F 
ENDBRANCH  25  26
ENDBRANCH  24  25
ENDBRANCH  23  24
ENDBRANCH   8  23
TORSDOF 6
