REMARK  Name = ZINC35747414
REMARK  13 active torsions:
REMARK  status: ('A' for Active; 'I' for Inactive)
REMARK    1  A    between atoms: C_1  and  O_2
REMARK    2  A    between atoms: O_2  and  C_3
REMARK    3  A    between atoms: C_6  and  O_9
REMARK    4  A    between atoms: O_9  and  C_10
REMARK    5  A    between atoms: C_10  and  C_11
REMARK    6  A    between atoms: C_11  and  C_13
REMARK    7  A    between atoms: C_11  and  O_37
REMARK    8  A    between atoms: C_13  and  N_14
REMARK    9  A    between atoms: N_14  and  C_15
REMARK   10  A    between atoms: N_14  and  C_18
REMARK   11  A    between atoms: C_15  and  C_16
REMARK   12  A    between atoms: C_18  and  C_19
REMARK   13  A    between atoms: C_25  and  C_30
REMARK                            x       y       z     vdW  Elec       q    Type
REMARK                         _______ _______ _______ _____ _____    ______ ____
ROOT
ATOM      1  N   UNL     1       4.252  -6.208  -6.723  0.00  0.00    +0.388 N 
ATOM      2  H   UNL     1       5.091  -5.648  -6.699  0.00  0.00    -0.081 HD
ENDROOT
BRANCH   1   3
ATOM      3  C   UNL     1       3.476  -5.982  -5.497  0.00  0.00    -0.043 C 
BRANCH   3   4
ATOM      4  C   UNL     1       4.365  -6.235  -4.277  0.00  0.00    +0.135 C 
BRANCH   4   5
ATOM      5  O   UNL     1       5.478  -5.338  -4.304  0.00  0.00    -0.390 OA
ATOM      6  H   UNL     1       5.235  -4.407  -4.212  0.00  0.00    +0.210 HD
ENDBRANCH   4   5
BRANCH   4   7
ATOM      7  C   UNL     1       3.556  -6.005  -2.999  0.00  0.00    +0.258 C 
BRANCH   7   8
ATOM      8  O   UNL     1       4.350  -6.353  -1.863  0.00  0.00    -0.489 OA
BRANCH   8  12
ATOM      9  C   UNL     1       2.606  -5.904   1.851  0.00  0.00    +0.120 A 
ATOM     10  C   UNL     1       3.906  -6.375   1.748  0.00  0.00    +0.049 A 
ATOM     11  C   UNL     1       4.490  -6.526   0.505  0.00  0.00    +0.049 A 
ATOM     12  C   UNL     1       3.775  -6.206  -0.640  0.00  0.00    +0.121 A 
ATOM     13  C   UNL     1       2.475  -5.735  -0.537  0.00  0.00    +0.049 A 
ATOM     14  C   UNL     1       1.890  -5.589   0.706  0.00  0.00    +0.049 A 
BRANCH   9  16
ATOM     15  C   UNL     1       2.828  -6.099   4.211  0.00  0.00    +0.277 C 
ATOM     16  O   UNL     1       2.032  -5.756   3.075  0.00  0.00    -0.495 OA
ENDBRANCH   9  16
ENDBRANCH   8  12
ENDBRANCH   7   8
ENDBRANCH   4   7
ENDBRANCH   3   4
ENDBRANCH   1   3
BRANCH   1  17
ATOM     17  C   UNL     1       3.444  -5.829  -7.890  0.00  0.00    -0.051 C 
BRANCH  17  18
ATOM     18  C   UNL     1       3.197  -4.342  -7.869  0.00  0.00    -0.053 C 
ATOM     19  C   UNL     1       3.540  -3.607  -8.898  0.00  0.00    +0.002 C 
ENDBRANCH  17  18
ENDBRANCH   1  17
BRANCH   1  20
ATOM     20  C   UNL     1       4.613  -7.629  -6.819  0.00  0.00    -0.003 C 
BRANCH  20  21
ATOM     21  C   UNL     1       5.511  -7.839  -8.011  0.00  0.00    +0.094 A 
ATOM     22  N   UNL     1       5.964  -9.088  -8.293  0.00  0.00    -0.312 N 
ATOM     23  H   UNL     1       5.703  -9.828  -7.722  0.00  0.00    +0.170 HD
ATOM     24  C   UNL     1       6.766  -9.319  -9.348  0.00  0.00    +0.260 A 
ATOM     25  O   UNL     1       7.164 -10.446  -9.588  0.00  0.00    -0.267 OA
ATOM     26  C   UNL     1       7.146  -8.221 -10.185  0.00  0.00    +0.080 A 
ATOM     27  C   UNL     1       7.994  -8.215 -11.371  0.00  0.00    +0.006 A 
ATOM     28  C   UNL     1       8.214  -7.040 -12.008  0.00  0.00    +0.056 A 
ATOM     29  S   UNL     1       7.286  -5.865 -11.040  0.00  0.00    -0.076 S 
ATOM     30  C   UNL     1       6.630  -6.968  -9.815  0.00  0.00    +0.116 A 
ATOM     31  N   UNL     1       5.836  -6.819  -8.758  0.00  0.00    -0.229 NA
BRANCH  27  32
ATOM     32  C   UNL     1       8.604  -9.471 -11.870  0.00  0.00    +0.019 A 
ATOM     33  C   UNL     1       9.988  -9.632 -11.852  0.00  0.00    +0.011 A 
ATOM     34  C   UNL     1      10.550 -10.803 -12.317  0.00  0.00    +0.001 A 
ATOM     35  C   UNL     1       9.744 -11.817 -12.801  0.00  0.00    +0.003 A 
ATOM     36  C   UNL     1       8.369 -11.665 -12.822  0.00  0.00    +0.039 A 
ATOM     37  C   UNL     1       7.793 -10.499 -12.354  0.00  0.00    +0.131 A 
ATOM     38  F   UNL     1       6.450 -10.353 -12.369  0.00  0.00    -0.205 F 
ENDBRANCH  27  32
ENDBRANCH  20  21
ENDBRANCH   1  20
TORSDOF 12
