REMARK  Name = ZINC20566549
REMARK  8 active torsions:
REMARK  status: ('A' for Active; 'I' for Inactive)
REMARK    1  A    between atoms: C_1  and  O_2
REMARK    2  A    between atoms: O_2  and  C_3
REMARK    3  A    between atoms: C_3  and  C_4
REMARK    4  A    between atoms: C_4  and  C_5
REMARK    5  A    between atoms: C_5  and  N_6
REMARK    6  A    between atoms: C_11  and  C_29
REMARK    7  A    between atoms: C_29  and  C_30
REMARK    8  A    between atoms: C_33  and  O_36
REMARK                            x       y       z     vdW  Elec       q    Type
REMARK                         _______ _______ _______ _____ _____    ______ ____
ROOT
ATOM      1  N   UNL     1       1.272  -4.165  -2.169  0.00  0.00    -0.241 N 
ATOM      2  C   UNL     1       2.231  -4.876  -1.565  0.00  0.00    +0.227 C 
ATOM      3  O   UNL     1       3.220  -4.413  -1.039  0.00  0.00    -0.275 OA
ATOM      4  C   UNL     1       1.887  -6.346  -1.639  0.00  0.00    +0.107 C 
ATOM      5  C   UNL     1       2.904  -7.062  -2.552  0.00  0.00    +0.072 C 
ATOM      6  N   UNL     1       2.354  -6.916  -3.925  0.00  0.00    -0.295 NA
ATOM      7  C   UNL     1       0.898  -7.073  -3.750  0.00  0.00    +0.136 C 
ATOM      8  C   UNL     1       0.544  -6.362  -2.420  0.00  0.00    +0.122 C 
ATOM      9  C   UNL     1       0.273  -4.897  -2.676  0.00  0.00    +0.228 C 
ATOM     10  O   UNL     1      -0.696  -4.454  -3.255  0.00  0.00    -0.275 OA
ATOM     11  C   UNL     1       0.138  -6.492  -4.908  0.00  0.00    +0.006 A 
ATOM     12  C   UNL     1       0.066  -5.230  -5.456  0.00  0.00    +0.046 A 
ATOM     13  C   UNL     1      -0.746  -4.997  -6.554  0.00  0.00    +0.124 A 
ATOM     14  C   UNL     1      -1.483  -6.036  -7.098  0.00  0.00    +0.040 A 
ATOM     15  C   UNL     1      -1.413  -7.300  -6.550  0.00  0.00    +0.026 A 
ATOM     16  C   UNL     1      -0.599  -7.542  -5.446  0.00  0.00    +0.039 A 
ATOM     17  N   UNL     1      -0.365  -8.716  -4.724  0.00  0.00    -0.283 N 
ATOM     18  C   UNL     1       0.503  -8.524  -3.712  0.00  0.00    +0.243 C 
ATOM     19  O   UNL     1       0.891  -9.360  -2.923  0.00  0.00    -0.273 OA
ATOM     20  F   UNL     1      -0.819  -3.761  -7.093  0.00  0.00    -0.205 F 
ATOM     21  H   UNL     1       2.576  -6.009  -4.309  0.00  0.00    +0.124 HD
ATOM     22  H   UNL     1      -0.779  -9.569  -4.928  0.00  0.00    +0.155 HD
ENDROOT
BRANCH   1  23
ATOM     23  C   UNL     1       1.309  -2.703  -2.261  0.00  0.00    +0.118 C 
BRANCH  23  24
ATOM     24  C   UNL     1       0.613  -2.097  -1.041  0.00  0.00    +0.047 C 
BRANCH  24  25
ATOM     25  C   UNL     1       0.652  -0.570  -1.138  0.00  0.00    +0.161 C 
BRANCH  25  27
ATOM     26  C   UNL     1      -0.017   1.425   0.010  0.00  0.00    +0.193 C 
ATOM     27  O   UNL     1       0.002  -0.004   0.002  0.00  0.00    -0.383 OA
ENDBRANCH  25  27
ENDBRANCH  24  25
ENDBRANCH  23  24
ENDBRANCH   1  23
BRANCH   5  28
ATOM     28  C   UNL     1       4.276  -6.391  -2.451  0.00  0.00    +0.054 C 
BRANCH  28  29
ATOM     29  C   UNL     1       5.280  -7.178  -3.253  0.00  0.00    -0.046 A 
ATOM     30  C   UNL     1       5.989  -8.204  -2.655  0.00  0.00    +0.007 A 
ATOM     31  C   UNL     1       6.911  -8.926  -3.388  0.00  0.00    +0.045 A 
ATOM     32  C   UNL     1       7.125  -8.622  -4.724  0.00  0.00    +0.117 A 
ATOM     33  C   UNL     1       6.412  -7.593  -5.322  0.00  0.00    +0.045 A 
ATOM     34  C   UNL     1       5.487  -6.877  -4.586  0.00  0.00    +0.007 A 
BRANCH  32  35
ATOM     35  O   UNL     1       8.031  -9.331  -5.447  0.00  0.00    -0.507 OA
ATOM     36  H   UNL     1       7.662 -10.109  -5.888  0.00  0.00    +0.292 HD
ENDBRANCH  32  35
ENDBRANCH  28  29
ENDBRANCH   5  28
TORSDOF 7
