REMARK  Name = ZINC26720841
REMARK  4 active torsions:
REMARK  status: ('A' for Active; 'I' for Inactive)
REMARK    1  A    between atoms: C_16  and  C_19
REMARK    2  A    between atoms: C_24  and  O_25
REMARK    3  A    between atoms: O_25  and  C_26
REMARK    4  A    between atoms: C_26  and  C_27
REMARK                            x       y       z     vdW  Elec       q    Type
REMARK                         _______ _______ _______ _____ _____    ______ ____
ROOT
ATOM      1  C   UNL     1      -9.105  -2.285   1.724  0.00  0.00    +0.001 A 
ATOM      2  C   UNL     1      -9.226  -2.069   0.361  0.00  0.00    +0.002 A 
ATOM      3  C   UNL     1      -8.114  -1.792  -0.412  0.00  0.00    +0.024 A 
ATOM      4  C   UNL     1      -6.863  -1.730   0.179  0.00  0.00    +0.040 A 
ATOM      5  C   UNL     1      -6.746  -1.932   1.567  0.00  0.00    +0.038 A 
ATOM      6  C   UNL     1      -7.867  -2.217   2.333  0.00  0.00    +0.013 A 
ATOM      7  C   UNL     1      -5.391  -1.820   2.144  0.00  0.00    +0.145 A 
ATOM      8  N   UNL     1      -4.958  -2.141   3.332  0.00  0.00    -0.227 NA
ATOM      9  C   UNL     1      -3.634  -1.908   3.401  0.00  0.00    +0.090 A 
ATOM     10  C   UNL     1      -2.709  -2.093   4.437  0.00  0.00    +0.030 A 
ATOM     11  C   UNL     1      -1.405  -1.754   4.177  0.00  0.00    +0.002 A 
ATOM     12  C   UNL     1      -1.004  -1.250   2.951  0.00  0.00    +0.002 A 
ATOM     13  C   UNL     1      -1.896  -1.055   1.909  0.00  0.00    +0.028 A 
ATOM     14  C   UNL     1      -3.225  -1.388   2.145  0.00  0.00    +0.071 A 
ATOM     15  N   UNL     1      -4.346  -1.327   1.378  0.00  0.00    -0.300 N 
ATOM     16  C   UNL     1      -4.540  -0.847   0.007  0.00  0.00    +0.209 C 
ATOM     17  N   UNL     1      -5.715  -1.506  -0.577  0.00  0.00    -0.319 N 
ATOM     18  H   UNL     1      -5.698  -1.832  -1.627  0.00  0.00    +0.148 HD
ENDROOT
BRANCH  16  19
ATOM     19  C   UNL     1      -4.755   0.645   0.022  0.00  0.00    +0.035 A 
ATOM     20  C   UNL     1      -6.038   1.158   0.036  0.00  0.00    +0.011 A 
ATOM     21  C   UNL     1      -6.236   2.526   0.045  0.00  0.00    +0.001 A 
ATOM     22  C   UNL     1      -5.152   3.384   0.045  0.00  0.00    +0.004 A 
ATOM     23  C   UNL     1      -3.868   2.876   0.036  0.00  0.00    +0.046 A 
ATOM     24  C   UNL     1      -3.666   1.503   0.028  0.00  0.00    +0.128 A 
BRANCH  24  25
ATOM     25  O   UNL     1      -2.403   1.001   0.019  0.00  0.00    -0.482 OA
BRANCH  25  26
ATOM     26  C   UNL     1      -1.330   1.944   0.019  0.00  0.00    +0.324 C 
BRANCH  26  27
ATOM     27  C   UNL     1      -0.014   1.209   0.009  0.00  0.00    +0.253 C 
ATOM     28  O   UNL     1       0.002  -0.004   0.002  0.00  0.00    -0.272 OA
ATOM     29  N   UNL     1       1.143   1.898   0.001  0.00  0.00    -0.299 N 
ATOM     30  C   UNL     1       1.268   3.363   0.002  0.00  0.00    +0.108 C 
ATOM     31  C   UNL     1       2.775   3.695  -0.033  0.00  0.00    +0.020 C 
ATOM     32  C   UNL     1       3.399   2.406  -0.630  0.00  0.00    +0.020 C 
ATOM     33  C   UNL     1       2.495   1.309  -0.015  0.00  0.00    +0.108 C 
ENDBRANCH  26  27
ENDBRANCH  25  26
ENDBRANCH  24  25
ENDBRANCH  16  19
TORSDOF 4
