REMARK  Name = ZINC39663743
REMARK  10 active torsions:
REMARK  status: ('A' for Active; 'I' for Inactive)
REMARK    1  A    between atoms: C_1  and  N_2
REMARK    2  A    between atoms: N_2  and  C_3
REMARK    3  A    between atoms: N_2  and  C_4
REMARK    4  A    between atoms: C_4  and  C_6
REMARK    5  A    between atoms: C_4  and  C_30
REMARK    6  A    between atoms: C_6  and  N_7
REMARK    7  A    between atoms: C_8  and  C_10
REMARK    8  A    between atoms: C_21  and  C_23
REMARK    9  A    between atoms: C_33  and  O_36
REMARK   10  A    between atoms: O_36  and  C_37
REMARK                            x       y       z     vdW  Elec       q    Type
REMARK                         _______ _______ _______ _____ _____    ______ ____
ROOT
ATOM      1  C   UNL     1      -2.956   3.491  -2.603  0.00  0.00    +0.100 C 
ATOM      2  C   UNL     1      -3.269   4.486  -1.463  0.00  0.00    +0.121 C 
ATOM      3  N   UNL     1      -3.954   5.618  -2.131  0.00  0.00    -0.296 N 
ATOM      4  C   UNL     1      -4.828   4.975  -3.141  0.00  0.00    +0.115 C 
ATOM      5  C   UNL     1      -3.982   3.815  -3.702  0.00  0.00    -0.004 C 
ATOM      6  C   UNL     1      -4.866   2.602  -3.974  0.00  0.00    -0.010 C 
ATOM      7  C   UNL     1      -5.838   2.929  -5.111  0.00  0.00    -0.082 C 
ATOM      8  N   UNL     1      -5.082   3.288  -6.316  0.00  0.00    +0.379 N 
ATOM      9  C   UNL     1      -4.306   4.511  -6.074  0.00  0.00    -0.082 C 
ATOM     10  C   UNL     1      -3.269   4.251  -4.979  0.00  0.00    -0.010 C 
ATOM     11  C   UNL     1      -3.813   6.934  -1.877  0.00  0.00    +0.247 C 
ATOM     12  O   UNL     1      -2.974   7.314  -1.084  0.00  0.00    -0.270 OA
ATOM     13  H   UNL     1      -4.455   2.535  -6.555  0.00  0.00    -0.086 HD
ATOM     14  H   UNL     1      -5.723   3.444  -7.080  0.00  0.00    -0.086 HD
ENDROOT
BRANCH  11  15
ATOM     15  C   UNL     1      -4.679   7.915  -2.564  0.00  0.00    +0.037 A 
ATOM     16  C   UNL     1      -5.902   7.513  -3.105  0.00  0.00    +0.014 A 
ATOM     17  C   UNL     1      -6.706   8.434  -3.744  0.00  0.00    +0.021 A 
ATOM     18  C   UNL     1      -6.302   9.754  -3.850  0.00  0.00    +0.041 A 
ATOM     19  C   UNL     1      -5.091  10.159  -3.315  0.00  0.00    +0.021 A 
ATOM     20  C   UNL     1      -4.281   9.249  -2.668  0.00  0.00    +0.014 A 
ATOM     21 CL   UNL     1      -7.319  10.907  -4.657  0.00  0.00    -0.084 Cl
ENDBRANCH  11  15
BRANCH   1  23
ATOM     22  N   UNL     1      -2.405   1.081  -2.679  0.00  0.00    -0.316 N 
ATOM     23  C   UNL     1      -3.130   2.073  -2.124  0.00  0.00    +0.218 C 
ATOM     24  O   UNL     1      -3.922   1.824  -1.240  0.00  0.00    -0.275 OA
ATOM     25  H   UNL     1      -1.772   1.280  -3.386  0.00  0.00    +0.149 HD
BRANCH  22  26
ATOM     26  C   UNL     1      -2.574  -0.298  -2.214  0.00  0.00    +0.093 C 
BRANCH  26  27
ATOM     27  C   UNL     1      -1.718  -1.233  -3.070  0.00  0.00    -0.021 C 
BRANCH  27  28
ATOM     28  C   UNL     1      -0.267  -0.847  -2.939  0.00  0.00    -0.059 A 
ATOM     29  C   UNL     1       0.459  -1.256  -1.836  0.00  0.00    +0.005 A 
ATOM     30  C   UNL     1       1.789  -0.904  -1.714  0.00  0.00    +0.046 A 
ATOM     31  C   UNL     1       2.396  -0.138  -2.699  0.00  0.00    +0.120 A 
ATOM     32  C   UNL     1       1.665   0.271  -3.805  0.00  0.00    +0.046 A 
ATOM     33  C   UNL     1       0.337  -0.089  -3.925  0.00  0.00    +0.005 A 
BRANCH  31  34
ATOM     34  O   UNL     1       3.704   0.210  -2.581  0.00  0.00    -0.495 OA
ATOM     35  C   UNL     1       4.263   0.999  -3.633  0.00  0.00    +0.277 C 
ENDBRANCH  31  34
ENDBRANCH  27  28
BRANCH  27  37
ATOM     36  C   UNL     1      -3.318  -2.985  -2.716  0.00  0.00    -0.096 C 
ATOM     37  N   UNL     1      -1.899  -2.618  -2.614  0.00  0.00    +0.382 N 
ATOM     38  C   UNL     1      -1.099  -3.519  -3.453  0.00  0.00    -0.096 C 
ATOM     39  H   UNL     1      -1.600  -2.697  -1.653  0.00  0.00    -0.082 HD
ENDBRANCH  27  37
ENDBRANCH  26  27
ENDBRANCH  22  26
ENDBRANCH   1  23
TORSDOF 7
