REMARK  Name = ZINC12010035
REMARK  7 active torsions:
REMARK  status: ('A' for Active; 'I' for Inactive)
REMARK    1  A    between atoms: C_1  and  O_2
REMARK    2  A    between atoms: O_2  and  C_3
REMARK    3  A    between atoms: C_6  and  C_9
REMARK    4  A    between atoms: C_9  and  C_10
REMARK    5  A    between atoms: C_10  and  C_11
REMARK    6  A    between atoms: N_13  and  C_14
REMARK    7  A    between atoms: C_16  and  C_30
REMARK                            x       y       z     vdW  Elec       q    Type
REMARK                         _______ _______ _______ _____ _____    ______ ____
ROOT
ATOM      1  C   UNL     1       1.248  -6.258  -2.651  0.00  0.00    +0.132 A 
ATOM      2  C   UNL     1       1.267  -7.064  -1.560  0.00  0.00    +0.077 A 
ATOM      3  C   UNL     1       1.278  -8.401  -2.011  0.00  0.00    +0.130 A 
ATOM      4  N   UNL     1       1.265  -8.391  -3.329  0.00  0.00    -0.159 NA
ATOM      5  N   UNL     1       1.241  -7.058  -3.759  0.00  0.00    -0.184 N 
ATOM      6  C   UNL     1       1.217  -6.629  -5.071  0.00  0.00    +0.234 A 
ATOM      7  N   UNL     1       1.218  -7.547  -6.074  0.00  0.00    -0.291 N 
ATOM      8  H   UNL     1       1.236  -8.494  -5.867  0.00  0.00    +0.172 HD
ATOM      9  C   UNL     1       1.190  -7.133  -7.358  0.00  0.00    +0.256 A 
ATOM     10  O   UNL     1       1.186  -7.942  -8.271  0.00  0.00    -0.267 OA
ATOM     11  C   UNL     1       1.170  -5.750  -7.625  0.00  0.00    +0.038 A 
ATOM     12  C   UNL     1       1.175  -4.875  -6.579  0.00  0.00    +0.053 A 
ATOM     13  N   UNL     1       1.198  -5.340  -5.328  0.00  0.00    -0.217 NA
ATOM     14  C   UNL     1       1.151  -3.453  -7.096  0.00  0.00    +0.056 C 
ATOM     15  C   UNL     1       1.567  -3.556  -8.580  0.00  0.00    +0.011 C 
ATOM     16  C   UNL     1       1.143  -4.998  -8.936  0.00  0.00    +0.043 C 
ENDROOT
BRANCH   3  17
ATOM     17  C   UNL     1       1.300  -9.604  -1.154  0.00  0.00    +0.155 A 
ATOM     18  C   UNL     1       1.304 -10.893  -1.587  0.00  0.00    +0.051 A 
ATOM     19  C   UNL     1       1.330 -11.708  -0.438  0.00  0.00    +0.042 A 
ATOM     20  C   UNL     1       1.331 -10.885   0.629  0.00  0.00    +0.196 A 
ATOM     21  O   UNL     1       1.313  -9.615   0.193  0.00  0.00    -0.461 OA
ENDBRANCH   3  17
BRANCH   1  24
ATOM     22  C   UNL     1       1.235  -4.197  -1.474  0.00  0.00    +0.219 C 
ATOM     23  O   UNL     1       1.252  -4.808  -0.426  0.00  0.00    -0.275 OA
ATOM     24  N   UNL     1       1.231  -4.865  -2.644  0.00  0.00    -0.270 N 
ATOM     25  H   UNL     1       1.218  -4.375  -3.482  0.00  0.00    +0.156 HD
BRANCH  22  26
ATOM     26  C   UNL     1       1.217  -2.690  -1.466  0.00  0.00    +0.101 C 
BRANCH  26  27
ATOM     27  C   UNL     1       1.226  -2.187  -0.021  0.00  0.00    +0.044 C 
BRANCH  27  31
ATOM     28  C   UNL     1       1.176   2.086   0.002  0.00  0.00    +0.120 A 
ATOM     29  C   UNL     1      -0.017   1.377   0.010  0.00  0.00    +0.046 A 
ATOM     30  C   UNL     1       0.002  -0.004   0.002  0.00  0.00    +0.007 A 
ATOM     31  C   UNL     1       1.208  -0.680  -0.013  0.00  0.00    -0.047 A 
ATOM     32  C   UNL     1       2.398   0.024  -0.021  0.00  0.00    +0.007 A 
ATOM     33  C   UNL     1       2.385   1.405  -0.013  0.00  0.00    +0.046 A 
BRANCH  28  35
ATOM     34  C   UNL     1       2.426   4.108   0.001  0.00  0.00    +0.277 C 
ATOM     35  O   UNL     1       1.160   3.445   0.009  0.00  0.00    -0.495 OA
ENDBRANCH  28  35
ENDBRANCH  27  31
ENDBRANCH  26  27
ENDBRANCH  22  26
ENDBRANCH   1  24
TORSDOF 6
