REMARK  Name = ZINC66241732
REMARK  7 active torsions:
REMARK  status: ('A' for Active; 'I' for Inactive)
REMARK    1  A    between atoms: C_3  and  N_22
REMARK    2  A    between atoms: C_6  and  C_7
REMARK    3  A    between atoms: N_9  and  C_10
REMARK    4  A    between atoms: C_10  and  C_11
REMARK    5  A    between atoms: C_11  and  C_15
REMARK    6  A    between atoms: C_23  and  N_29
REMARK    7  A    between atoms: C_24  and  C_27
REMARK                            x       y       z     vdW  Elec       q    Type
REMARK                         _______ _______ _______ _____ _____    ______ ____
ROOT
ATOM      1  C   UNL     1       1.632   0.315   1.023  0.00  0.00    +0.015 A 
ATOM      2  C   UNL     1       2.970   0.594   1.193  0.00  0.00    +0.028 A 
ATOM      3  C   UNL     1       3.908  -0.432   1.142  0.00  0.00    +0.067 A 
ATOM      4  C   UNL     1       3.498  -1.742   0.920  0.00  0.00    +0.028 A 
ATOM      5  C   UNL     1       2.162  -2.029   0.749  0.00  0.00    +0.015 A 
ATOM      6  C   UNL     1       1.217  -1.001   0.800  0.00  0.00    +0.037 A 
ENDROOT
BRANCH   3   7
ATOM      7  N   UNL     1       5.264  -0.145   1.315  0.00  0.00    -0.218 N 
ATOM      8  C   UNL     1       6.175  -0.945   1.929  0.00  0.00    +0.137 A 
ATOM      9  C   UNL     1       7.397  -0.281   1.881  0.00  0.00    +0.111 A 
ATOM     10  C   UNL     1       7.177   0.946   1.214  0.00  0.00    +0.155 A 
ATOM     11  N   UNL     1       5.919   1.012   0.880  0.00  0.00    -0.172 NA
BRANCH   8  12
ATOM     12  N   UNL     1       5.933  -2.182   2.494  0.00  0.00    -0.342 N 
ATOM     13  H   UNL     1       5.039  -2.558   2.475  0.00  0.00    +0.144 HD
ATOM     14  H   UNL     1       6.657  -2.675   2.911  0.00  0.00    +0.144 HD
ENDBRANCH   8  12
BRANCH   9  15
ATOM     15  C   UNL     1       8.643  -0.752   2.409  0.00  0.00    +0.104 C 
ATOM     16  N   UNL     1       9.630  -1.125   2.828  0.00  0.00    -0.191 NA
ENDBRANCH   9  15
ENDBRANCH   3   7
BRANCH   6  17
ATOM     17  C   UNL     1      -0.216  -1.304   0.618  0.00  0.00    +0.244 C 
ATOM     18  O   UNL     1      -1.037  -0.408   0.662  0.00  0.00    -0.270 OA
ATOM     19  N   UNL     1      -0.615  -2.573   0.403  0.00  0.00    -0.310 N 
ATOM     20  H   UNL     1       0.041  -3.288   0.367  0.00  0.00    +0.149 HD
BRANCH  19  21
ATOM     21  C   UNL     1      -2.037  -2.874   0.222  0.00  0.00    +0.116 C 
BRANCH  21  22
ATOM     22  C   UNL     1      -2.205  -4.355  -0.125  0.00  0.00    +0.011 C 
ATOM     23  C   UNL     1      -3.638  -4.875   0.075  0.00  0.00    +0.013 C 
ATOM     24  C   UNL     1      -3.233  -5.206   1.521  0.00  0.00    +0.002 C 
ATOM     25  C   UNL     1      -1.786  -5.305   1.009  0.00  0.00    +0.013 C 
BRANCH  22  26
ATOM     26  C   UNL     1      -1.611  -4.713  -1.463  0.00  0.00    -0.040 A 
ATOM     27  C   UNL     1      -0.523  -5.563  -1.531  0.00  0.00    +0.007 A 
ATOM     28  C   UNL     1       0.022  -5.892  -2.757  0.00  0.00    +0.038 A 
ATOM     29  C   UNL     1      -0.523  -5.372  -3.919  0.00  0.00    +0.123 A 
ATOM     30  C   UNL     1      -1.613  -4.521  -3.850  0.00  0.00    +0.038 A 
ATOM     31  C   UNL     1      -2.160  -4.197  -2.623  0.00  0.00    +0.007 A 
ATOM     32  F   UNL     1       0.009  -5.693  -5.118  0.00  0.00    -0.205 F 
ENDBRANCH  22  26
ENDBRANCH  21  22
ENDBRANCH  19  21
ENDBRANCH   6  17
TORSDOF 7
