REMARK  Name = ZINC02117886
REMARK  11 active torsions:
REMARK  status: ('A' for Active; 'I' for Inactive)
REMARK    1  A    between atoms: CD1_1  and  CG1_2
REMARK    2  A    between atoms: CG1_2  and  CB_3
REMARK    3  A    between atoms: CB_3  and  CG2_5
REMARK    4  A    between atoms: CB_3  and  CA_6
REMARK    5  A    between atoms: CA_6  and  C_8
REMARK    6  A    between atoms: CA_6  and  N_10
REMARK    7  A    between atoms: C_11  and  C_13
REMARK    8  A    between atoms: C_13  and  C_14
REMARK    9  A    between atoms: C_15  and  C_36
REMARK   10  A    between atoms: C_19  and  C_29
REMARK   11  A    between atoms: C_23  and  C_28
REMARK                            x       y       z     vdW  Elec       q    Type
REMARK                         _______ _______ _______ _____ _____    ______ ____
ROOT
ATOM      1  C   UNK A   0      -4.170  -1.343  -2.344  0.00  0.00    +0.049 A 
ATOM      2  C   UNK A   0      -5.193  -0.757  -3.016  0.00  0.00    -0.029 A 
ATOM      3  C   UNK A   0      -5.485  -1.222  -4.376  0.00  0.00    +0.022 A 
ATOM      4  C   UNK A   0      -6.522  -0.654  -5.117  0.00  0.00    +0.024 A 
ATOM      5  C   UNK A   0      -6.775  -1.120  -6.397  0.00  0.00    +0.029 A 
ATOM      6  C   UNK A   0      -7.758  -0.769  -7.441  0.00  0.00    +0.028 A 
ATOM      7  C   UNK A   0      -7.499  -1.588  -8.485  0.00  0.00    +0.204 A 
ATOM      8  O   UNK A   0      -6.467  -2.397  -8.190  0.00  0.00    -0.462 OA
ATOM      9  C   UNK A   0      -5.997  -2.157  -6.949  0.00  0.00    +0.142 A 
ATOM     10  C   UNK A   0      -4.967  -2.717  -6.206  0.00  0.00    +0.035 A 
ATOM     11  C   UNK A   0      -4.705  -2.259  -4.926  0.00  0.00    +0.146 A 
ATOM     12  O   UNK A   0      -3.703  -2.802  -4.198  0.00  0.00    -0.422 OA
ATOM     13  C   UNK A   0      -3.429  -2.376  -2.956  0.00  0.00    +0.341 A 
ATOM     14  O   UNK A   0      -2.516  -2.896  -2.339  0.00  0.00    -0.245 OA
ATOM     15  C   UNK A   0      -4.133  -3.826  -6.794  0.00  0.00    +0.051 C 
ATOM     16  C   UNK A   0      -6.005   0.344  -2.384  0.00  0.00    +0.045 C 
ENDROOT
BRANCH   6  17
ATOM     17  C   UNK A   0      -8.814   0.269  -7.360  0.00  0.00    -0.014 A 
ATOM     18  C   UNK A   0      -9.673   0.309  -6.263  0.00  0.00    +0.010 A 
ATOM     19  C   UNK A   0     -10.651   1.280  -6.191  0.00  0.00    +0.020 A 
ATOM     20  C   UNK A   0     -10.786   2.207  -7.210  0.00  0.00    +0.041 A 
ATOM     21  C   UNK A   0      -9.939   2.168  -8.305  0.00  0.00    +0.020 A 
ATOM     22  C   UNK A   0      -8.954   1.205  -8.384  0.00  0.00    +0.010 A 
ATOM     23 CL   UNK A   0     -12.023   3.421  -7.117  0.00  0.00    -0.084 Cl
ENDBRANCH   6  17
BRANCH   1  24
ATOM     24  C   UNK A   0      -3.829  -0.894  -0.946  0.00  0.00    +0.138 C 
BRANCH  24  26
ATOM     25  N   ILE A   1      -2.356   0.776   0.129  0.00  0.00    -0.302 N 
ATOM     26  C   UNK A   0      -2.812   0.215  -1.008  0.00  0.00    +0.218 C 
ATOM     27  O   UNK A   0      -2.403   0.604  -2.082  0.00  0.00    -0.275 OA
ATOM     28  H   ILE A   1      -2.682   0.465   0.988  0.00  0.00    +0.150 HD
BRANCH  25  29
ATOM     29  CA  ILE A   1      -1.367   1.855   0.069  0.00  0.00    +0.189 C 
BRANCH  29  30
ATOM     30  C   ILE A   1       0.017   1.264  -0.024  0.00  0.00    +0.376 C 
ATOM     31  O   ILE A   1       0.220   0.138   0.365  0.00  0.00    -0.244 OA
ATOM     32  OXT ILE A   1       1.022   1.986  -0.542  0.00  0.00    -0.244 OA
ENDBRANCH  29  30
BRANCH  29  33
ATOM     33  CB  ILE A   1      -1.471   2.714   1.331  0.00  0.00    +0.017 C 
ATOM     34  CG2 ILE A   1      -1.260   1.834   2.565  0.00  0.00    +0.010 C 
BRANCH  33  36
ATOM     35  CD1 ILE A   1      -2.912   4.330   2.577  0.00  0.00    +0.004 C 
ATOM     36  CG1 ILE A   1      -2.857   3.359   1.396  0.00  0.00    +0.002 C 
ENDBRANCH  33  36
ENDBRANCH  29  33
ENDBRANCH  25  29
ENDBRANCH  24  26
ENDBRANCH   1  24
TORSDOF 7
