REMARK  Name = ZINC22242159
REMARK  3 active torsions:
REMARK  status: ('A' for Active; 'I' for Inactive)
REMARK    1  A    between atoms: C_4  and  C_7
REMARK    2  A    between atoms: C_9  and  O_27
REMARK    3  A    between atoms: C_14  and  N_21
REMARK                            x       y       z     vdW  Elec       q    Type
REMARK                         _______ _______ _______ _____ _____    ______ ____
ROOT
ATOM      1  C   UNL     1       2.051  -1.634   0.874  0.00  0.00    +0.028 A 
ATOM      2  C   UNL     1       1.239  -2.716   0.523  0.00  0.00    +0.057 A 
ATOM      3  C   UNL     1      -0.021  -2.533  -0.013  0.00  0.00    +0.118 A 
ATOM      4  C   UNL     1      -0.543  -1.256  -0.226  0.00  0.00    +0.053 A 
ATOM      5  C   UNL     1       0.245  -0.181   0.120  0.00  0.00    +0.007 A 
ATOM      6  C   UNL     1       1.537  -0.349   0.659  0.00  0.00    +0.135 A 
ATOM      7  O   UNL     1       2.137   0.856   0.883  0.00  0.00    -0.470 OA
ATOM      8  C   UNL     1       1.513   1.775  -0.003  0.00  0.00    +0.172 C 
ATOM      9  C   UNL     1       0.033   1.287   0.056  0.00  0.00    +0.082 C 
ATOM     10  C   UNL     1      -0.663   1.881  -1.150  0.00  0.00    +0.013 C 
ATOM     11  C   UNL     1      -0.669   3.408  -0.960  0.00  0.00    +0.001 C 
ATOM     12  C   UNL     1       0.740   3.964  -0.782  0.00  0.00    +0.005 C 
ATOM     13  C   UNL     1       1.493   3.246   0.355  0.00  0.00    +0.065 C 
ENDROOT
BRANCH   1  17
ATOM     14  C   UNL     1       5.926  -2.220   2.523  0.00  0.00    +0.000 A 
ATOM     15  C   UNL     1       4.841  -2.891   3.057  0.00  0.00    +0.001 A 
ATOM     16  C   UNL     1       3.581  -2.705   2.526  0.00  0.00    +0.008 A 
ATOM     17  C   UNL     1       3.403  -1.838   1.449  0.00  0.00    -0.014 A 
ATOM     18  C   UNL     1       4.501  -1.168   0.912  0.00  0.00    +0.008 A 
ATOM     19  C   UNL     1       5.755  -1.359   1.454  0.00  0.00    +0.001 A 
ENDBRANCH   1  17
BRANCH   8  20
ATOM     20  N   UNL     1       2.044   1.596  -1.361  0.00  0.00    -0.260 NA
ATOM     21  C   UNL     1       1.859   0.212  -1.821  0.00  0.00    +0.116 C 
ATOM     22  C   UNL     1       2.370   0.085  -3.258  0.00  0.00    +0.175 C 
ATOM     23  O   UNL     1       3.739   0.494  -3.310  0.00  0.00    -0.377 OA
ATOM     24  C   UNL     1       3.956   1.837  -2.870  0.00  0.00    +0.175 C 
ATOM     25  C   UNL     1       3.461   1.982  -1.428  0.00  0.00    +0.116 C 
ENDBRANCH   8  20
BRANCH   3  26
ATOM     26  O   UNL     1      -0.769  -3.620  -0.342  0.00  0.00    -0.507 OA
ATOM     27  H   UNL     1      -1.773  -3.488  -0.770  0.00  0.00    +0.292 HD
ENDBRANCH   3  26
TORSDOF 3
