REMARK  Name = ZINC39709867
REMARK  11 active torsions:
REMARK  status: ('A' for Active; 'I' for Inactive)
REMARK    1  A    between atoms: C_1  and  C_2
REMARK    2  A    between atoms: C_2  and  C_3
REMARK    3  A    between atoms: C_8  and  C_12
REMARK    4  A    between atoms: C_12  and  C_14
REMARK    5  A    between atoms: C_14  and  S_15
REMARK    6  A    between atoms: S_15  and  C_16
REMARK    7  A    between atoms: C_20  and  C_28
REMARK    8  A    between atoms: N_22  and  C_23
REMARK    9  A    between atoms: C_23  and  C_24
REMARK   10  A    between atoms: C_24  and  C_25
REMARK   11  A    between atoms: C_32  and  C_34
REMARK                            x       y       z     vdW  Elec       q    Type
REMARK                         _______ _______ _______ _____ _____    ______ ____
ROOT
ATOM      1  C   UNL     1      -1.514  -2.049  10.060  0.00  0.00    +0.077 C 
ATOM      2  N   UNL     1      -2.279  -0.777   9.976  0.00  0.00    -0.262 NA
ATOM      3  N   UNL     1      -3.656  -1.197  10.280  0.00  0.00    -0.267 NA
ATOM      4  C   UNL     1      -3.794  -2.516   9.622  0.00  0.00    +0.049 C 
ATOM      5  N   UNL     1      -2.427  -3.064   9.484  0.00  0.00    +0.411 N 
ATOM      6  H   UNL     1      -2.217  -0.379   9.051  0.00  0.00    +0.140 HD
ATOM      7  H   UNL     1      -4.324  -0.537   9.911  0.00  0.00    +0.139 HD
ATOM      8  H   UNL     1      -2.210  -3.212   8.510  0.00  0.00    -0.075 HD
ENDROOT
BRANCH   4   9
ATOM      9  C   UNL     1      -4.633  -3.433  10.474  0.00  0.00    -0.046 A 
ATOM     10  C   UNL     1      -4.455  -3.457  11.845  0.00  0.00    +0.003 A 
ATOM     11  C   UNL     1      -5.225  -4.298  12.627  0.00  0.00    +0.001 A 
ATOM     12  C   UNL     1      -6.172  -5.114  12.038  0.00  0.00    +0.003 A 
ATOM     13  C   UNL     1      -6.351  -5.090  10.668  0.00  0.00    -0.050 A 
ATOM     14  C   UNL     1      -5.584  -4.245   9.886  0.00  0.00    +0.006 A 
ATOM     15  C   UNL     1      -7.383  -5.980  10.026  0.00  0.00    +0.044 C 
ENDBRANCH   4   9
BRANCH   1  16
ATOM     16  S   UNL     1       0.010  -1.939   9.083  0.00  0.00    -0.152 S 
BRANCH  16  17
ATOM     17  C   UNL     1      -0.567  -1.519   7.415  0.00  0.00    +0.148 C 
BRANCH  17  18
ATOM     18  C   UNL     1       0.617  -1.396   6.490  0.00  0.00    +0.171 C 
ATOM     19  O   UNL     1       1.740  -1.574   6.915  0.00  0.00    -0.291 OA
BRANCH  18  25
ATOM     20  C   UNL     1       1.578  -0.382   1.694  0.00  0.00    -0.024 A 
ATOM     21  C   UNL     1       2.917  -0.509   1.824  0.00  0.00    +0.005 A 
ATOM     22  C   UNL     1       3.517  -0.830   3.051  0.00  0.00    +0.001 A 
ATOM     23  C   UNL     1       2.800  -1.032   4.179  0.00  0.00    +0.010 A 
ATOM     24  C   UNL     1       1.390  -0.924   4.157  0.00  0.00    +0.006 A 
ATOM     25  C   UNL     1       0.419  -1.074   5.131  0.00  0.00    +0.024 C 
ATOM     26  C   UNL     1      -0.899  -0.820   4.433  0.00  0.00    +0.152 C 
ATOM     27  N   UNL     1      -0.569  -0.528   3.034  0.00  0.00    -0.380 N 
ATOM     28  C   UNL     1       0.723  -0.580   2.877  0.00  0.00    +0.046 A 
ATOM     29  H   UNL     1      -1.211  -0.324   2.337  0.00  0.00    +0.160 HD
BRANCH  20  31
ATOM     30  C   UNL     1       0.757   1.476   0.273  0.00  0.00    +0.009 C 
ATOM     31  C   UNL     1       0.969  -0.036   0.360  0.00  0.00    +0.034 C 
ENDBRANCH  20  31
ENDBRANCH  18  25
ENDBRANCH  17  18
ENDBRANCH  16  17
ENDBRANCH   1  16
BRANCH   5  32
ATOM     32  C   UNL     1      -2.309  -4.327  10.226  0.00  0.00    -0.061 C 
BRANCH  32  33
ATOM     33  C   UNL     1      -0.915  -4.918  10.008  0.00  0.00    +0.107 C 
BRANCH  33  34
ATOM     34  C   UNL     1      -0.794  -6.213  10.769  0.00  0.00    +0.354 C 
ATOM     35  O   UNL     1      -1.736  -6.625  11.425  0.00  0.00    -0.246 OA
ATOM     36  O   UNL     1       0.245  -6.849  10.729  0.00  0.00    -0.246 OA
ENDBRANCH  33  34
ENDBRANCH  32  33
ENDBRANCH   5  32
TORSDOF 9
