REMARK  Name = ZINC59099247
REMARK  12 active torsions:
REMARK  status: ('A' for Active; 'I' for Inactive)
REMARK    1  A    between atoms: C_1  and  C_2
REMARK    2  A    between atoms: C_6  and  N_9
REMARK    3  A    between atoms: N_9  and  C_10
REMARK    4  A    between atoms: C_10  and  N_12
REMARK    5  A    between atoms: N_12  and  C_13
REMARK    6  A    between atoms: N_12  and  C_20
REMARK    7  A    between atoms: C_13  and  C_14
REMARK    8  A    between atoms: C_17  and  C_19
REMARK    9  A    between atoms: C_22  and  C_28
REMARK   10  A    between atoms: C_22  and  C_29
REMARK   11  A    between atoms: C_24  and  C_26
REMARK   12  A    between atoms: C_24  and  C_27
REMARK                            x       y       z     vdW  Elec       q    Type
REMARK                         _______ _______ _______ _____ _____    ______ ____
ROOT
ATOM      1  N   UNL     1      -0.023  -4.812   3.597  0.00  0.00    -0.302 N 
ENDROOT
BRANCH   1   2
ATOM      2  C   UNL     1      -0.110  -4.075   4.865  0.00  0.00    +0.073 C 
ATOM      3  C   UNL     1       1.153  -3.230   5.043  0.00  0.00    +0.009 C 
ATOM      4  C   UNL     1       1.071  -2.447   6.353  0.00  0.00    -0.072 C 
ATOM      5  N   UNL     1      -0.146  -1.656   6.444  0.00  0.00    +0.386 N 
ATOM      6  C   UNL     1      -1.401  -2.304   6.095  0.00  0.00    -0.072 C 
ATOM      7  C   UNL     1      -1.314  -3.135   4.819  0.00  0.00    +0.009 C 
ATOM      8  C   UNL     1      -1.932  -3.166   7.244  0.00  0.00    -0.010 C 
ATOM      9  C   UNL     1      -2.445  -1.190   5.846  0.00  0.00    -0.010 C 
ATOM     10  C   UNL     1       2.268  -1.468   6.376  0.00  0.00    -0.010 C 
ATOM     11  C   UNL     1       1.236  -3.391   7.544  0.00  0.00    -0.010 C 
ATOM     12  H   UNL     1      -0.225  -1.295   7.398  0.00  0.00    -0.084 HD
ATOM     13  H   UNL     1      -0.036  -0.829   5.852  0.00  0.00    -0.084 HD
ENDBRANCH   1   2
BRANCH   1  14
ATOM     14  C   UNL     1      -0.005  -4.141   2.428  0.00  0.00    +0.138 C 
ATOM     15  S   UNL     1      -0.006  -5.002   0.948  0.00  0.00    -0.018 S 
BRANCH  14  16
ATOM     16  N   UNL     1       0.014  -2.794   2.424  0.00  0.00    -0.296 N 
ATOM     17  H   UNL     1       0.095  -2.308   3.260  0.00  0.00    +0.154 HD
BRANCH  16  23
ATOM     18  C   UNL     1      -2.152   0.683  -0.297  0.00  0.00    +0.045 C 
ATOM     19  C   UNL     1      -1.124  -0.406  -0.132  0.00  0.00    -0.030 A 
ATOM     20  C   UNL     1      -0.274  -0.717  -1.177  0.00  0.00    +0.005 A 
ATOM     21  C   UNL     1       0.671  -1.716  -1.030  0.00  0.00    +0.002 A 
ATOM     22  C   UNL     1       0.769  -2.406   0.163  0.00  0.00    +0.025 A 
ATOM     23  C   UNL     1      -0.082  -2.096   1.215  0.00  0.00    +0.051 A 
ATOM     24  C   UNL     1      -1.028  -1.088   1.066  0.00  0.00    +0.065 A 
ATOM     25 CL   UNL     1      -2.091  -0.692   2.380  0.00  0.00    -0.081 Cl
ENDBRANCH  16  23
ENDBRANCH  14  16
ENDBRANCH   1  14
BRANCH   1  26
ATOM     26  C   UNL     1       0.045  -6.275   3.604  0.00  0.00    +0.181 C 
BRANCH  26  27
ATOM     27  C   UNL     1       1.487  -6.711   3.666  0.00  0.00    +0.122 A 
ATOM     28  C   UNL     1       2.192  -6.941   4.788  0.00  0.00    +0.046 A 
ATOM     29  C   UNL     1       3.490  -7.327   4.384  0.00  0.00    +0.045 A 
ATOM     30  C   UNL     1       3.502  -7.309   3.039  0.00  0.00    +0.102 A 
ATOM     31  O   UNL     1       2.283  -6.941   2.609  0.00  0.00    -0.463 OA
ATOM     32  C   UNL     1       4.679  -7.650   2.163  0.00  0.00    +0.086 C 
ENDBRANCH  26  27
ENDBRANCH   1  26
TORSDOF 6
