REMARK  Name = ZINC59311124
REMARK  5 active torsions:
REMARK  status: ('A' for Active; 'I' for Inactive)
REMARK    1  A    between atoms: C_6  and  N_7
REMARK    2  A    between atoms: C_8  and  C_10
REMARK    3  A    between atoms: C_10  and  S_11
REMARK    4  A    between atoms: S_11  and  C_12
REMARK    5  A    between atoms: N_17  and  N_18
REMARK                            x       y       z     vdW  Elec       q    Type
REMARK                         _______ _______ _______ _____ _____    ______ ____
ROOT
ATOM      1  C   UNL     1      -3.728  -5.343  -0.448  0.00  0.00    +0.211 A 
ATOM      2  N   UNL     1      -3.964  -6.655  -0.566  0.00  0.00    -0.186 NA
ATOM      3  C   UNL     1      -5.262  -6.871  -0.587  0.00  0.00    +0.232 A 
ATOM      4  N   UNL     1      -5.886  -5.678  -0.481  0.00  0.00    -0.245 N 
ATOM      5  N   UNL     1      -4.875  -4.708  -0.388  0.00  0.00    -0.144 NA
ATOM      6  N   UNL     1      -5.880  -8.104  -0.698  0.00  0.00    -0.205 N 
ATOM      7  H   UNL     1      -6.848  -8.163  -0.705  0.00  0.00    +0.177 HD
ATOM      8  H   UNL     1      -6.843  -5.522  -0.469  0.00  0.00    +0.192 HD
ENDROOT
BRANCH   6   9
ATOM      9  N   UNL     1      -5.106  -9.268  -0.801  0.00  0.00    -0.189 NA
ATOM     10  C   UNL     1      -5.673 -10.397  -1.006  0.00  0.00    +0.037 C 
ATOM     11  C   UNL     1      -7.194 -10.494  -1.073  0.00  0.00    +0.052 C 
ATOM     12  C   UNL     1      -7.629 -11.458  -2.144  0.00  0.00    +0.006 C 
ATOM     13  C   UNL     1      -7.736 -12.874  -1.563  0.00  0.00    +0.000 C 
ATOM     14  C   UNL     1      -6.436 -13.544  -1.466  0.00  0.00    +0.000 C 
ATOM     15  C   UNL     1      -5.476 -12.836  -0.500  0.00  0.00    +0.006 C 
ATOM     16  C   UNL     1      -4.835 -11.658  -1.190  0.00  0.00    +0.052 C 
ENDBRANCH   6   9
BRANCH   1  17
ATOM     17  S   UNL     1      -2.136  -4.591  -0.378  0.00  0.00    -0.075 S 
BRANCH  17  18
ATOM     18  C   UNL     1      -2.494  -2.821  -0.212  0.00  0.00    +0.173 C 
BRANCH  18  20
ATOM     19  N   UNL     1      -1.220  -0.710  -0.015  0.00  0.00    -0.285 N 
ATOM     20  C   UNL     1      -1.200  -2.052  -0.140  0.00  0.00    +0.227 C 
ATOM     21  O   UNL     1      -0.141  -2.640  -0.195  0.00  0.00    -0.275 OA
ATOM     22  H   UNL     1      -2.064  -0.246   0.104  0.00  0.00    +0.155 HD
BRANCH  19  28
ATOM     23  C   UNL     1       1.024  -0.418  -0.858  0.00  0.00    +0.024 A 
ATOM     24  C   UNL     1       2.204   0.299  -0.896  0.00  0.00    +0.017 A 
ATOM     25  C   UNL     1       2.342   1.448  -0.137  0.00  0.00    +0.018 A 
ATOM     26  C   UNL     1       1.300   1.881   0.663  0.00  0.00    +0.017 A 
ATOM     27  C   UNL     1       0.118   1.167   0.706  0.00  0.00    +0.024 A 
ATOM     28  C   UNL     1      -0.024   0.015  -0.056  0.00  0.00    +0.033 A 
ATOM     29 BR   UNL     1       3.959   2.427  -0.193  0.00  0.00    -0.050 Br
ENDBRANCH  19  28
ENDBRANCH  18  20
ENDBRANCH  17  18
ENDBRANCH   1  17
TORSDOF 5
