REMARK  Name = ZINC40079979
REMARK  7 active torsions:
REMARK  status: ('A' for Active; 'I' for Inactive)
REMARK    1  A    between atoms: C_1  and  C_2
REMARK    2  A    between atoms: C_7  and  C_8
REMARK    3  A    between atoms: C_7  and  C_9
REMARK    4  A    between atoms: C_11  and  N_13
REMARK    5  A    between atoms: C_14  and  C_16
REMARK    6  A    between atoms: C_20  and  S_22
REMARK    7  A    between atoms: S_22  and  C_23
REMARK                            x       y       z     vdW  Elec       q    Type
REMARK                         _______ _______ _______ _____ _____    ______ ____
ROOT
ATOM      1  N   UNL     1      -2.268  -0.017   1.012  0.00  0.00    -0.307 N 
ATOM      2  C   UNL     1      -3.606  -0.100   0.874  0.00  0.00    +0.264 C 
ATOM      3  O   UNL     1      -4.084  -0.746  -0.037  0.00  0.00    -0.268 OA
ATOM      4  H   UNL     1      -1.886   0.499   1.739  0.00  0.00    +0.149 HD
ENDROOT
BRANCH   1  14
ATOM      5  C   UNL     1      -0.019   1.526   0.010  0.00  0.00    +0.013 C 
ATOM      6  C   UNL     1       0.002  -0.004   0.002  0.00  0.00    -0.008 C 
ATOM      7  C   UNL     1       0.744  -0.669  -1.197  0.00  0.00    +0.009 C 
ATOM      8  C   UNL     1       1.062  -2.103  -0.714  0.00  0.00    +0.005 C 
ATOM      9  C   UNL     1       0.481  -2.169   0.732  0.00  0.00    -0.003 C 
ATOM     10  C   UNL     1       0.727  -0.695   1.211  0.00  0.00    -0.025 C 
ATOM     11  C   UNL     1       2.216  -0.348   1.260  0.00  0.00    +0.012 C 
ATOM     12  C   UNL     1       0.031  -0.400   2.541  0.00  0.00    +0.012 C 
ATOM     13  C   UNL     1      -1.065  -2.175   0.532  0.00  0.00    +0.027 C 
ATOM     14  C   UNL     1      -1.389  -0.705   0.062  0.00  0.00    +0.080 C 
ENDBRANCH   1  14
BRANCH   2  15
ATOM     15  C   UNL     1      -4.495   0.597   1.836  0.00  0.00    +0.148 A 
ATOM     16  C   UNL     1      -5.883   0.513   1.707  0.00  0.00    +0.090 A 
ATOM     17  C   UNL     1      -6.674   1.184   2.632  0.00  0.00    +0.136 A 
ATOM     18  N   UNL     1      -6.094   1.874   3.597  0.00  0.00    -0.229 NA
ATOM     19  C   UNL     1      -4.772   1.935   3.694  0.00  0.00    +0.189 A 
ATOM     20  N   UNL     1      -3.982   1.307   2.838  0.00  0.00    -0.216 NA
ATOM     21 CL   UNL     1      -6.603  -0.405   0.422  0.00  0.00    -0.080 Cl
BRANCH  19  22
ATOM     22  S   UNL     1      -4.050   2.870   5.001  0.00  0.00    -0.089 S 
ATOM     23  C   UNL     1      -5.475   3.531   5.907  0.00  0.00    +0.093 C 
ENDBRANCH  19  22
ENDBRANCH   2  15
TORSDOF 3
