REMARK  Name = ZINC13865516
REMARK  2 active torsions:
REMARK  status: ('A' for Active; 'I' for Inactive)
REMARK    1  A    between atoms: N_10  and  N_11
REMARK    2  A    between atoms: C_14  and  C_17
REMARK                            x       y       z     vdW  Elec       q    Type
REMARK                         _______ _______ _______ _____ _____    ______ ____
ROOT
ATOM      1  C   UNL     1      -0.017   1.363   0.009  0.00  0.00    +0.001 A 
ATOM      2  C   UNL     1       1.167   2.092   0.002  0.00  0.00    +0.001 A 
ATOM      3  C   UNL     1       2.387   1.451  -0.013  0.00  0.00    +0.012 A 
ATOM      4  C   UNL     1       2.431   0.060  -0.021  0.00  0.00    +0.029 A 
ATOM      5  C   UNL     1       1.222  -0.680  -0.013  0.00  0.00    +0.023 A 
ATOM      6  C   UNL     1       0.002  -0.004   0.002  0.00  0.00    +0.012 A 
ATOM      7  C   UNL     1       1.618  -2.088  -0.025  0.00  0.00    +0.103 C 
ATOM      8  N   UNL     1       2.930  -2.167  -0.038  0.00  0.00    -0.326 N 
ATOM      9  C   UNL     1       3.501  -0.944  -0.037  0.00  0.00    +0.162 C 
ATOM     10  N   UNL     1       4.804  -0.694  -0.049  0.00  0.00    -0.128 NA
ATOM     11  N   UNL     1       0.746  -3.170  -0.021  0.00  0.00    -0.344 N 
ATOM     12  H   UNL     1      -0.212  -3.020  -0.011  0.00  0.00    +0.144 HD
ATOM     13  H   UNL     1       1.096  -4.074  -0.030  0.00  0.00    +0.144 HD
ATOM     14  H   UNL     1       3.425  -3.001  -0.047  0.00  0.00    +0.169 HD
ENDROOT
BRANCH  10  15
ATOM     15  N   UNL     1       5.648  -1.669  -0.063  0.00  0.00    -0.122 NA
ATOM     16  C   UNL     1       6.958  -1.417  -0.075  0.00  0.00    +0.192 A 
ATOM     17  N   UNL     1       7.988  -2.308  -0.096  0.00  0.00    -0.332 N 
ATOM     18  C   UNL     1       9.267  -1.834  -0.105  0.00  0.00    +0.055 A 
ATOM     19  C   UNL     1       9.421  -0.489  -0.093  0.00  0.00    +0.075 A 
ATOM     20  S   UNL     1       7.730   0.076  -0.076  0.00  0.00    -0.056 S 
ATOM     21  H   UNL     1       7.815  -3.262  -0.103  0.00  0.00    +0.168 HD
BRANCH  18  22
ATOM     22  C   UNL     1      10.431  -2.747  -0.127  0.00  0.00    -0.001 A 
ATOM     23  C   UNL     1      10.237  -4.129  -0.144  0.00  0.00    +0.011 A 
ATOM     24  C   UNL     1      11.326  -4.975  -0.165  0.00  0.00    +0.016 A 
ATOM     25  C   UNL     1      12.610  -4.456  -0.169  0.00  0.00    +0.018 A 
ATOM     26  C   UNL     1      12.809  -3.086  -0.151  0.00  0.00    +0.016 A 
ATOM     27  C   UNL     1      11.727  -2.230  -0.136  0.00  0.00    +0.011 A 
ATOM     28 BR   UNL     1      14.098  -5.623  -0.197  0.00  0.00    -0.050 Br
ENDBRANCH  18  22
ENDBRANCH  10  15
TORSDOF 2
