REMARK  Name = ZINC14198281
REMARK  9 active torsions:
REMARK  status: ('A' for Active; 'I' for Inactive)
REMARK    1  A    between atoms: C_1  and  C_2
REMARK    2  A    between atoms: C_2  and  C_4
REMARK    3  A    between atoms: C_2  and  N_23
REMARK    4  A    between atoms: C_4  and  O_6
REMARK    5  A    between atoms: O_6  and  C_7
REMARK    6  A    between atoms: C_7  and  C_9
REMARK    7  A    between atoms: C_7  and  C_10
REMARK    8  A    between atoms: N_12  and  C_13
REMARK    9  A    between atoms: C_24  and  C_26
REMARK                            x       y       z     vdW  Elec       q    Type
REMARK                         _______ _______ _______ _____ _____    ______ ____
ROOT
ATOM      1  C   UNL     1       5.628  -4.839   1.043  0.00  0.00    +0.328 C 
ATOM      2  O   UNL     1       6.610  -4.274   1.462  0.00  0.00    -0.249 OA
ENDROOT
BRANCH   1   4
ATOM      3  C   UNL     1       4.146  -6.530   2.088  0.00  0.00    +0.040 C 
ATOM      4  C   UNL     1       5.438  -6.312   1.299  0.00  0.00    +0.179 C 
BRANCH   4   5
ATOM      5  N   UNL     1       6.574  -6.823   2.071  0.00  0.00    -0.302 N 
ATOM      6  C   UNL     1       6.904  -8.128   2.001  0.00  0.00    +0.220 C 
ATOM      7  O   UNL     1       6.261  -8.879   1.298  0.00  0.00    -0.275 OA
ATOM      8  H   UNL     1       7.088  -6.223   2.633  0.00  0.00    +0.150 HD
BRANCH   6   9
ATOM      9  C   UNL     1       8.072  -8.654   2.795  0.00  0.00    +0.048 C 
ATOM     10  C   UNL     1       7.823  -8.415   4.286  0.00  0.00    +0.019 C 
ATOM     11  C   UNL     1       9.009  -8.949   5.092  0.00  0.00    -0.009 C 
ATOM     12  C   UNL     1       9.166 -10.449   4.835  0.00  0.00    +0.007 C 
ATOM     13  C   UNL     1       9.415 -10.688   3.344  0.00  0.00    -0.009 C 
ATOM     14  C   UNL     1       8.229 -10.154   2.538  0.00  0.00    +0.019 C 
ATOM     15  C   UNL     1      10.691  -9.960   2.917  0.00  0.00    +0.007 C 
ATOM     16  C   UNL     1      10.534  -8.460   3.174  0.00  0.00    -0.009 C 
ATOM     17  C   UNL     1      10.285  -8.221   4.665  0.00  0.00    +0.007 C 
ATOM     18  C   UNL     1       9.348  -7.926   2.368  0.00  0.00    +0.019 C 
ENDBRANCH   6   9
ENDBRANCH   4   5
ENDBRANCH   1   4
BRANCH   1  19
ATOM     19  O   UNL     1       4.705  -4.155   0.348  0.00  0.00    -0.451 OA
BRANCH  19  20
ATOM     20  C   UNL     1       4.953  -2.739   0.140  0.00  0.00    +0.259 C 
ATOM     21  C   UNL     1       5.737  -2.545  -1.159  0.00  0.00    +0.062 C 
BRANCH  20  22
ATOM     22  C   UNL     1       3.639  -2.007   0.047  0.00  0.00    +0.258 C 
ATOM     23  O   UNL     1       2.597  -2.628   0.056  0.00  0.00    -0.271 OA
ATOM     24  N   UNL     1       3.621  -0.663  -0.045  0.00  0.00    -0.282 N 
ATOM     25  H   UNL     1       4.454  -0.172  -0.130  0.00  0.00    +0.155 HD
BRANCH  24  26
ATOM     26  C   UNL     1       2.401   0.025  -0.020  0.00  0.00    +0.037 A 
ATOM     27  C   UNL     1       1.346  -0.461   0.740  0.00  0.00    +0.027 A 
ATOM     28  C   UNL     1       0.142   0.217   0.764  0.00  0.00    +0.051 A 
ATOM     29  C   UNL     1      -0.016   1.383   0.030  0.00  0.00    +0.162 A 
ATOM     30  C   UNL     1       1.039   1.873  -0.730  0.00  0.00    +0.164 A 
ATOM     31  C   UNL     1       2.247   1.192  -0.755  0.00  0.00    +0.072 A 
ATOM     32  O   UNL     1       0.906   3.020  -1.450  0.00  0.00    -0.485 OA
ATOM     33  C   UNL     1      -0.430   3.473  -1.699  0.00  0.00    +0.270 C 
ATOM     34  C   UNL     1      -1.216   3.394  -0.384  0.00  0.00    +0.270 C 
ATOM     35  O   UNL     1      -1.213   2.032   0.059  0.00  0.00    -0.485 OA
ENDBRANCH  24  26
ENDBRANCH  20  22
ENDBRANCH  19  20
ENDBRANCH   1  19
TORSDOF 7
