REMARK  Name = ZINC46577226
REMARK  7 active torsions:
REMARK  status: ('A' for Active; 'I' for Inactive)
REMARK    1  A    between atoms: C_1  and  C_2
REMARK    2  A    between atoms: C_2  and  C_3
REMARK    3  A    between atoms: C_2  and  C_4
REMARK    4  A    between atoms: C_7  and  S_10
REMARK    5  A    between atoms: S_10  and  N_13
REMARK    6  A    between atoms: C_16  and  C_19
REMARK    7  A    between atoms: N_21  and  N_22
REMARK                            x       y       z     vdW  Elec       q    Type
REMARK                         _______ _______ _______ _____ _____    ______ ____
ROOT
ATOM      1  N   UNL     1       2.686  -0.888   6.091  0.00  0.00    -0.177 NA
ATOM      2  C   UNL     1       3.617   0.236   6.262  0.00  0.00    +0.110 C 
ATOM      3  C   UNL     1       2.818   1.543   6.260  0.00  0.00    +0.030 C 
ATOM      4  C   UNL     1       1.722   1.467   7.325  0.00  0.00    +0.079 C 
ATOM      5  C   UNL     1       0.767   0.317   6.997  0.00  0.00    +0.030 C 
ATOM      6  C   UNL     1       1.540  -1.000   7.004  0.00  0.00    +0.110 C 
ENDROOT
BRANCH   4   7
ATOM      7  C   UNL     1       0.955   2.765   7.349  0.00  0.00    +0.232 C 
ATOM      8  O   UNL     1       1.256   3.661   6.589  0.00  0.00    -0.274 OA
ATOM      9  N   UNL     1      -0.064   2.929   8.215  0.00  0.00    -0.234 N 
ATOM     10  H   UNL     1      -0.304   2.212   8.823  0.00  0.00    +0.173 HD
BRANCH   9  11
ATOM     11  N   UNL     1      -0.777   4.135   8.238  0.00  0.00    -0.233 N 
ATOM     12  C   UNL     1      -1.824   4.304   9.127  0.00  0.00    +0.232 A 
ATOM     13  N   UNL     1      -2.135   3.316   9.954  0.00  0.00    -0.222 NA
ATOM     14  C   UNL     1      -3.130   3.445  10.816  0.00  0.00    +0.116 A 
ATOM     15  C   UNL     1      -3.849   4.630  10.847  0.00  0.00    +0.039 A 
ATOM     16  C   UNL     1      -3.496   5.642   9.968  0.00  0.00    +0.116 A 
ATOM     17  N   UNL     1      -2.487   5.450   9.135  0.00  0.00    -0.222 NA
ATOM     18  H   UNL     1      -0.536   4.852   7.630  0.00  0.00    +0.173 HD
ENDBRANCH   9  11
ENDBRANCH   4   7
BRANCH   1  19
ATOM     19  S   UNL     1       2.921  -2.003   4.890  0.00  0.00    +0.061 S 
ATOM     20  O   UNL     1       2.256  -3.190   5.302  0.00  0.00    -0.153 OA
ATOM     21  O   UNL     1       4.306  -1.976   4.575  0.00  0.00    -0.153 OA
BRANCH  19  25
ATOM     22  C   UNL     1       0.731  -0.503   1.223  0.00  0.00    -0.045 A 
ATOM     23  C   UNL     1       2.050  -0.148   1.434  0.00  0.00    +0.006 A 
ATOM     24  C   UNL     1       2.719  -0.606   2.554  0.00  0.00    +0.029 A 
ATOM     25  C   UNL     1       2.068  -1.419   3.463  0.00  0.00    +0.105 A 
ATOM     26  C   UNL     1       0.749  -1.773   3.252  0.00  0.00    +0.029 A 
ATOM     27  C   UNL     1       0.079  -1.312   2.135  0.00  0.00    +0.006 A 
BRANCH  22  29
ATOM     28  C   UNL     1      -0.019   1.526   0.010  0.00  0.00    +0.012 C 
ATOM     29  C   UNL     1       0.002  -0.004   0.002  0.00  0.00    +0.013 C 
ATOM     30  C   UNL     1       0.718  -0.497  -1.257  0.00  0.00    +0.012 C 
ENDBRANCH  22  29
ENDBRANCH  19  25
ENDBRANCH   1  19
TORSDOF 5
