REMARK  Name = ZINC20764905
REMARK  6 active torsions:
REMARK  status: ('A' for Active; 'I' for Inactive)
REMARK    1  A    between atoms: C_1  and  C_2
REMARK    2  A    between atoms: C_5  and  C_8
REMARK    3  A    between atoms: C_10  and  C_24
REMARK    4  A    between atoms: C_13  and  C_16
REMARK    5  A    between atoms: C_21  and  O_22
REMARK    6  A    between atoms: C_28  and  N_30
REMARK                            x       y       z     vdW  Elec       q    Type
REMARK                         _______ _______ _______ _____ _____    ______ ____
ROOT
ATOM      1  C   UNL     1      -2.502   1.009   0.019  0.00  0.00    +0.040 C 
ATOM      2  N   UNL     1      -2.454  -0.270   0.012  0.00  0.00    -0.299 NA
ATOM      3  C   UNL     1      -3.630  -1.132   0.024  0.00  0.00    +0.081 C 
ATOM      4  N   UNL     1      -4.827  -0.382  -0.376  0.00  0.00    +0.401 N 
ATOM      5  C   UNL     1      -4.942   0.852   0.420  0.00  0.00    -0.028 C 
ATOM      6  C   UNL     1      -3.790   1.783   0.036  0.00  0.00    +0.044 C 
ATOM      7  H   UNL     1      -4.756  -0.118  -1.441  0.00  0.00    -0.081 HD
ATOM      8  H   UNL     1      -5.720  -1.002  -0.210  0.00  0.00    -0.081 HD
ENDROOT
BRANCH   1  13
ATOM      9  C   UNL     1       2.452   3.933  -0.001  0.00  0.00    +0.044 C 
ATOM     10  C   UNL     1       1.155   3.167   0.008  0.00  0.00    -0.050 A 
ATOM     11  C   UNL     1       1.172   1.783   0.000  0.00  0.00    +0.004 A 
ATOM     12  C   UNL     1      -0.013   1.076   0.008  0.00  0.00    +0.010 A 
ATOM     13  C   UNL     1      -1.230   1.759   0.017  0.00  0.00    -0.004 A 
ATOM     14  C   UNL     1      -1.240   3.155   0.030  0.00  0.00    +0.010 A 
ATOM     15  C   UNL     1      -0.048   3.850   0.022  0.00  0.00    +0.004 A 
ENDBRANCH   1  13
BRANCH   5  16
ATOM     16  C   UNL     1      -6.260   1.523   0.130  0.00  0.00    -0.018 A 
ATOM     17  C   UNL     1      -6.946   1.226  -1.032  0.00  0.00    +0.020 A 
ATOM     18  C   UNL     1      -8.158   1.838  -1.297  0.00  0.00    +0.018 A 
ATOM     19  C   UNL     1      -8.681   2.757  -0.404  0.00  0.00    +0.019 A 
ATOM     20  C   UNL     1      -7.996   3.060   0.756  0.00  0.00    +0.047 A 
ATOM     21  C   UNL     1      -6.783   2.444   1.026  0.00  0.00    +0.119 A 
ATOM     22 BR   UNL     1      -9.097   1.424  -2.885  0.00  0.00    -0.050 Br
BRANCH  21  23
ATOM     23  O   UNL     1      -6.107   2.741   2.167  0.00  0.00    -0.507 OA
ATOM     24  H   UNL     1      -6.522   3.472   2.878  0.00  0.00    +0.292 HD
ENDBRANCH  21  23
ENDBRANCH   5  16
BRANCH   3  25
ATOM     25  C   UNL     1      -3.829  -1.682   1.412  0.00  0.00    -0.038 A 
ATOM     26  C   UNL     1      -5.102  -1.981   1.861  0.00  0.00    +0.005 A 
ATOM     27  C   UNL     1      -5.285  -2.486   3.135  0.00  0.00    +0.022 A 
ATOM     28  C   UNL     1      -4.194  -2.692   3.961  0.00  0.00    +0.071 A 
ATOM     29  C   UNL     1      -2.920  -2.392   3.511  0.00  0.00    +0.145 A 
ATOM     30  C   UNL     1      -2.738  -1.893   2.235  0.00  0.00    +0.038 A 
ATOM     31 CL   UNL     1      -4.423  -3.325   5.561  0.00  0.00    -0.081 Cl
BRANCH  29  32
ATOM     32  N   UNL     1      -1.753  -2.612   4.393  0.00  0.00    +0.058 N 
ATOM     33  O   UNL     1      -0.632  -2.349   3.997  0.00  0.00    -0.126 OA
ATOM     34  O   UNL     1      -1.913  -3.058   5.516  0.00  0.00    -0.126 OA
ENDBRANCH  29  32
ENDBRANCH   3  25
TORSDOF 5
