REMARK  Name = ZINC62265611
REMARK  6 active torsions:
REMARK  status: ('A' for Active; 'I' for Inactive)
REMARK    1  A    between atoms: C_1  and  C_2
REMARK    2  A    between atoms: C_2  and  C_3
REMARK    3  A    between atoms: C_2  and  N_4
REMARK    4  A    between atoms: N_4  and  S_5
REMARK    5  A    between atoms: S_5  and  N_8
REMARK    6  A    between atoms: C_21  and  C_23
REMARK                            x       y       z     vdW  Elec       q    Type
REMARK                         _______ _______ _______ _____ _____    ______ ____
ROOT
ATOM      1  N   UNL     1      -0.630  -3.217  -0.293  0.00  0.00    -0.157 NA
ATOM      2  C   UNL     1       0.650  -3.493  -0.962  0.00  0.00    +0.116 C 
ATOM      3  C   UNL     1       1.797  -3.160   0.001  0.00  0.00    +0.055 C 
ATOM      4  C   UNL     1       1.477  -3.730   1.359  0.00  0.00    -0.016 A 
ATOM      5  C   UNL     1       2.381  -3.977   2.464  0.00  0.00    +0.003 A 
ATOM      6  C   UNL     1       3.757  -3.783   2.625  0.00  0.00    +0.010 A 
ATOM      7  C   UNL     1       4.296  -4.137   3.837  0.00  0.00    +0.001 A 
ATOM      8  C   UNL     1       3.524  -4.662   4.861  0.00  0.00    +0.002 A 
ATOM      9  C   UNL     1       2.161  -4.863   4.729  0.00  0.00    +0.026 A 
ATOM     10  C   UNL     1       1.586  -4.513   3.509  0.00  0.00    +0.047 A 
ATOM     11  N   UNL     1       0.302  -4.577   3.050  0.00  0.00    -0.356 N 
ATOM     12  H   UNL     1      -0.457  -4.904   3.559  0.00  0.00    +0.166 HD
ATOM     13  C   UNL     1       0.246  -4.109   1.765  0.00  0.00    +0.040 A 
ATOM     14  C   UNL     1      -0.983  -4.014   0.894  0.00  0.00    +0.130 C 
ENDROOT
BRANCH  14  15
ATOM     15  C   UNL     1      -2.112  -3.327   1.665  0.00  0.00    +0.014 C 
ATOM     16  C   UNL     1      -1.688  -1.902   2.028  0.00  0.00    +0.005 C 
ATOM     17  C   UNL     1      -2.818  -1.215   2.798  0.00  0.00    +0.000 C 
ATOM     18  C   UNL     1      -3.115  -2.001   4.077  0.00  0.00    +0.000 C 
ATOM     19  C   UNL     1      -3.538  -3.425   3.714  0.00  0.00    +0.000 C 
ATOM     20  C   UNL     1      -2.409  -4.112   2.943  0.00  0.00    +0.005 C 
ENDBRANCH  14  15
BRANCH   1  21
ATOM     21  S   UNL     1      -1.645  -2.037  -0.856  0.00  0.00    +0.098 S 
ATOM     22  O   UNL     1      -0.912  -0.820  -0.824  0.00  0.00    -0.141 OA
ATOM     23  O   UNL     1      -2.879  -2.200  -0.169  0.00  0.00    -0.141 OA
BRANCH  21  24
ATOM     24  N   UNL     1      -1.944  -2.367  -2.451  0.00  0.00    -0.177 NA
ATOM     25  H   UNL     1      -1.625  -1.763  -3.139  0.00  0.00    +0.149 HD
BRANCH  24  27
ATOM     26  C   UNL     1      -3.564  -3.275  -4.042  0.00  0.00    +0.025 C 
ATOM     27  C   UNL     1      -2.691  -3.572  -2.822  0.00  0.00    +0.071 C 
ATOM     28  C   UNL     1      -1.709  -4.697  -3.158  0.00  0.00    +0.025 C 
ENDBRANCH  24  27
ENDBRANCH  21  24
ENDBRANCH   1  21
TORSDOF 4
