REMARK  Name = ZINC39664909
REMARK  10 active torsions:
REMARK  status: ('A' for Active; 'I' for Inactive)
REMARK    1  A    between atoms: C_1  and  C_2
REMARK    2  A    between atoms: C_3  and  C_8
REMARK    3  A    between atoms: C_4  and  C_7
REMARK    4  A    between atoms: C_12  and  C_21
REMARK    5  A    between atoms: N_23  and  C_24
REMARK    6  A    between atoms: C_24  and  C_26
REMARK    7  A    between atoms: C_24  and  C_30
REMARK    8  A    between atoms: C_26  and  N_27
REMARK    9  A    between atoms: N_27  and  C_28
REMARK   10  A    between atoms: N_27  and  C_29
REMARK                            x       y       z     vdW  Elec       q    Type
REMARK                         _______ _______ _______ _____ _____    ______ ____
ROOT
ATOM      1  C   UNL     1       0.413   0.236  -3.336  0.00  0.00    +0.252 C 
ATOM      2  O   UNL     1       1.227   0.482  -4.205  0.00  0.00    -0.270 OA
ATOM      3  N   UNL     1      -0.905   0.280  -3.615  0.00  0.00    -0.296 N 
ATOM      4  C   UNL     1      -2.038   0.113  -2.675  0.00  0.00    +0.121 C 
ATOM      5  C   UNL     1      -3.085   1.151  -3.136  0.00  0.00    +0.100 C 
ATOM      6  C   UNL     1      -2.760   1.405  -4.617  0.00  0.00    -0.004 C 
ATOM      7  C   UNL     1      -1.549   0.514  -4.930  0.00  0.00    +0.115 C 
ATOM      8  C   UNL     1      -3.946   1.013  -5.493  0.00  0.00    -0.010 C 
ATOM      9  C   UNL     1      -3.620   1.329  -6.956  0.00  0.00    -0.082 C 
ATOM     10  N   UNL     1      -3.334   2.762  -7.097  0.00  0.00    +0.379 N 
ATOM     11  C   UNL     1      -2.136   3.112  -6.324  0.00  0.00    -0.082 C 
ATOM     12  C   UNL     1      -2.399   2.872  -4.835  0.00  0.00    -0.010 C 
ATOM     13  H   UNL     1      -3.180   2.978  -8.071  0.00  0.00    -0.086 HD
ATOM     14  H   UNL     1      -4.120   3.295  -6.757  0.00  0.00    -0.086 HD
ENDROOT
BRANCH   1  17
ATOM     15  C   UNL     1       1.019   2.323  -0.937  0.00  0.00    +0.070 C 
ATOM     16  C   UNL     1       1.145   0.822  -0.885  0.00  0.00    +0.093 A 
ATOM     17  C   UNL     1       0.868  -0.111  -1.978  0.00  0.00    +0.101 A 
ATOM     18  C   UNL     1       1.111  -1.366  -1.497  0.00  0.00    +0.147 A 
ATOM     19  O   UNL     1       1.505  -1.253  -0.226  0.00  0.00    -0.359 OA
ATOM     20  N   UNL     1       1.524   0.114   0.137  0.00  0.00    -0.083 NA
ATOM     21  C   UNL     1       0.963  -2.653  -2.266  0.00  0.00    +0.090 C 
ENDBRANCH   1  17
BRANCH   5  22
ATOM     22  C   UNL     1      -2.947   2.424  -2.340  0.00  0.00    +0.219 C 
ATOM     23  O   UNL     1      -1.868   2.741  -1.887  0.00  0.00    -0.275 OA
ATOM     24  N   UNL     1      -4.023   3.209  -2.133  0.00  0.00    -0.310 N 
ATOM     25  H   UNL     1      -4.896   2.928  -2.448  0.00  0.00    +0.149 HD
BRANCH  24  26
ATOM     26  C   UNL     1      -3.873   4.486  -1.431  0.00  0.00    +0.087 C 
BRANCH  26  27
ATOM     27  C   UNL     1      -4.786   5.511  -2.053  0.00  0.00    -0.029 A 
ATOM     28  C   UNL     1      -6.062   5.153  -2.445  0.00  0.00    +0.005 A 
ATOM     29  C   UNL     1      -6.899   6.093  -3.015  0.00  0.00    +0.000 A 
ATOM     30  C   UNL     1      -6.461   7.392  -3.193  0.00  0.00    +0.000 A 
ATOM     31  C   UNL     1      -5.185   7.750  -2.800  0.00  0.00    +0.000 A 
ATOM     32  C   UNL     1      -4.349   6.811  -2.226  0.00  0.00    +0.005 A 
ENDBRANCH  26  27
BRANCH  26  33
ATOM     33  C   UNL     1      -4.240   4.304   0.043  0.00  0.00    -0.052 C 
BRANCH  33  34
ATOM     34  N   UNL     1      -3.398   3.254   0.632  0.00  0.00    +0.377 N 
ATOM     35  C   UNL     1      -2.008   3.724   0.702  0.00  0.00    -0.097 C 
ATOM     36  C   UNL     1      -3.878   2.941   1.984  0.00  0.00    -0.097 C 
ATOM     37  H   UNL     1      -3.444   2.425   0.058  0.00  0.00    -0.083 HD
ENDBRANCH  33  34
ENDBRANCH  26  33
ENDBRANCH  24  26
ENDBRANCH   5  22
TORSDOF 6
