REMARK  Name = ZINC08748953
REMARK  10 active torsions:
REMARK  status: ('A' for Active; 'I' for Inactive)
REMARK    1  A    between atoms: C_1  and  C_2
REMARK    2  A    between atoms: C_2  and  N_53
REMARK    3  A    between atoms: C_3  and  C_4
REMARK    4  A    between atoms: C_3  and  N_53
REMARK    5  A    between atoms: N_6  and  C_7
REMARK    6  A    between atoms: C_7  and  C_8
REMARK    7  A    between atoms: C_15  and  N_16
REMARK    8  A    between atoms: C_15  and  N_53
REMARK    9  A    between atoms: N_19  and  C_29
REMARK   10  A    between atoms: C_20  and  C_22
REMARK                            x       y       z     vdW  Elec       q    Type
REMARK                         _______ _______ _______ _____ _____    ______ ____
ROOT
ATOM      1  N   UNL     1      -0.765  -6.021  -1.134  0.00  0.00    +0.398 N 
ATOM      2  H   UNL     1       0.192  -6.114  -1.493  0.00  0.00    -0.078 HD
ENDROOT
BRANCH   1   4
ATOM      3  C   UNL     1      -1.214  -5.252  -3.411  0.00  0.00    -0.017 C 
ATOM      4  C   UNL     1      -1.478  -4.997  -1.926  0.00  0.00    -0.079 C 
ENDBRANCH   1   4
BRANCH   1   5
ATOM      5  C   UNL     1      -1.453  -7.323  -1.256  0.00  0.00    +0.021 C 
BRANCH   5   6
ATOM      6  C   UNL     1      -0.494  -8.415  -0.856  0.00  0.00    +0.197 C 
ATOM      7  O   UNL     1       0.626  -8.132  -0.485  0.00  0.00    -0.278 OA
ATOM      8  N   UNL     1      -0.880  -9.705  -0.911  0.00  0.00    -0.313 N 
ATOM      9  H   UNL     1      -1.775  -9.931  -1.208  0.00  0.00    +0.149 HD
BRANCH   8  10
ATOM     10  C   UNL     1       0.052 -10.766  -0.522  0.00  0.00    +0.139 C 
BRANCH  10  11
ATOM     11  C   UNL     1      -0.620 -12.106  -0.674  0.00  0.00    -0.030 A 
ATOM     12  C   UNL     1      -1.316 -12.653   0.388  0.00  0.00    +0.006 A 
ATOM     13  C   UNL     1      -1.938 -13.880   0.248  0.00  0.00    +0.020 A 
ATOM     14  C   UNL     1      -1.854 -14.565  -0.951  0.00  0.00    +0.041 A 
ATOM     15  C   UNL     1      -1.153 -14.019  -2.011  0.00  0.00    +0.020 A 
ATOM     16  C   UNL     1      -0.536 -12.790  -1.872  0.00  0.00    +0.006 A 
ATOM     17 CL   UNL     1      -2.630 -16.108  -1.125  0.00  0.00    -0.084 Cl
ENDBRANCH  10  11
ENDBRANCH   8  10
ENDBRANCH   5   6
ENDBRANCH   1   5
BRANCH   1  18
ATOM     18  C   UNL     1      -0.707  -5.612   0.286  0.00  0.00    +0.072 C 
BRANCH  18  19
ATOM     19  N   UNL     1       0.159  -4.436   0.404  0.00  0.00    -0.257 N 
ATOM     20  C   UNL     1       1.493  -4.445   0.603  0.00  0.00    +0.176 A 
ATOM     21  S   UNL     1       2.481  -5.833   0.764  0.00  0.00    -0.011 S 
ATOM     22  N   UNL     1       1.907  -3.163   0.648  0.00  0.00    -0.306 N 
ATOM     23  C   UNL     1       0.807  -2.346   0.481  0.00  0.00    +0.164 A 
ATOM     24  N   UNL     1      -0.248  -3.097   0.330  0.00  0.00    -0.152 NA
ATOM     25  C   UNL     1       3.288  -2.714   0.843  0.00  0.00    +0.153 C 
BRANCH  23  26
ATOM     26  C   UNL     1       0.823  -0.866   0.469  0.00  0.00    +0.037 A 
ATOM     27  C   UNL     1       1.500  -0.165   1.466  0.00  0.00    +0.013 A 
ATOM     28  C   UNL     1       1.512   1.215   1.450  0.00  0.00    +0.001 A 
ATOM     29  C   UNL     1       0.853   1.903   0.446  0.00  0.00    +0.001 A 
ATOM     30  C   UNL     1       0.180   1.215  -0.546  0.00  0.00    +0.021 A 
ATOM     31  C   UNL     1       0.161  -0.166  -0.541  0.00  0.00    +0.052 A 
ATOM     32 CL   UNL     1      -0.684  -1.029  -1.788  0.00  0.00    -0.083 Cl
ENDBRANCH  23  26
ENDBRANCH  18  19
ENDBRANCH   1  18
TORSDOF 8
