REMARK  Name = ZINC66967261
REMARK  10 active torsions:
REMARK  status: ('A' for Active; 'I' for Inactive)
REMARK    1  A    between atoms: C_1  and  C_2
REMARK    2  A    between atoms: C_2  and  C_3
REMARK    3  A    between atoms: C_3  and  C_4
REMARK    4  A    between atoms: C_4  and  N_5
REMARK    5  A    between atoms: C_11  and  N_14
REMARK    6  A    between atoms: N_14  and  C_15
REMARK    7  A    between atoms: C_15  and  C_17
REMARK    8  A    between atoms: C_15  and  C_18
REMARK    9  A    between atoms: N_20  and  C_21
REMARK   10  A    between atoms: C_22  and  C_26
REMARK                            x       y       z     vdW  Elec       q    Type
REMARK                         _______ _______ _______ _____ _____    ______ ____
ROOT
ATOM      1  N   UNL     1       0.376  -6.839   2.336  0.00  0.00    -0.333 N 
ATOM      2  H   UNL     1       1.173  -6.675   1.808  0.00  0.00    +0.147 HD
ENDROOT
BRANCH   1   9
ATOM      3  N   UNL     1       1.473  -2.527   2.423  0.00  0.00    +0.385 N 
ATOM      4  C   UNL     1       0.671  -2.283   3.643  0.00  0.00    -0.042 C 
ATOM      5  C   UNL     1      -0.164  -3.528   3.839  0.00  0.00    -0.061 A 
ATOM      6  C   UNL     1      -1.300  -3.766   4.591  0.00  0.00    +0.002 A 
ATOM      7  C   UNL     1      -1.880  -5.021   4.596  0.00  0.00    +0.002 A 
ATOM      8  C   UNL     1      -1.327  -6.043   3.849  0.00  0.00    +0.023 A 
ATOM      9  C   UNL     1      -0.186  -5.808   3.092  0.00  0.00    +0.029 A 
ATOM     10  C   UNL     1       0.395  -4.547   3.089  0.00  0.00    -0.042 A 
ATOM     11  C   UNL     1       1.612  -4.001   2.379  0.00  0.00    -0.040 C 
ATOM     12  H   UNL     1       2.379  -2.088   2.499  0.00  0.00    -0.081 HD
BRANCH   3  13
ATOM     13  C   UNL     1       0.763  -2.041   1.233  0.00  0.00    -0.078 C 
BRANCH  13  14
ATOM     14  C   UNL     1       0.742  -0.511   1.242  0.00  0.00    -0.019 C 
BRANCH  14  16
ATOM     15  C   UNL     1      -0.019   1.526   0.010  0.00  0.00    +0.004 C 
ATOM     16  C   UNL     1       0.002  -0.004   0.002  0.00  0.00    -0.005 C 
ENDBRANCH  14  16
ENDBRANCH  13  14
ENDBRANCH   3  13
ENDBRANCH   1   9
BRANCH   1  17
ATOM     17  C   UNL     1      -0.238  -8.170   2.341  0.00  0.00    +0.154 C 
ATOM     18  C   UNL     1       0.280  -8.966   3.541  0.00  0.00    +0.038 C 
BRANCH  17  19
ATOM     19  C   UNL     1       0.119  -8.892   1.067  0.00  0.00    +0.238 C 
ATOM     20  O   UNL     1       0.817  -8.349   0.237  0.00  0.00    -0.273 OA
ATOM     21  N   UNL     1      -0.338 -10.141   0.851  0.00  0.00    -0.278 N 
ATOM     22  H   UNL     1      -0.896 -10.576   1.514  0.00  0.00    +0.155 HD
BRANCH  21  23
ATOM     23  C   UNL     1      -0.009 -10.806  -0.321  0.00  0.00    +0.084 A 
ATOM     24  C   UNL     1      -0.390 -12.081  -0.714  0.00  0.00    +0.065 A 
ATOM     25  C   UNL     1       0.098 -12.535  -1.996  0.00  0.00    +0.022 A 
ATOM     26  C   UNL     1       0.871 -11.664  -2.671  0.00  0.00    +0.048 A 
ATOM     27  S   UNL     1       0.933 -10.250  -1.593  0.00  0.00    -0.081 S 
BRANCH  24  28
ATOM     28  C   UNL     1      -1.242 -12.925   0.130  0.00  0.00    +0.244 C 
ATOM     29  O   UNL     1      -1.634 -12.512   1.205  0.00  0.00    -0.270 OA
ATOM     30  N   UNL     1      -1.590 -14.159  -0.286  0.00  0.00    -0.325 N 
ATOM     31  H   UNL     1      -1.277 -14.489  -1.143  0.00  0.00    +0.145 HD
ATOM     32  H   UNL     1      -2.154 -14.718   0.272  0.00  0.00    +0.145 HD
ENDBRANCH  24  28
ENDBRANCH  21  23
ENDBRANCH  17  19
ENDBRANCH   1  17
TORSDOF 8
