REMARK  Name = ZINC08846197
REMARK  8 active torsions:
REMARK  status: ('A' for Active; 'I' for Inactive)
REMARK    1  A    between atoms: C_1  and  O_2
REMARK    2  A    between atoms: O_2  and  C_3
REMARK    3  A    between atoms: C_7  and  C_9
REMARK    4  A    between atoms: C_10  and  C_20
REMARK    5  A    between atoms: N_12  and  C_14
REMARK    6  A    between atoms: C_25  and  N_34
REMARK    7  A    between atoms: C_29  and  N_33
REMARK    8  A    between atoms: C_30  and  C_31
REMARK                            x       y       z     vdW  Elec       q    Type
REMARK                         _______ _______ _______ _____ _____    ______ ____
ROOT
ATOM      1  C   UNL     1       1.228   1.824   0.000  0.00  0.00    +0.097 A 
ATOM      2  C   UNL     1       2.076   0.699  -0.014  0.00  0.00    +0.011 A 
ATOM      3  C   UNL     1       1.300  -0.407  -0.013  0.00  0.00    +0.119 A 
ATOM      4  N   UNL     1       0.002  -0.004   0.002  0.00  0.00    -0.239 N 
ATOM      5  N   UNL     1      -0.017   1.397   0.010  0.00  0.00    -0.166 NA
ENDROOT
BRANCH   2   6
ATOM      6  C   UNL     1       3.583   0.724  -0.028  0.00  0.00    +0.101 C 
ATOM      7  C   UNL     1       4.082   0.034  -1.270  0.00  0.00    +0.008 A 
ATOM      8  C   UNL     1       4.019   0.693  -2.486  0.00  0.00    +0.010 A 
ATOM      9  C   UNL     1       4.471   0.078  -3.635  0.00  0.00    +0.023 A 
ATOM     10  C   UNL     1       4.992  -1.209  -3.575  0.00  0.00    +0.028 A 
ATOM     11  C   UNL     1       5.056  -1.871  -2.358  0.00  0.00    +0.069 A 
ATOM     12  C   UNL     1       4.601  -1.250  -1.203  0.00  0.00    +0.136 A 
ATOM     13  O   UNL     1       4.670  -1.911  -0.021  0.00  0.00    -0.441 OA
ATOM     14  C   UNL     1       4.608  -1.228   1.134  0.00  0.00    +0.199 C 
ATOM     15  C   UNL     1       4.104   0.024   1.196  0.00  0.00    +0.098 C 
BRANCH  14  16
ATOM     16  N   UNL     1       5.070  -1.819   2.283  0.00  0.00    -0.328 N 
ATOM     17  H   UNL     1       5.434  -2.718   2.253  0.00  0.00    +0.145 HD
ATOM     18  H   UNL     1       5.032  -1.339   3.125  0.00  0.00    +0.145 HD
ENDBRANCH  14  16
BRANCH  10  19
ATOM     19  N   UNL     1       5.450  -1.834  -4.737  0.00  0.00    -0.358 N 
ATOM     20  H   UNL     1       5.814  -2.732  -4.694  0.00  0.00    +0.142 HD
ATOM     21  H   UNL     1       5.405  -1.370  -5.587  0.00  0.00    +0.142 HD
ENDBRANCH  10  19
BRANCH  15  22
ATOM     22  C   UNL     1       4.066   0.698   2.459  0.00  0.00    +0.101 C 
ATOM     23  N   UNL     1       4.035   1.232   3.461  0.00  0.00    -0.191 NA
ENDBRANCH  15  22
ENDBRANCH   2   6
BRANCH   1  28
ATOM     24  C   UNL     1       1.328   5.526  -0.668  0.00  0.00    +0.121 A 
ATOM     25  C   UNL     1       2.481   5.891   0.013  0.00  0.00    +0.045 A 
ATOM     26  C   UNL     1       3.222   4.938   0.687  0.00  0.00    +0.004 A 
ATOM     27  C   UNL     1       2.819   3.617   0.686  0.00  0.00    +0.010 A 
ATOM     28  C   UNL     1       1.663   3.242   0.004  0.00  0.00    +0.006 A 
ATOM     29  C   UNL     1       0.920   4.202  -0.680  0.00  0.00    +0.055 A 
BRANCH  24  31
ATOM     30  C   UNL     1       1.085   7.810  -1.280  0.00  0.00    +0.277 C 
ATOM     31  O   UNL     1       0.603   6.466  -1.329  0.00  0.00    -0.495 OA
ENDBRANCH  24  31
ENDBRANCH   1  28
BRANCH   4  32
ATOM     32  C   UNL     1      -1.120  -0.843   0.008  0.00  0.00    +0.065 A 
ATOM     33  C   UNL     1      -0.958  -2.222  -0.007  0.00  0.00    +0.028 A 
ATOM     34  C   UNL     1      -2.067  -3.046   0.003  0.00  0.00    +0.002 A 
ATOM     35  C   UNL     1      -3.337  -2.499   0.018  0.00  0.00    +0.000 A 
ATOM     36  C   UNL     1      -3.501  -1.126   0.028  0.00  0.00    +0.002 A 
ATOM     37  C   UNL     1      -2.397  -0.297   0.023  0.00  0.00    +0.028 A 
ENDBRANCH   4  32
TORSDOF 7
