REMARK  Name = ZINC60341867
REMARK  10 active torsions:
REMARK  status: ('A' for Active; 'I' for Inactive)
REMARK    1  A    between atoms: C_1  and  C_2
REMARK    2  A    between atoms: C_2  and  N_3
REMARK    3  A    between atoms: C_6  and  C_13
REMARK    4  A    between atoms: C_8  and  C_10
REMARK    5  A    between atoms: N_15  and  C_16
REMARK    6  A    between atoms: C_16  and  C_17
REMARK    7  A    between atoms: C_17  and  C_18
REMARK    8  A    between atoms: C_17  and  C_19
REMARK    9  A    between atoms: C_17  and  N_20
REMARK   10  A    between atoms: C_24  and  C_27
REMARK                            x       y       z     vdW  Elec       q    Type
REMARK                         _______ _______ _______ _____ _____    ______ ____
ROOT
ATOM      1  N   UNL     1       0.681   1.558  -2.450  0.00  0.00    -0.278 N 
ATOM      2  C   UNL     1       0.127   0.421  -3.012  0.00  0.00    +0.151 A 
ATOM      3  C   UNL     1       0.723  -0.115  -4.166  0.00  0.00    +0.094 A 
ATOM      4  C   UNL     1       0.178  -1.267  -4.754  0.00  0.00    +0.054 A 
ATOM      5  C   UNL     1      -0.948  -1.831  -4.151  0.00  0.00    +0.037 A 
ATOM      6  C   UNL     1      -1.475  -1.240  -3.014  0.00  0.00    +0.047 A 
ATOM      7  N   UNL     1      -0.940  -0.157  -2.486  0.00  0.00    -0.233 NA
ATOM      8  C   UNL     1       1.910   0.558  -4.723  0.00  0.00    +0.264 A 
ATOM      9  O   UNL     1       2.460   0.131  -5.719  0.00  0.00    -0.267 OA
ATOM     10  N   UNL     1       2.370   1.662  -4.095  0.00  0.00    -0.274 N 
ATOM     11  H   UNL     1       3.151   2.120  -4.445  0.00  0.00    +0.173 HD
ATOM     12  C   UNL     1       1.762   2.139  -2.997  0.00  0.00    +0.331 A 
ATOM     13  O   UNL     1       2.212   3.139  -2.472  0.00  0.00    -0.246 OA
ENDROOT
BRANCH   4  14
ATOM     14  C   UNL     1       0.777  -1.864  -5.971  0.00  0.00    +0.245 C 
ATOM     15  O   UNL     1       1.967  -2.109  -6.006  0.00  0.00    -0.270 OA
ATOM     16  N   UNL     1       0.002  -2.135  -7.040  0.00  0.00    -0.313 N 
ATOM     17  H   UNL     1      -0.948  -1.939  -7.013  0.00  0.00    +0.149 HD
BRANCH  16  18
ATOM     18  C   UNL     1       0.594  -2.724  -8.244  0.00  0.00    +0.092 C 
BRANCH  18  19
ATOM     19  C   UNL     1      -0.470  -2.823  -9.339  0.00  0.00    -0.055 C 
ATOM     20  C   UNL     1      -0.947  -1.419  -9.715  0.00  0.00    -0.008 C 
ATOM     21  C   UNL     1       0.129  -3.505 -10.571  0.00  0.00    -0.008 C 
BRANCH  19  22
ATOM     22  N   UNL     1      -1.607  -3.612  -8.847  0.00  0.00    +0.384 N 
ATOM     23  C   UNL     1      -1.155  -4.969  -8.518  0.00  0.00    -0.078 C 
ATOM     24  C   UNL     1      -2.318  -5.770  -7.930  0.00  0.00    -0.018 C 
ATOM     25  C   UNL     1      -3.452  -5.843  -8.957  0.00  0.00    -0.001 C 
ATOM     26  C   UNL     1      -3.865  -4.421  -9.348  0.00  0.00    -0.031 C 
ATOM     27  C   UNL     1      -2.645  -3.670  -9.884  0.00  0.00    -0.075 C 
ATOM     28  C   UNL     1      -4.945  -4.483 -10.431  0.00  0.00    +0.005 C 
ATOM     29  H   UNL     1      -1.985  -3.175  -8.020  0.00  0.00    -0.081 HD
ENDBRANCH  19  22
ENDBRANCH  18  19
ENDBRANCH  16  18
ENDBRANCH   4  14
BRANCH   6  30
ATOM     30  C   UNL     1      -2.690  -1.850  -2.366  0.00  0.00    +0.038 C 
ATOM     31  C   UNL     1      -3.505  -2.848  -3.191  0.00  0.00    +0.010 C 
ATOM     32  C   UNL     1      -4.061  -1.449  -2.916  0.00  0.00    +0.010 C 
ENDBRANCH   6  30
BRANCH   1  34
ATOM     33  C   UNL     1      -0.987   3.158  -1.652  0.00  0.00    +0.027 C 
ATOM     34  C   UNL     1       0.079   2.138  -1.247  0.00  0.00    +0.125 C 
ENDBRANCH   1  34
TORSDOF 6
