REMARK  Name = ZINC66984985
REMARK  6 active torsions:
REMARK  status: ('A' for Active; 'I' for Inactive)
REMARK    1  A    between atoms: C_1  and  C_2
REMARK    2  A    between atoms: C_5  and  C_29
REMARK    3  A    between atoms: N_8  and  C_10
REMARK    4  A    between atoms: C_10  and  C_11
REMARK    5  A    between atoms: C_11  and  N_12
REMARK    6  A    between atoms: C_21  and  C_23
REMARK                            x       y       z     vdW  Elec       q    Type
REMARK                         _______ _______ _______ _____ _____    ______ ____
ROOT
ATOM      1  N   UNL     1       3.545  -2.062   3.966  0.00  0.00    -0.301 N 
ATOM      2  C   UNL     1       4.865  -1.794   4.011  0.00  0.00    +0.302 C 
ATOM      3  O   UNL     1       5.375  -1.105   3.148  0.00  0.00    -0.253 OA
ATOM      4  N   UNL     1       5.619  -2.288   5.013  0.00  0.00    -0.283 N 
ATOM      5  C   UNL     1       5.042  -3.217   5.995  0.00  0.00    +0.128 C 
ATOM      6  C   UNL     1       5.892  -4.494   6.020  0.00  0.00    +0.127 C 
ATOM      7  N   UNL     1       7.306  -4.114   6.149  0.00  0.00    -0.298 N 
ATOM      8  C   UNL     1       7.882  -3.185   5.167  0.00  0.00    +0.127 C 
ATOM      9  C   UNL     1       7.034  -1.913   5.139  0.00  0.00    +0.128 C 
ATOM     10  C   UNL     1       8.060  -4.609   7.151  0.00  0.00    +0.219 C 
ATOM     11  O   UNL     1       7.604  -5.452   7.894  0.00  0.00    -0.275 OA
ATOM     12  H   UNL     1       3.151  -2.669   4.611  0.00  0.00    +0.150 HD
ENDROOT
BRANCH  10  13
ATOM     13  C   UNL     1       9.470  -4.114   7.347  0.00  0.00    +0.075 C 
ATOM     14  C   UNL     1      10.372  -4.701   6.260  0.00  0.00    +0.013 C 
ATOM     15  C   UNL     1      11.804  -4.199   6.460  0.00  0.00    +0.001 C 
ATOM     16  C   UNL     1      12.311  -4.637   7.835  0.00  0.00    +0.000 C 
ATOM     17  C   UNL     1      11.408  -4.050   8.922  0.00  0.00    +0.001 C 
ATOM     18  C   UNL     1       9.977  -4.553   8.723  0.00  0.00    +0.013 C 
ENDBRANCH  10  13
BRANCH   1  19
ATOM     19  C   UNL     1       2.705  -1.437   2.941  0.00  0.00    +0.087 C 
BRANCH  19  20
ATOM     20  C   UNL     1       1.259  -1.906   3.110  0.00  0.00    -0.060 C 
BRANCH  20  26
ATOM     21  C   UNL     1      -0.448   2.353   1.402  0.00  0.00    +0.005 C 
ATOM     22  C   UNL     1      -0.420   0.839   1.179  0.00  0.00    -0.031 C 
ATOM     23  C   UNL     1      -1.850   0.293   1.197  0.00  0.00    +0.003 C 
ATOM     24  C   UNL     1      -1.806  -1.231   1.051  0.00  0.00    -0.031 C 
ATOM     25  C   UNL     1      -0.945  -1.821   2.171  0.00  0.00    -0.076 C 
ATOM     26  N   UNL     1       0.417  -1.279   2.083  0.00  0.00    +0.381 N 
ATOM     27  C   UNL     1       0.391   0.173   2.293  0.00  0.00    -0.076 C 
ATOM     28  C   UNL     1      -3.225  -1.795   1.146  0.00  0.00    +0.005 C 
ATOM     29  H   UNL     1       0.798  -1.478   1.170  0.00  0.00    -0.082 HD
ENDBRANCH  20  26
ENDBRANCH  19  20
ENDBRANCH   1  19
TORSDOF 4
