REMARK  Name = ZINC25612681
REMARK  4 active torsions:
REMARK  status: ('A' for Active; 'I' for Inactive)
REMARK    1  A    between atoms: N_7  and  C_15
REMARK    2  A    between atoms: C_15  and  C_16
REMARK    3  A    between atoms: C_16  and  C_17
REMARK    4  A    between atoms: N_19  and  N_20
REMARK                            x       y       z     vdW  Elec       q    Type
REMARK                         _______ _______ _______ _____ _____    ______ ____
ROOT
ATOM      1  C   UNL     1      -0.013   1.076   0.008  0.00  0.00    +0.002 A 
ATOM      2  C   UNL     1      -1.221   1.746   0.017  0.00  0.00    +0.001 A 
ATOM      3  C   UNL     1      -1.247   3.131   0.031  0.00  0.00    +0.017 A 
ATOM      4  C   UNL     1      -0.059   3.838   0.024  0.00  0.00    +0.034 A 
ATOM      5  C   UNL     1       1.165   3.166   0.008  0.00  0.00    +0.048 A 
ATOM      6  C   UNL     1       1.179   1.779   0.000  0.00  0.00    +0.024 A 
ATOM      7  N   UNL     1       2.366   3.884  -0.002  0.00  0.00    -0.298 N 
ATOM      8  C   UNL     1       2.508   5.075  -0.721  0.00  0.00    +0.048 A 
ATOM      9  C   UNL     1       3.699   5.364  -1.368  0.00  0.00    +0.024 A 
ATOM     10  C   UNL     1       3.832   6.545  -2.078  0.00  0.00    +0.002 A 
ATOM     11  C   UNL     1       2.784   7.442  -2.147  0.00  0.00    +0.001 A 
ATOM     12  C   UNL     1       1.589   7.164  -1.503  0.00  0.00    +0.017 A 
ATOM     13  C   UNL     1       1.451   5.986  -0.794  0.00  0.00    +0.034 A 
ATOM     14  S   UNL     1      -0.060   5.603   0.036  0.00  0.00    -0.086 S 
ENDROOT
BRANCH   7  15
ATOM     15  C   UNL     1       3.507   3.373   0.762  0.00  0.00    +0.120 C 
BRANCH  15  16
ATOM     16  C   UNL     1       4.341   2.447  -0.125  0.00  0.00    +0.116 C 
BRANCH  16  17
ATOM     17  C   UNL     1       5.515   1.922   0.660  0.00  0.00    +0.231 C 
ATOM     18  O   UNL     1       5.669   2.255   1.816  0.00  0.00    -0.274 OA
ATOM     19  N   UNL     1       6.394   1.082   0.079  0.00  0.00    -0.230 N 
ATOM     20  H   UNL     1       6.255   0.780  -0.970  0.00  0.00    +0.173 HD
BRANCH  19  21
ATOM     21  N   UNL     1       7.485   0.593   0.809  0.00  0.00    -0.195 N 
ATOM     22  C   UNL     1       7.637  -0.763   1.364  0.00  0.00    +0.228 C 
ATOM     23  C   UNL     1       8.992  -0.721   2.042  0.00  0.00    +0.240 C 
ATOM     24  O   UNL     1       9.540  -1.622   2.639  0.00  0.00    -0.274 OA
ATOM     25  N   UNL     1       9.460   0.527   1.843  0.00  0.00    -0.237 N 
ATOM     26  C   UNL     1       8.601   1.270   1.136  0.00  0.00    +0.325 C 
ATOM     27  O   UNL     1       8.805   2.427   0.827  0.00  0.00    -0.251 OA
ATOM     28  H   UNL     1      10.442   0.817   2.247  0.00  0.00    +0.159 HD
ENDBRANCH  19  21
ENDBRANCH  16  17
ENDBRANCH  15  16
ENDBRANCH   7  15
TORSDOF 4
