REMARK  Name = ZINC08939369
REMARK  6 active torsions:
REMARK  status: ('A' for Active; 'I' for Inactive)
REMARK    1  A    between atoms: C_1  and  C_2
REMARK    2  A    between atoms: N_11  and  C_15
REMARK    3  A    between atoms: C_15  and  C_16
REMARK    4  A    between atoms: N_18  and  C_19
REMARK    5  A    between atoms: C_19  and  C_21
REMARK    6  A    between atoms: C_19  and  C_22
REMARK                            x       y       z     vdW  Elec       q    Type
REMARK                         _______ _______ _______ _____ _____    ______ ____
ROOT
ATOM      1  C   UNL     1      -3.696   5.106  -0.537  0.00  0.00    +0.010 C 
ATOM      2  C   UNL     1      -5.051   4.622  -1.058  0.00  0.00    +0.018 C 
ATOM      3  C   UNL     1      -6.157   5.535  -0.524  0.00  0.00    +0.006 C 
ATOM      4  C   UNL     1      -7.514   5.039  -1.028  0.00  0.00    +0.000 C 
ATOM      5  C   UNL     1      -7.755   3.614  -0.526  0.00  0.00    +0.003 C 
ATOM      6  C   UNL     1      -6.655   2.693  -1.061  0.00  0.00    +0.035 C 
ATOM      7  C   UNL     1      -5.295   3.193  -0.587  0.00  0.00    +0.115 C 
ATOM      8  C   UNL     1      -4.197   2.280  -1.081  0.00  0.00    +0.247 C 
ATOM      9  O   UNL     1      -3.906   2.040  -2.234  0.00  0.00    -0.273 OA
ATOM     10  N   UNL     1      -3.608   1.789   0.029  0.00  0.00    -0.215 N 
ATOM     11  C   UNL     1      -4.185   2.260   1.141  0.00  0.00    +0.310 C 
ATOM     12  O   UNL     1      -3.834   1.958   2.265  0.00  0.00    -0.252 OA
ATOM     13  N   UNL     1      -5.197   3.109   0.876  0.00  0.00    -0.285 N 
ATOM     14  H   UNL     1      -5.753   3.571   1.523  0.00  0.00    +0.151 HD
ENDROOT
BRANCH  10  15
ATOM     15  C   UNL     1      -2.482   0.853   0.018  0.00  0.00    +0.213 C 
BRANCH  15  16
ATOM     16  C   UNL     1      -1.187   1.624   0.017  0.00  0.00    +0.231 C 
ATOM     17  O   UNL     1      -1.204   2.837   0.023  0.00  0.00    -0.274 OA
ATOM     18  N   UNL     1      -0.011   0.966   0.007  0.00  0.00    -0.307 N 
ATOM     19  H   UNL     1       0.002  -0.004   0.002  0.00  0.00    +0.149 HD
BRANCH  18  20
ATOM     20  C   UNL     1       1.248   1.716  -0.001  0.00  0.00    +0.107 C 
ATOM     21  C   UNL     1       1.635   2.077   1.435  0.00  0.00    +0.033 C 
BRANCH  20  22
ATOM     22  C   UNL     1       2.332   0.870  -0.616  0.00  0.00    +0.010 A 
ATOM     23  C   UNL     1       3.324   1.237  -1.464  0.00  0.00    +0.013 A 
ATOM     24  C   UNL     1       4.218   0.280  -1.905  0.00  0.00    +0.008 A 
ATOM     25  C   UNL     1       4.076  -0.999  -1.477  0.00  0.00    +0.045 A 
ATOM     26  S   UNL     1       2.649  -0.875  -0.412  0.00  0.00    -0.100 S 
ENDBRANCH  20  22
ENDBRANCH  18  20
ENDBRANCH  15  16
ENDBRANCH  10  15
TORSDOF 4
