REMARK  Name = ZINC13147893
REMARK  7 active torsions:
REMARK  status: ('A' for Active; 'I' for Inactive)
REMARK    1  A    between atoms: C_6  and  N_7
REMARK    2  A    between atoms: C_8  and  C_10
REMARK    3  A    between atoms: C_10  and  O_11
REMARK    4  A    between atoms: O_11  and  C_12
REMARK    5  A    between atoms: C_12  and  C_14
REMARK    6  A    between atoms: C_14  and  N_15
REMARK    7  A    between atoms: C_16  and  C_18
REMARK                            x       y       z     vdW  Elec       q    Type
REMARK                         _______ _______ _______ _____ _____    ______ ____
ROOT
ATOM      1  O   UNL     1      -8.500   0.978   2.544  0.00  0.00    -0.454 OA
ENDROOT
BRANCH   1   2
ATOM      2  C   UNL     1      -7.219   1.315   2.325  0.00  0.00    +0.325 C 
ATOM      3  O   UNL     1      -6.631   2.006   3.123  0.00  0.00    -0.249 OA
BRANCH   2   4
ATOM      4  C   UNL     1      -6.515   0.833   1.083  0.00  0.00    +0.224 C 
BRANCH   4   5
ATOM      5  N   UNL     1      -5.138   1.332   1.077  0.00  0.00    -0.304 N 
ATOM      6  C   UNL     1      -4.314   1.025   0.056  0.00  0.00    +0.220 C 
ATOM      7  O   UNL     1      -4.712   0.334  -0.858  0.00  0.00    -0.275 OA
ATOM      8  H   UNL     1      -4.819   1.885   1.808  0.00  0.00    +0.149 HD
BRANCH   6   9
ATOM      9  C   UNL     1      -2.897   1.539   0.050  0.00  0.00    +0.048 C 
ATOM     10  C   UNL     1      -2.182   1.049  -1.211  0.00  0.00    +0.019 C 
ATOM     11  C   UNL     1      -0.744   1.571  -1.217  0.00  0.00    -0.009 C 
ATOM     12  C   UNL     1      -0.008   1.053   0.021  0.00  0.00    +0.007 C 
ATOM     13  C   UNL     1      -0.723   1.544   1.281  0.00  0.00    -0.009 C 
ATOM     14  C   UNL     1      -2.161   1.021   1.288  0.00  0.00    +0.019 C 
ATOM     15  C   UNL     1      -0.736   3.073   1.298  0.00  0.00    +0.007 C 
ATOM     16  C   UNL     1      -1.472   3.591   0.061  0.00  0.00    -0.009 C 
ATOM     17  C   UNL     1      -0.756   3.101  -1.200  0.00  0.00    +0.007 C 
ATOM     18  C   UNL     1      -2.910   3.069   0.067  0.00  0.00    +0.019 C 
ENDBRANCH   6   9
ENDBRANCH   4   5
ENDBRANCH   2   4
ENDBRANCH   1   2
BRANCH   1  19
ATOM     19  C   UNL     1      -9.114   1.479   3.760  0.00  0.00    +0.328 C 
BRANCH  19  21
ATOM     20  N   UNL     1     -11.313   1.346   4.885  0.00  0.00    -0.283 N 
ATOM     21  C   UNL     1     -10.542   1.002   3.835  0.00  0.00    +0.255 C 
ATOM     22  O   UNL     1     -10.996   0.308   2.950  0.00  0.00    -0.272 OA
ATOM     23  H   UNL     1     -10.931   1.844   5.625  0.00  0.00    +0.155 HD
BRANCH  20  29
ATOM     24  C   UNL     1     -13.602   1.834   5.487  0.00  0.00    +0.025 A 
ATOM     25  C   UNL     1     -14.938   1.486   5.508  0.00  0.00    +0.029 A 
ATOM     26  C   UNL     1     -15.347   0.280   4.961  0.00  0.00    +0.067 A 
ATOM     27  C   UNL     1     -14.409  -0.579   4.385  0.00  0.00    +0.069 A 
ATOM     28  C   UNL     1     -13.070  -0.224   4.360  0.00  0.00    +0.051 A 
ATOM     29  C   UNL     1     -12.666   0.984   4.909  0.00  0.00    +0.036 A 
ATOM     30  N   UNL     1     -15.110  -1.693   3.928  0.00  0.00    -0.306 N 
ATOM     31  H   UNL     1     -14.724  -2.462   3.481  0.00  0.00    +0.170 HD
ATOM     32  C   UNL     1     -16.414  -1.520   4.214  0.00  0.00    +0.325 A 
ATOM     33  O   UNL     1     -17.300  -2.312   3.949  0.00  0.00    -0.247 OA
ATOM     34  N   UNL     1     -16.590  -0.340   4.837  0.00  0.00    -0.306 N 
ATOM     35  H   UNL     1     -17.437   0.018   5.147  0.00  0.00    +0.170 HD
ENDBRANCH  20  29
ENDBRANCH  19  21
ENDBRANCH   1  19
TORSDOF 7
