REMARK  Name = ZINC04653037
REMARK  7 active torsions:
REMARK  status: ('A' for Active; 'I' for Inactive)
REMARK    1  A    between atoms: C_1  and  C_2
REMARK    2  A    between atoms: C_4  and  C_29
REMARK    3  A    between atoms: C_4  and  C_30
REMARK    4  A    between atoms: C_9  and  O_27
REMARK    5  A    between atoms: C_22  and  N_26
REMARK    6  A    between atoms: C_23  and  C_24
REMARK    7  A    between atoms: O_27  and  C_28
REMARK                            x       y       z     vdW  Elec       q    Type
REMARK                         _______ _______ _______ _____ _____    ______ ____
ROOT
ATOM      1  C   UNL     1      -0.018   1.503   0.010  0.00  0.00    +0.044 C 
ATOM      2  C   UNL     1       0.002  -0.004   0.002  0.00  0.00    -0.043 C 
ATOM      3  C   UNL     1       0.005  -0.658  -1.148  0.00  0.00    +0.002 C 
ATOM      4  C   UNL     1       0.025  -2.145  -1.329  0.00  0.00    +0.055 C 
ATOM      5  N   UNL     1       0.043  -2.845  -0.039  0.00  0.00    -0.260 N 
ATOM      6  C   UNL     1       0.038  -2.147   1.163  0.00  0.00    +0.050 A 
ATOM      7  C   UNL     1       0.024  -0.744   1.271  0.00  0.00    +0.003 A 
ATOM      8  C   UNL     1       0.027  -0.215   2.551  0.00  0.00    +0.055 A 
ATOM      9  C   UNL     1       0.050  -1.057   3.657  0.00  0.00    +0.121 A 
ATOM     10  C   UNL     1       0.071  -2.451   3.541  0.00  0.00    +0.052 A 
ATOM     11  C   UNL     1       0.056  -2.982   2.269  0.00  0.00    +0.003 A 
ATOM     12  C   UNL     1       0.075  -4.365   1.706  0.00  0.00    +0.149 C 
ATOM     13  C   UNL     1       0.064  -4.170   0.199  0.00  0.00    +0.241 C 
ATOM     14  O   UNL     1       0.073  -5.049  -0.637  0.00  0.00    -0.273 OA
ATOM     15  C   UNL     1       1.274  -5.133   2.130  0.00  0.00    +0.079 A 
ATOM     16  C   UNL     1       1.278  -6.212   2.966  0.00  0.00    +0.236 A 
ATOM     17  N   UNL     1       2.478  -6.732   3.199  0.00  0.00    -0.190 NA
ATOM     18  C   UNL     1       3.568  -6.231   2.655  0.00  0.00    +0.160 A 
ATOM     19  N   UNL     1       4.878  -6.660   2.802  0.00  0.00    -0.337 N 
ATOM     20  S   UNL     1       2.986  -4.941   1.739  0.00  0.00    -0.052 S 
ATOM     21  O   UNL     1       0.086  -6.659   3.484  0.00  0.00    -0.422 OA
ATOM     22  C   UNL     1      -1.060  -6.199   2.956  0.00  0.00    +0.201 C 
ATOM     23  C   UNL     1      -1.155  -5.135   2.122  0.00  0.00    +0.111 C 
ATOM     24  C   UNL     1      -1.220  -2.570  -2.111  0.00  0.00    +0.036 C 
ATOM     25  C   UNL     1       1.271  -2.536  -2.127  0.00  0.00    +0.036 C 
ATOM     26  H   UNL     1       5.078  -7.424   3.366  0.00  0.00    +0.144 HD
ATOM     27  H   UNL     1       5.595  -6.197   2.341  0.00  0.00    +0.144 HD
ENDROOT
BRANCH  22  28
ATOM     28  N   UNL     1      -2.220  -6.853   3.286  0.00  0.00    -0.328 N 
ATOM     29  H   UNL     1      -2.193  -7.619   3.881  0.00  0.00    +0.145 HD
ATOM     30  H   UNL     1      -3.068  -6.550   2.925  0.00  0.00    +0.145 HD
ENDBRANCH  22  28
BRANCH  23  31
ATOM     31  C   UNL     1      -2.439  -4.737   1.629  0.00  0.00    +0.102 C 
ATOM     32  N   UNL     1      -3.457  -4.420   1.237  0.00  0.00    -0.191 NA
ENDBRANCH  23  31
BRANCH   9  33
ATOM     33  O   UNL     1       0.053  -0.504   4.899  0.00  0.00    -0.495 OA
ATOM     34  C   UNL     1       0.032   0.923   4.974  0.00  0.00    +0.277 C 
ENDBRANCH   9  33
TORSDOF 3
