REMARK  Name = ZINC26287368
REMARK  5 active torsions:
REMARK  status: ('A' for Active; 'I' for Inactive)
REMARK    1  A    between atoms: C_4  and  S_7
REMARK    2  A    between atoms: S_7  and  N_10
REMARK    3  A    between atoms: N_18  and  C_19
REMARK    4  A    between atoms: C_19  and  C_20
REMARK    5  A    between atoms: C_20  and  C_21
REMARK                            x       y       z     vdW  Elec       q    Type
REMARK                         _______ _______ _______ _____ _____    ______ ____
ROOT
ATOM      1  N   UNL     1       4.380  -1.075   1.536  0.00  0.00    -0.174 NA
ATOM      2  C   UNL     1       5.189  -0.077   2.250  0.00  0.00    +0.128 C 
ATOM      3  C   UNL     1       4.450   0.326   3.532  0.00  0.00    +0.126 C 
ATOM      4  N   UNL     1       4.042  -0.895   4.242  0.00  0.00    -0.283 N 
ATOM      5  C   UNL     1       3.233  -1.893   3.528  0.00  0.00    +0.126 C 
ATOM      6  C   UNL     1       3.967  -2.293   2.247  0.00  0.00    +0.128 C 
ATOM      7  C   UNL     1       4.403  -1.096   5.525  0.00  0.00    +0.302 C 
ATOM      8  O   UNL     1       5.150  -0.311   6.076  0.00  0.00    -0.253 OA
ATOM      9  N   UNL     1       3.936  -2.166   6.197  0.00  0.00    -0.299 N 
ATOM     10  H   UNL     1       3.398  -2.831   5.737  0.00  0.00    +0.150 HD
ENDROOT
BRANCH   1  11
ATOM     11  S   UNL     1       3.937  -0.828  -0.041  0.00  0.00    +0.061 S 
ATOM     12  O   UNL     1       3.683  -2.111  -0.597  0.00  0.00    -0.153 OA
ATOM     13  O   UNL     1       4.890   0.068  -0.596  0.00  0.00    -0.153 OA
BRANCH  11  17
ATOM     14  C   UNL     1      -0.022   1.367   0.009  0.00  0.00    +0.000 A 
ATOM     15  C   UNL     1       1.163   2.079   0.003  0.00  0.00    +0.002 A 
ATOM     16  C   UNL     1       2.372   1.409  -0.012  0.00  0.00    +0.028 A 
ATOM     17  C   UNL     1       2.396   0.026  -0.021  0.00  0.00    +0.105 A 
ATOM     18  C   UNL     1       1.211  -0.685  -0.013  0.00  0.00    +0.028 A 
ATOM     19  C   UNL     1       0.002  -0.015   0.000  0.00  0.00    +0.002 A 
ENDBRANCH  11  17
ENDBRANCH   1  11
BRANCH   9  20
ATOM     20  C   UNL     1       4.239  -2.327   7.621  0.00  0.00    +0.112 C 
BRANCH  20  21
ATOM     21  C   UNL     1       3.594  -3.615   8.137  0.00  0.00    +0.076 C 
BRANCH  21  22
ATOM     22  C   UNL     1       3.906  -3.780   9.603  0.00  0.00    +0.062 A 
ATOM     23  C   UNL     1       2.997  -3.952  10.587  0.00  0.00    +0.116 A 
ATOM     24  N   UNL     1       3.690  -4.061  11.762  0.00  0.00    -0.306 N 
ATOM     25  C   UNL     1       3.292  -4.245  13.055  0.00  0.00    +0.092 A 
ATOM     26  C   UNL     1       4.202  -4.320  14.049  0.00  0.00    +0.018 A 
ATOM     27  C   UNL     1       5.573  -4.210  13.766  0.00  0.00    +0.005 A 
ATOM     28  C   UNL     1       5.983  -4.027  12.482  0.00  0.00    +0.047 A 
ATOM     29  C   UNL     1       5.021  -3.951  11.454  0.00  0.00    +0.138 A 
ATOM     30  N   UNL     1       5.127  -3.786  10.143  0.00  0.00    -0.233 NA
ENDBRANCH  21  22
ENDBRANCH  20  21
ENDBRANCH   9  20
TORSDOF 5
