REMARK  Name = ZINC26966930
REMARK  10 active torsions:
REMARK  status: ('A' for Active; 'I' for Inactive)
REMARK    1  A    between atoms: C_1  and  C_2
REMARK    2  A    between atoms: C_5  and  C_8
REMARK    3  A    between atoms: C_8  and  S_9
REMARK    4  A    between atoms: S_9  and  N_12
REMARK    5  A    between atoms: N_12  and  C_13
REMARK    6  A    between atoms: C_16  and  C_36
REMARK    7  A    between atoms: N_17  and  C_20
REMARK    8  A    between atoms: C_20  and  C_21
REMARK    9  A    between atoms: N_23  and  C_24
REMARK   10  A    between atoms: C_24  and  C_25
REMARK                            x       y       z     vdW  Elec       q    Type
REMARK                         _______ _______ _______ _____ _____    ______ ____
ROOT
ATOM      1  C   UNL     1       2.390   0.031  -0.020  0.00  0.00    +0.112 A 
ATOM      2  C   UNL     1       2.369   1.398  -0.013  0.00  0.00    +0.031 A 
ATOM      3  C   UNL     1       1.135   2.064   0.002  0.00  0.00    +0.023 A 
ATOM      4  C   UNL     1      -0.016   1.356   0.009  0.00  0.00    +0.020 A 
ATOM      5  N   UNL     1       0.002  -0.004   0.002  0.00  0.00    -0.302 N 
ATOM      6  C   UNL     1       1.169  -0.677  -0.012  0.00  0.00    +0.274 A 
ATOM      7  O   UNL     1       1.169  -1.898  -0.018  0.00  0.00    -0.266 OA
ATOM      8  C   UNL     1      -1.337   2.082   0.020  0.00  0.00    +0.063 C 
ENDROOT
BRANCH   1   9
ATOM      9  N   UNL     1       3.609  -0.659  -0.035  0.00  0.00    -0.215 N 
ATOM     10  H   UNL     1       3.618  -1.759  -0.041  0.00  0.00    +0.173 HD
BRANCH   9  11
ATOM     11  S   UNL     1       5.036   0.181  -0.044  0.00  0.00    +0.047 S 
ATOM     12  O   UNL     1       6.045  -0.819  -0.084  0.00  0.00    -0.155 OA
ATOM     13  O   UNL     1       4.900   1.115  -1.106  0.00  0.00    -0.155 OA
BRANCH  11  14
ATOM     14  C   UNL     1       5.077   1.047   1.549  0.00  0.00    +0.223 C 
BRANCH  14  19
ATOM     15  C   UNL     1       9.946   4.135   1.938  0.00  0.00    +0.044 C 
ATOM     16  C   UNL     1       8.676   3.330   1.837  0.00  0.00    -0.050 A 
ATOM     17  C   UNL     1       7.539   3.898   1.294  0.00  0.00    +0.003 A 
ATOM     18  C   UNL     1       6.374   3.160   1.201  0.00  0.00    +0.005 A 
ATOM     19  C   UNL     1       6.347   1.853   1.650  0.00  0.00    -0.025 A 
ATOM     20  C   UNL     1       7.483   1.286   2.197  0.00  0.00    +0.005 A 
ATOM     21  C   UNL     1       8.649   2.023   2.286  0.00  0.00    +0.003 A 
ENDBRANCH  14  19
ENDBRANCH  11  14
ENDBRANCH   9  11
ENDBRANCH   1   9
BRANCH   5  22
ATOM     22  C   UNL     1      -1.262  -0.745   0.010  0.00  0.00    +0.220 C 
BRANCH  22  23
ATOM     23  C   UNL     1      -1.708  -0.992  -1.408  0.00  0.00    +0.233 C 
ATOM     24  O   UNL     1      -1.037  -0.588  -2.334  0.00  0.00    -0.274 OA
ATOM     25  N   UNL     1      -2.854  -1.661  -1.647  0.00  0.00    -0.314 N 
ATOM     26  H   UNL     1      -3.462  -2.027  -0.807  0.00  0.00    +0.149 HD
BRANCH  25  27
ATOM     27  C   UNL     1      -3.288  -1.901  -3.025  0.00  0.00    +0.108 C 
BRANCH  27  28
ATOM     28  C   UNL     1      -4.608  -2.675  -3.017  0.00  0.00    +0.011 C 
ATOM     29  C   UNL     1      -5.124  -2.816  -4.450  0.00  0.00    +0.011 C 
ATOM     30  C   UNL     1      -6.572  -3.323  -4.432  0.00  0.00    +0.058 C 
ATOM     31  C   UNL     1      -6.633  -4.543  -3.546  0.00  0.00    +0.066 A 
ATOM     32  C   UNL     1      -5.629  -4.883  -2.624  0.00  0.00    -0.007 A 
ATOM     33  C   UNL     1      -5.997  -6.022  -2.009  0.00  0.00    +0.108 A 
ATOM     34  N   UNL     1      -7.193  -6.394  -2.517  0.00  0.00    -0.284 N 
ATOM     35  H   UNL     1      -7.686  -7.307  -2.152  0.00  0.00    +0.188 HD
ATOM     36  N   UNL     1      -7.569  -5.446  -3.481  0.00  0.00    -0.179 NA
ATOM     37  C   UNL     1      -4.380  -4.065  -2.409  0.00  0.00    +0.043 C 
ENDBRANCH  27  28
ENDBRANCH  25  27
ENDBRANCH  22  23
ENDBRANCH   5  22
TORSDOF 8
