REMARK  Name = ZINC02300422
REMARK  7 active torsions:
REMARK  status: ('A' for Active; 'I' for Inactive)
REMARK    1  A    between atoms: C_1  and  C_2
REMARK    2  A    between atoms: C_2  and  C_33
REMARK    3  A    between atoms: C_3  and  N_20
REMARK    4  A    between atoms: N_5  and  C_10
REMARK    5  A    between atoms: N_8  and  C_9
REMARK    6  A    between atoms: N_23  and  N_24
REMARK    7  A    between atoms: C_25  and  C_26
REMARK                            x       y       z     vdW  Elec       q    Type
REMARK                         _______ _______ _______ _____ _____    ______ ____
ROOT
ATOM      1  C   UNL     1      -5.774   4.104   1.150  0.00  0.00    +0.035 C 
ATOM      2  C   UNL     1      -4.521   4.859   0.701  0.00  0.00    +0.068 C 
ATOM      3  C   UNL     1      -3.253   4.179   1.252  0.00  0.00    +0.194 C 
ATOM      4  N   UNL     1      -2.514   3.781   0.045  0.00  0.00    -0.234 N 
ATOM      5  C   UNL     1      -3.205   4.158  -1.039  0.00  0.00    +0.311 C 
ATOM      6  O   UNL     1      -2.819   3.957  -2.174  0.00  0.00    -0.252 OA
ATOM      7  N   UNL     1      -4.361   4.773  -0.758  0.00  0.00    -0.280 N 
ATOM      8  C   UNL     1      -5.313   5.283  -1.748  0.00  0.00    +0.134 C 
ATOM      9  C   UNL     1      -4.586   6.320   1.151  0.00  0.00    +0.035 C 
ENDROOT
BRANCH   4  10
ATOM     10  C   UNL     1      -1.283   3.121   0.031  0.00  0.00    +0.047 A 
ATOM     11  C   UNL     1      -1.233   1.744   0.017  0.00  0.00    +0.024 A 
ATOM     12  C   UNL     1      -0.013   1.076   0.008  0.00  0.00    +0.002 A 
ATOM     13  C   UNL     1       1.164   1.762   0.000  0.00  0.00    +0.008 A 
ATOM     14  C   UNL     1       1.157   3.167   0.007  0.00  0.00    -0.016 A 
ATOM     15  C   UNL     1      -0.080   3.858   0.023  0.00  0.00    +0.004 A 
ATOM     16  C   UNL     1      -0.085   5.261   0.029  0.00  0.00    +0.010 A 
ATOM     17  C   UNL     1       1.095   5.940   0.021  0.00  0.00    +0.001 A 
ATOM     18  C   UNL     1       2.312   5.261   0.006  0.00  0.00    +0.001 A 
ATOM     19  C   UNL     1       2.356   3.901  -0.001  0.00  0.00    +0.008 A 
ENDBRANCH   4  10
BRANCH   3  20
ATOM     20  N   UNL     1      -3.606   3.002   2.050  0.00  0.00    -0.277 N 
ATOM     21  C   UNL     1      -2.952   2.746   3.200  0.00  0.00    +0.321 C 
ATOM     22  O   UNL     1      -2.068   3.493   3.576  0.00  0.00    -0.251 OA
ATOM     23  N   UNL     1      -3.277   1.664   3.934  0.00  0.00    -0.191 N 
ATOM     24  H   UNL     1      -4.311   2.407   1.750  0.00  0.00    +0.152 HD
ATOM     25  H   UNL     1      -2.806   1.480   4.762  0.00  0.00    +0.179 HD
BRANCH  23  26
ATOM     26  N   UNL     1      -4.295   0.804   3.501  0.00  0.00    -0.186 NA
ATOM     27  C   UNL     1      -4.608  -0.238   4.207  0.00  0.00    +0.138 C 
BRANCH  27  28
ATOM     28  C   UNL     1      -5.679  -1.144   3.752  0.00  0.00    -0.005 A 
ATOM     29  C   UNL     1      -6.363  -0.878   2.563  0.00  0.00    +0.011 A 
ATOM     30  C   UNL     1      -7.361  -1.731   2.140  0.00  0.00    +0.020 A 
ATOM     31  C   UNL     1      -7.692  -2.843   2.897  0.00  0.00    +0.041 A 
ATOM     32  C   UNL     1      -7.022  -3.109   4.079  0.00  0.00    +0.020 A 
ATOM     33  C   UNL     1      -6.018  -2.267   4.510  0.00  0.00    +0.011 A 
ATOM     34 CL   UNL     1      -8.954  -3.908   2.361  0.00  0.00    -0.084 Cl
ENDBRANCH  27  28
ENDBRANCH  23  26
ENDBRANCH   3  20
TORSDOF 4
