REMARK  Name = ZINC39606974
REMARK  9 active torsions:
REMARK  status: ('A' for Active; 'I' for Inactive)
REMARK    1  A    between atoms: C_1  and  C_2
REMARK    2  A    between atoms: C_2  and  C_3
REMARK    3  A    between atoms: C_3  and  C_5
REMARK    4  A    between atoms: C_3  and  C_6
REMARK    5  A    between atoms: C_10  and  C_19
REMARK    6  A    between atoms: N_21  and  C_22
REMARK    7  A    between atoms: C_22  and  C_23
REMARK    8  A    between atoms: C_26  and  C_30
REMARK    9  A    between atoms: C_28  and  C_29
REMARK                            x       y       z     vdW  Elec       q    Type
REMARK                         _______ _______ _______ _____ _____    ______ ____
ROOT
ATOM      1  C   UNL     1      -1.388  -2.149  -0.104  0.00  0.00    +0.218 C 
ATOM      2  O   UNL     1      -0.345  -2.752  -0.238  0.00  0.00    -0.275 OA
ATOM      3  N   UNL     1      -2.560  -2.813  -0.141  0.00  0.00    -0.300 N 
ATOM      4  C   UNL     1      -3.926  -2.253  -0.005  0.00  0.00    +0.121 C 
ATOM      5  C   UNL     1      -4.774  -3.039  -1.029  0.00  0.00    +0.100 C 
ATOM      6  C   UNL     1      -4.015  -4.361  -1.235  0.00  0.00    -0.004 C 
ATOM      7  C   UNL     1      -2.775  -4.267  -0.333  0.00  0.00    +0.115 C 
ATOM      8  C   UNL     1      -4.886  -5.542  -0.817  0.00  0.00    -0.010 C 
ATOM      9  C   UNL     1      -4.131  -6.847  -1.085  0.00  0.00    -0.082 C 
ATOM     10  N   UNL     1      -3.801  -6.939  -2.512  0.00  0.00    +0.379 N 
ATOM     11  C   UNL     1      -2.888  -5.852  -2.886  0.00  0.00    -0.082 C 
ATOM     12  C   UNL     1      -3.590  -4.504  -2.693  0.00  0.00    -0.010 C 
ATOM     13  H   UNL     1      -3.358  -7.827  -2.697  0.00  0.00    -0.086 HD
ATOM     14  H   UNL     1      -4.647  -6.868  -3.057  0.00  0.00    -0.086 HD
ENDROOT
BRANCH   5  15
ATOM     15  C   UNL     1      -6.151  -3.303  -0.478  0.00  0.00    +0.218 C 
ATOM     16  O   UNL     1      -6.307  -3.460   0.714  0.00  0.00    -0.275 OA
ATOM     17  N   UNL     1      -7.210  -3.365  -1.310  0.00  0.00    -0.311 N 
ATOM     18  H   UNL     1      -7.085  -3.239  -2.264  0.00  0.00    +0.149 HD
BRANCH  17  19
ATOM     19  C   UNL     1      -8.549  -3.621  -0.774  0.00  0.00    +0.139 C 
BRANCH  19  20
ATOM     20  C   UNL     1      -9.547  -3.640  -1.903  0.00  0.00    -0.027 A 
ATOM     21  C   UNL     1     -10.323  -2.525  -2.159  0.00  0.00    +0.006 A 
ATOM     22  C   UNL     1     -11.238  -2.543  -3.194  0.00  0.00    +0.004 A 
ATOM     23  C   UNL     1     -11.377  -3.675  -3.975  0.00  0.00    -0.050 A 
ATOM     24  C   UNL     1     -10.600  -4.790  -3.720  0.00  0.00    +0.007 A 
ATOM     25  C   UNL     1      -9.682  -4.771  -2.687  0.00  0.00    -0.046 A 
ATOM     26  C   UNL     1      -8.831  -5.984  -2.413  0.00  0.00    +0.044 C 
ATOM     27  C   UNL     1     -12.375  -3.695  -5.104  0.00  0.00    +0.044 C 
ENDBRANCH  19  20
ENDBRANCH  17  19
ENDBRANCH   5  15
BRANCH   1  28
ATOM     28  C   UNL     1      -1.374  -0.656   0.103  0.00  0.00    +0.072 C 
ATOM     29  C   UNL     1      -2.030  -0.321   1.444  0.00  0.00    +0.017 C 
BRANCH  28  31
ATOM     30  C   UNL     1       0.083   1.372   0.190  0.00  0.00    +0.004 C 
ATOM     31  C   UNL     1       0.072  -0.155   0.104  0.00  0.00    +0.009 C 
ENDBRANCH  28  31
ENDBRANCH   1  28
TORSDOF 5
