REMARK  Name = ZINC01574836
REMARK  13 active torsions:
REMARK  status: ('A' for Active; 'I' for Inactive)
REMARK    1  A    between atoms: C_1  and  C_2
REMARK    2  A    between atoms: C_7  and  O_30
REMARK    3  A    between atoms: C_8  and  O_28
REMARK    4  A    between atoms: C_9  and  O_27
REMARK    5  A    between atoms: C_14  and  O_21
REMARK    6  A    between atoms: C_15  and  O_19
REMARK    7  A    between atoms: C_16  and  O_17
REMARK    8  A    between atoms: O_17  and  C_18
REMARK    9  A    between atoms: O_19  and  C_20
REMARK   10  A    between atoms: O_21  and  C_22
REMARK   11  A    between atoms: C_24  and  C_26
REMARK   12  A    between atoms: O_28  and  C_29
REMARK   13  A    between atoms: O_30  and  C_31
REMARK                            x       y       z     vdW  Elec       q    Type
REMARK                         _______ _______ _______ _____ _____    ______ ____
ROOT
ATOM      1  C   UNL     1       4.107   6.435   0.703  0.00  0.00    +0.008 C 
ATOM      2  C   UNL     1       3.244   5.643   1.688  0.00  0.00    -0.007 C 
ATOM      3  C   UNL     1       2.802   4.336   1.032  0.00  0.00    +0.039 C 
ATOM      4  C   UNL     1       2.682   3.258   2.089  0.00  0.00    -0.032 A 
ATOM      5  C   UNL     1       3.803   2.630   2.580  0.00  0.00    +0.054 A 
ATOM      6  C   UNL     1       3.672   1.596   3.499  0.00  0.00    +0.165 A 
ATOM      7  C   UNL     1       2.408   1.198   3.920  0.00  0.00    +0.204 A 
ATOM      8  C   UNL     1       1.277   1.840   3.438  0.00  0.00    +0.170 A 
ATOM      9  C   UNL     1       1.409   2.891   2.521  0.00  0.00    +0.035 A 
ATOM     10  C   UNL     1       0.210   3.597   2.031  0.00  0.00    +0.035 A 
ATOM     11  C   UNL     1       0.071   4.974   2.204  0.00  0.00    -0.032 A 
ATOM     12  C   UNL     1      -1.013   5.645   1.688  0.00  0.00    +0.054 A 
ATOM     13  C   UNL     1      -1.999   4.946   1.003  0.00  0.00    +0.165 A 
ATOM     14  C   UNL     1      -1.887   3.570   0.839  0.00  0.00    +0.204 A 
ATOM     15  C   UNL     1      -0.787   2.893   1.346  0.00  0.00    +0.173 A 
ATOM     16  C   UNL     1       1.121   5.705   3.014  0.00  0.00    +0.039 C 
ATOM     17  C   UNL     1       2.035   6.484   2.084  0.00  0.00    -0.007 C 
ATOM     18  C   UNL     1       1.256   6.871   0.826  0.00  0.00    +0.008 C 
ENDROOT
BRANCH  15  19
ATOM     19  O   UNL     1      -0.682   1.547   1.184  0.00  0.00    -0.491 OA
ATOM     20  C   UNL     1      -0.013   1.086   0.008  0.00  0.00    +0.277 C 
ENDBRANCH  15  19
BRANCH  14  21
ATOM     21  O   UNL     1      -2.859   2.884   0.178  0.00  0.00    -0.488 OA
ATOM     22  C   UNL     1      -3.941   2.376   0.961  0.00  0.00    +0.277 C 
ENDBRANCH  14  21
BRANCH  13  23
ATOM     23  O   UNL     1      -3.071   5.607   0.492  0.00  0.00    -0.491 OA
ATOM     24  C   UNL     1      -3.121   7.020   0.698  0.00  0.00    +0.277 C 
ENDBRANCH  13  23
BRANCH   8  25
ATOM     25  O   UNL     1       0.043   1.450   3.854  0.00  0.00    -0.503 OA
ATOM     26  H   UNL     1      -0.357   0.760   3.307  0.00  0.00    +0.292 HD
ENDBRANCH   8  25
BRANCH   7  27
ATOM     27  O   UNL     1       2.280   0.176   4.809  0.00  0.00    -0.488 OA
ATOM     28  C   UNL     1       2.279   0.518   6.196  0.00  0.00    +0.277 C 
ENDBRANCH   7  27
BRANCH   6  29
ATOM     29  O   UNL     1       4.779   0.974   3.986  0.00  0.00    -0.491 OA
ATOM     30  C   UNL     1       6.045   1.435   3.509  0.00  0.00    +0.277 C 
ENDBRANCH   6  29
TORSDOF 6
