REMARK  Name = ZINC09385000
REMARK  14 active torsions:
REMARK  status: ('A' for Active; 'I' for Inactive)
REMARK    1  A    between atoms: C_1  and  C_2
REMARK    2  A    between atoms: C_7  and  C_9
REMARK    3  A    between atoms: C_7  and  C_10
REMARK    4  A    between atoms: N_13  and  C_17
REMARK    5  A    between atoms: C_17  and  C_18
REMARK    6  A    between atoms: C_18  and  O_20
REMARK    7  A    between atoms: O_20  and  C_21
REMARK    8  A    between atoms: C_21  and  C_22
REMARK    9  A    between atoms: N_24  and  C_25
REMARK   10  A    between atoms: C_25  and  C_26
REMARK   11  A    between atoms: C_25  and  C_27
REMARK   12  A    between atoms: C_25  and  C_29
REMARK   13  A    between atoms: C_29  and  C_30
REMARK   14  A    between atoms: C_29  and  C_31
REMARK                            x       y       z     vdW  Elec       q    Type
REMARK                         _______ _______ _______ _____ _____    ______ ____
ROOT
ATOM      1  C   UNL     1      -0.019   1.528   0.010  0.00  0.00    +0.007 C 
ATOM      2  C   UNL     1       0.002  -0.004   0.002  0.00  0.00    -0.011 C 
ATOM      3  C   UNL     1       0.726  -0.492  -1.255  0.00  0.00    +0.038 C 
ATOM      4  C   UNL     1       0.711  -2.014  -1.298  0.00  0.00    +0.113 C 
ATOM      5  C   UNL     1       1.264  -2.646  -0.036  0.00  0.00    +0.041 C 
ATOM      6  C   UNL     1       0.787  -2.030   1.268  0.00  0.00    -0.032 C 
ATOM      7  C   UNL     1       0.764  -0.507   1.226  0.00  0.00    +0.009 C 
ATOM      8  C   UNL     1      -0.596  -2.567   1.647  0.00  0.00    +0.011 C 
ATOM      9  C   UNL     1       1.769  -2.455   2.382  0.00  0.00    +0.011 C 
ATOM     10  C   UNL     1      -0.665  -2.529  -1.638  0.00  0.00    +0.247 C 
ATOM     11  O   UNL     1      -1.716  -2.282  -1.086  0.00  0.00    -0.273 OA
ATOM     12  N   UNL     1      -0.504  -3.320  -2.721  0.00  0.00    -0.213 N 
ATOM     13  C   UNL     1       0.750  -3.268  -3.183  0.00  0.00    +0.310 C 
ATOM     14  O   UNL     1       1.137  -3.883  -4.158  0.00  0.00    -0.252 OA
ATOM     15  N   UNL     1       1.532  -2.462  -2.446  0.00  0.00    -0.285 N 
ATOM     16  H   UNL     1       2.452  -2.214  -2.618  0.00  0.00    +0.151 HD
ENDROOT
BRANCH  12  17
ATOM     17  C   UNL     1      -1.571  -4.131  -3.313  0.00  0.00    +0.238 C 
BRANCH  17  18
ATOM     18  C   UNL     1      -2.293  -3.324  -4.361  0.00  0.00    +0.326 C 
ATOM     19  O   UNL     1      -1.951  -2.188  -4.590  0.00  0.00    -0.249 OA
BRANCH  18  20
ATOM     20  O   UNL     1      -3.315  -3.868  -5.040  0.00  0.00    -0.454 OA
BRANCH  20  21
ATOM     21  C   UNL     1      -3.954  -3.045  -6.019  0.00  0.00    +0.327 C 
BRANCH  21  22
ATOM     22  C   UNL     1      -5.069  -3.818  -6.674  0.00  0.00    +0.252 C 
ATOM     23  O   UNL     1      -5.295  -4.961  -6.336  0.00  0.00    -0.272 OA
ATOM     24  N   UNL     1      -5.816  -3.240  -7.636  0.00  0.00    -0.295 N 
ATOM     25  H   UNL     1      -5.635  -2.326  -7.907  0.00  0.00    +0.150 HD
BRANCH  24  26
ATOM     26  C   UNL     1      -6.900  -3.992  -8.273  0.00  0.00    +0.121 C 
ATOM     27  C   UNL     1      -6.327  -5.239  -8.949  0.00  0.00    +0.048 C 
BRANCH  26  28
ATOM     28  C   UNL     1      -7.584  -3.111  -9.321  0.00  0.00    +0.020 C 
ATOM     29  C   UNL     1      -8.632  -3.934 -10.072  0.00  0.00    +0.010 C 
ATOM     30  C   UNL     1      -8.263  -1.929  -8.628  0.00  0.00    +0.010 C 
ENDBRANCH  26  28
BRANCH  26  31
ATOM     31  C   UNL     1      -7.883  -4.394  -7.253  0.00  0.00    +0.088 C 
ATOM     32  N   UNL     1      -8.641  -4.705  -6.467  0.00  0.00    -0.194 NA
ENDBRANCH  26  31
ENDBRANCH  24  26
ENDBRANCH  21  22
ENDBRANCH  20  21
ENDBRANCH  18  20
ENDBRANCH  17  18
ENDBRANCH  12  17
TORSDOF 8
