REMARK  Name = ZINC61592642
REMARK  7 active torsions:
REMARK  status: ('A' for Active; 'I' for Inactive)
REMARK    1  A    between atoms: C_1  and  C_2
REMARK    2  A    between atoms: C_2  and  C_4
REMARK    3  A    between atoms: C_2  and  N_22
REMARK    4  A    between atoms: C_4  and  C_6
REMARK    5  A    between atoms: C_4  and  S_13
REMARK    6  A    between atoms: S_13  and  C_14
REMARK    7  A    between atoms: N_20  and  C_21
REMARK                            x       y       z     vdW  Elec       q    Type
REMARK                         _______ _______ _______ _____ _____    ______ ____
ROOT
ATOM      1  C   UNL     1       0.852  -0.517   1.167  0.00  0.00    +0.071 C 
ENDROOT
BRANCH   1   2
ATOM      2  C   UNL     1       1.070  -1.969   0.827  0.00  0.00    -0.022 A 
ATOM      3  C   UNL     1       2.186  -2.350   0.105  0.00  0.00    +0.006 A 
ATOM      4  C   UNL     1       2.386  -3.682  -0.206  0.00  0.00    +0.000 A 
ATOM      5  C   UNL     1       1.471  -4.633   0.204  0.00  0.00    +0.001 A 
ATOM      6  C   UNL     1       0.355  -4.253   0.926  0.00  0.00    +0.015 A 
ATOM      7  C   UNL     1       0.157  -2.921   1.242  0.00  0.00    +0.022 A 
ATOM      8 BR   UNL     1      -1.366  -2.401   2.235  0.00  0.00    -0.050 Br
ENDBRANCH   1   2
BRANCH   1  10
ATOM      9  C   UNL     1      -0.309   1.586   0.480  0.00  0.00    -0.013 C 
ATOM     10  C   UNL     1      -0.066   0.119   0.120  0.00  0.00    -0.060 C 
BRANCH  10  11
ATOM     11  N   UNL     1       0.569   0.038  -1.202  0.00  0.00    +0.381 N 
ATOM     12  H   UNL     1       0.730  -0.929  -1.439  0.00  0.00    -0.090 HD
ATOM     13  H   UNL     1      -0.036   0.458  -1.892  0.00  0.00    -0.090 HD
ATOM     14  H   UNL     1       1.450   0.530  -1.183  0.00  0.00    -0.090 HD
ENDBRANCH  10  11
ENDBRANCH   1  10
BRANCH   1  15
ATOM     15  S   UNL     1       2.446   0.348   1.178  0.00  0.00    -0.080 S 
BRANCH  15  16
ATOM     16  C   UNL     1       3.292  -0.335   2.565  0.00  0.00    +0.192 A 
ATOM     17  N   UNL     1       2.791  -1.182   3.418  0.00  0.00    -0.145 NA
ATOM     18  N   UNL     1       3.779  -1.478   4.367  0.00  0.00    -0.226 N 
ATOM     19  H   UNL     1       3.688  -2.080   5.122  0.00  0.00    +0.194 HD
ATOM     20  C   UNL     1       4.879  -0.770   4.038  0.00  0.00    +0.345 A 
ATOM     21  O   UNL     1       5.941  -0.771   4.635  0.00  0.00    -0.245 OA
ATOM     22  N   UNL     1       4.593  -0.066   2.925  0.00  0.00    -0.274 N 
ATOM     23  C   UNL     1       5.508   0.835   2.220  0.00  0.00    +0.156 C 
ENDBRANCH  15  16
ENDBRANCH   1  15
TORSDOF 5
