REMARK  Name = ZINC00804052
REMARK  6 active torsions:
REMARK  status: ('A' for Active; 'I' for Inactive)
REMARK    1  A    between atoms: C_1  and  O_2
REMARK    2  A    between atoms: O_2  and  C_3
REMARK    3  A    between atoms: C_6  and  C_9
REMARK    4  A    between atoms: C_16  and  N_30
REMARK    5  A    between atoms: C_17  and  C_28
REMARK    6  A    between atoms: C_18  and  C_20
REMARK                            x       y       z     vdW  Elec       q    Type
REMARK                         _______ _______ _______ _____ _____    ______ ____
ROOT
ATOM      1  C   UNL     1       2.576  -2.534   4.284  0.00  0.00    +0.074 A 
ATOM      2  C   UNL     1       3.373  -3.627   4.215  0.00  0.00    +0.054 A 
ATOM      3  C   UNL     1       3.810  -3.932   5.519  0.00  0.00    +0.245 A 
ATOM      4  N   UNL     1       3.297  -3.059   6.338  0.00  0.00    -0.135 NA
ATOM      5  N   UNL     1       2.518  -2.158   5.596  0.00  0.00    -0.273 N 
ATOM      6  H   UNL     1       2.025  -1.402   5.952  0.00  0.00    +0.189 HD
ATOM      7  O   UNL     1       4.633  -4.985   5.775  0.00  0.00    -0.421 OA
ATOM      8  C   UNL     1       5.240  -5.570   4.723  0.00  0.00    +0.201 C 
ATOM      9  C   UNL     1       4.900  -5.365   3.433  0.00  0.00    +0.098 C 
ATOM     10  C   UNL     1       3.780  -4.445   3.016  0.00  0.00    +0.107 C 
ENDROOT
BRANCH  10  11
ATOM     11  C   UNL     1       2.608  -5.258   2.532  0.00  0.00    +0.036 A 
ATOM     12  C   UNL     1       1.945  -6.104   3.404  0.00  0.00    +0.130 A 
ATOM     13  C   UNL     1       0.867  -6.851   2.958  0.00  0.00    +0.039 A 
ATOM     14  C   UNL     1       0.454  -6.752   1.644  0.00  0.00    +0.006 A 
ATOM     15  C   UNL     1       1.115  -5.907   0.772  0.00  0.00    +0.039 A 
ATOM     16  C   UNL     1       2.189  -5.155   1.217  0.00  0.00    +0.130 A 
ATOM     17  F   UNL     1       2.831  -4.325   0.366  0.00  0.00    -0.205 F 
ATOM     18  F   UNL     1       2.349  -6.202   4.689  0.00  0.00    -0.205 F 
ENDBRANCH  10  11
BRANCH   1  22
ATOM     19  C   UNL     1       0.634  -0.619   1.024  0.00  0.00    +0.120 A 
ATOM     20  C   UNL     1      -0.075  -0.900   2.184  0.00  0.00    +0.046 A 
ATOM     21  C   UNL     1       0.552  -1.521   3.244  0.00  0.00    +0.013 A 
ATOM     22  C   UNL     1       1.900  -1.868   3.149  0.00  0.00    +0.000 A 
ATOM     23  C   UNL     1       2.609  -1.584   1.981  0.00  0.00    +0.013 A 
ATOM     24  C   UNL     1       1.974  -0.968   0.924  0.00  0.00    +0.046 A 
BRANCH  19  26
ATOM     25  C   UNL     1      -1.367   0.324   0.152  0.00  0.00    +0.277 C 
ATOM     26  O   UNL     1       0.013  -0.007  -0.018  0.00  0.00    -0.495 OA
ENDBRANCH  19  26
ENDBRANCH   1  22
BRANCH   8  27
ATOM     27  N   UNL     1       6.275  -6.434   4.981  0.00  0.00    -0.328 N 
ATOM     28  H   UNL     1       6.546  -6.605   5.897  0.00  0.00    +0.145 HD
ATOM     29  H   UNL     1       6.735  -6.872   4.249  0.00  0.00    +0.145 HD
ENDBRANCH   8  27
BRANCH   9  30
ATOM     30  C   UNL     1       5.636  -6.051   2.415  0.00  0.00    +0.101 C 
ATOM     31  N   UNL     1       6.220  -6.596   1.607  0.00  0.00    -0.191 NA
ENDBRANCH   9  30
TORSDOF 5
