REMARK  Name = ZINC37359768
REMARK  6 active torsions:
REMARK  status: ('A' for Active; 'I' for Inactive)
REMARK    1  A    between atoms: C_4  and  C_7
REMARK    2  A    between atoms: C_7  and  C_8
REMARK    3  A    between atoms: C_8  and  N_9
REMARK    4  A    between atoms: C_12  and  C_27
REMARK    5  A    between atoms: C_14  and  N_26
REMARK    6  A    between atoms: N_15  and  C_19
REMARK                            x       y       z     vdW  Elec       q    Type
REMARK                         _______ _______ _______ _____ _____    ______ ____
ROOT
ATOM      1  N   UNL     1       5.035  -2.384   1.481  0.00  0.00    -0.313 N 
ATOM      2  C   UNL     1       5.816  -2.450   2.622  0.00  0.00    +0.218 A 
ATOM      3  N   UNL     1       6.957  -3.129   2.564  0.00  0.00    -0.214 NA
ATOM      4  C   UNL     1       7.764  -3.243   3.611  0.00  0.00    +0.089 A 
ATOM      5  C   UNL     1       7.386  -2.615   4.819  0.00  0.00    +0.086 A 
ATOM      6  C   UNL     1       7.929  -2.499   6.093  0.00  0.00    +0.131 A 
ATOM      7  N   UNL     1       7.079  -1.758   6.830  0.00  0.00    -0.216 N 
ATOM      8  N   UNL     1       5.977  -1.383   6.053  0.00  0.00    -0.144 NA
ATOM      9  C   UNL     1       6.113  -1.872   4.839  0.00  0.00    +0.189 A 
ATOM     10  N   UNL     1       5.390  -1.831   3.704  0.00  0.00    -0.193 NA
ATOM     11  H   UNL     1       5.324  -2.830   0.670  0.00  0.00    +0.149 HD
ENDROOT
BRANCH   7  12
ATOM     12  C   UNL     1       7.269  -1.415   8.174  0.00  0.00    +0.070 A 
ATOM     13  C   UNL     1       7.891  -2.306   9.039  0.00  0.00    +0.028 A 
ATOM     14  C   UNL     1       8.078  -1.966  10.364  0.00  0.00    +0.005 A 
ATOM     15  C   UNL     1       7.648  -0.737  10.831  0.00  0.00    +0.038 A 
ATOM     16  C   UNL     1       7.028   0.155   9.972  0.00  0.00    +0.125 A 
ATOM     17  C   UNL     1       6.843  -0.180   8.643  0.00  0.00    +0.066 A 
ATOM     18  F   UNL     1       6.608   1.354  10.432  0.00  0.00    -0.205 F 
ENDBRANCH   7  12
BRANCH   4  19
ATOM     19  C   UNL     1       9.029  -4.007   3.515  0.00  0.00    +0.004 A 
ATOM     20  C   UNL     1       9.371  -4.922   4.512  0.00  0.00    +0.010 A 
ATOM     21  C   UNL     1      10.550  -5.632   4.418  0.00  0.00    +0.003 A 
ATOM     22  C   UNL     1      11.394  -5.439   3.339  0.00  0.00    +0.038 A 
ATOM     23  C   UNL     1      11.061  -4.533   2.345  0.00  0.00    +0.124 A 
ATOM     24  C   UNL     1       9.879  -3.820   2.426  0.00  0.00    +0.048 A 
ATOM     25  F   UNL     1      11.889  -4.350   1.294  0.00  0.00    -0.205 F 
ENDBRANCH   4  19
BRANCH   6  26
ATOM     26  N   UNL     1       9.124  -3.045   6.525  0.00  0.00    -0.342 N 
ATOM     27  H   UNL     1       9.740  -3.433   5.884  0.00  0.00    +0.144 HD
ATOM     28  H   UNL     1       9.346  -3.039   7.469  0.00  0.00    +0.144 HD
ENDBRANCH   6  26
BRANCH   1  29
ATOM     29  C   UNL     1       3.773  -1.641   1.499  0.00  0.00    +0.109 C 
BRANCH  29  30
ATOM     30  C   UNL     1       3.112  -1.725   0.122  0.00  0.00    +0.054 C 
BRANCH  30  34
ATOM     31  C   UNL     1      -0.569   0.442   0.172  0.00  0.00    +0.000 A 
ATOM     32  C   UNL     1       0.606   1.083  -0.174  0.00  0.00    +0.000 A 
ATOM     33  C   UNL     1       1.797   0.382  -0.190  0.00  0.00    +0.004 A 
ATOM     34  C   UNL     1       1.814  -0.961   0.140  0.00  0.00    -0.046 A 
ATOM     35  C   UNL     1       0.639  -1.601   0.487  0.00  0.00    +0.004 A 
ATOM     36  C   UNL     1      -0.552  -0.901   0.502  0.00  0.00    +0.000 A 
ENDBRANCH  30  34
ENDBRANCH  29  30
ENDBRANCH   1  29
TORSDOF 6
