REMARK  Name = ZINC09086830
REMARK  6 active torsions:
REMARK  status: ('A' for Active; 'I' for Inactive)
REMARK    1  A    between atoms: C_1  and  C_2
REMARK    2  A    between atoms: C_2  and  C_4
REMARK    3  A    between atoms: C_2  and  N_19
REMARK    4  A    between atoms: N_6  and  N_7
REMARK    5  A    between atoms: C_8  and  C_9
REMARK    6  A    between atoms: C_20  and  C_22
REMARK                            x       y       z     vdW  Elec       q    Type
REMARK                         _______ _______ _______ _____ _____    ______ ____
ROOT
ATOM      1  C   UNL     1      -3.313   7.748  -0.108  0.00  0.00    +0.038 C 
ATOM      2  C   UNL     1      -2.132   7.259  -0.950  0.00  0.00    +0.157 C 
ENDROOT
BRANCH   2   3
ATOM      3  C   UNL     1      -2.276   7.767  -2.361  0.00  0.00    +0.252 C 
ATOM      4  O   UNL     1      -2.355   6.982  -3.283  0.00  0.00    -0.272 OA
ATOM      5  N   UNL     1      -2.318   9.093  -2.599  0.00  0.00    -0.205 N 
ATOM      6  H   UNL     1      -2.255   9.720  -1.861  0.00  0.00    +0.177 HD
BRANCH   5   7
ATOM      7  N   UNL     1      -2.452   9.566  -3.911  0.00  0.00    -0.186 NA
ATOM      8  C   UNL     1      -2.493  10.847  -4.141  0.00  0.00    +0.159 C 
BRANCH   8   9
ATOM      9  C   UNL     1      -2.632  11.340  -5.511  0.00  0.00    +0.104 A 
ATOM     10  C   UNL     1      -2.727  10.576  -6.661  0.00  0.00    +0.157 A 
ATOM     11  N   UNL     1      -2.844  11.398  -7.698  0.00  0.00    -0.216 NA
ATOM     12  C   UNL     1      -2.821  12.658  -7.276  0.00  0.00    +0.140 A 
ATOM     13  N   UNL     1      -2.690  12.660  -5.912  0.00  0.00    -0.297 N 
ATOM     14  C   UNL     1      -2.640  13.834  -5.222  0.00  0.00    +0.093 A 
ATOM     15  C   UNL     1      -2.719  15.017  -5.869  0.00  0.00    +0.018 A 
ATOM     16  C   UNL     1      -2.854  15.049  -7.266  0.00  0.00    +0.005 A 
ATOM     17  C   UNL     1      -2.905  13.882  -7.966  0.00  0.00    +0.047 A 
ATOM     18 CL   UNL     1      -2.702   8.842  -6.735  0.00  0.00    -0.060 Cl
ENDBRANCH   8   9
ENDBRANCH   5   7
ENDBRANCH   2   3
BRANCH   2  19
ATOM     19  N   UNL     1      -2.112   5.794  -0.958  0.00  0.00    -0.304 N 
ATOM     20  C   UNL     1      -1.510   5.123   0.044  0.00  0.00    +0.220 C 
ATOM     21  O   UNL     1      -0.985   5.731   0.952  0.00  0.00    -0.275 OA
ATOM     22  H   UNL     1      -2.533   5.307  -1.684  0.00  0.00    +0.149 HD
BRANCH  20  23
ATOM     23  C   UNL     1      -1.490   3.616   0.036  0.00  0.00    +0.048 C 
ATOM     24  C   UNL     1      -0.773   3.123  -1.223  0.00  0.00    +0.019 C 
ATOM     25  C   UNL     1      -0.753   1.593  -1.232  0.00  0.00    -0.009 C 
ATOM     26  C   UNL     1      -0.013   1.086   0.008  0.00  0.00    +0.007 C 
ATOM     27  C   UNL     1      -0.729   1.579   1.267  0.00  0.00    -0.009 C 
ATOM     28  C   UNL     1      -0.750   3.109   1.275  0.00  0.00    +0.019 C 
ATOM     29  C   UNL     1      -2.164   1.050   1.278  0.00  0.00    +0.007 C 
ATOM     30  C   UNL     1      -2.904   1.556   0.038  0.00  0.00    -0.009 C 
ATOM     31  C   UNL     1      -2.188   1.063  -1.221  0.00  0.00    +0.007 C 
ATOM     32  C   UNL     1      -2.925   3.086   0.047  0.00  0.00    +0.019 C 
ENDBRANCH  20  23
ENDBRANCH   2  19
TORSDOF 5
