REMARK  Name = ZINC32634242
REMARK  7 active torsions:
REMARK  status: ('A' for Active; 'I' for Inactive)
REMARK    1  A    between atoms: C_1  and  C_2
REMARK    2  A    between atoms: C_7  and  N_8
REMARK    3  A    between atoms: N_20  and  C_21
REMARK    4  A    between atoms: C_21  and  C_23
REMARK    5  A    between atoms: C_23  and  O_24
REMARK    6  A    between atoms: O_24  and  C_25
REMARK    7  A    between atoms: C_25  and  C_26
REMARK                            x       y       z     vdW  Elec       q    Type
REMARK                         _______ _______ _______ _____ _____    ______ ____
ROOT
ATOM      1  N   UNL     1      -2.465   4.398   0.483  0.00  0.00    -0.276 N 
ATOM      2  C   UNL     1      -3.018   4.669   1.800  0.00  0.00    +0.116 C 
ATOM      3  C   UNL     1      -2.144   4.473   3.052  0.00  0.00    +0.190 C 
ATOM      4  S   UNL     1      -3.152   5.480   4.244  0.00  0.00    -0.028 S 
ATOM      5  O   UNL     1      -4.117   4.639   4.861  0.00  0.00    -0.174 OA
ATOM      6  O   UNL     1      -2.277   6.254   5.053  0.00  0.00    -0.174 OA
ATOM      7  C   UNL     1      -4.005   6.595   3.032  0.00  0.00    +0.182 C 
ATOM      8  C   UNL     1      -3.263   6.224   1.782  0.00  0.00    +0.097 C 
ATOM      9  S   UNL     1      -4.048   6.307   0.161  0.00  0.00    -0.086 S 
ATOM     10  C   UNL     1      -3.317   4.875  -0.520  0.00  0.00    +0.154 C 
ATOM     11  N   UNL     1      -3.525   4.354  -1.724  0.00  0.00    -0.157 NA
ENDROOT
BRANCH   1  18
ATOM     12  C   UNL     1      -2.427   1.553   0.484  0.00  0.00    +0.045 C 
ATOM     13  C   UNL     1      -1.182   2.366   0.242  0.00  0.00    -0.029 A 
ATOM     14  C   UNL     1       0.024   1.733   0.013  0.00  0.00    +0.006 A 
ATOM     15  C   UNL     1       1.167   2.478  -0.210  0.00  0.00    +0.020 A 
ATOM     16  C   UNL     1       1.107   3.861  -0.203  0.00  0.00    +0.043 A 
ATOM     17  C   UNL     1      -0.095   4.500   0.032  0.00  0.00    +0.043 A 
ATOM     18  C   UNL     1      -1.246   3.754   0.250  0.00  0.00    +0.040 A 
ATOM     19 CL   UNL     1       2.546   4.792  -0.482  0.00  0.00    -0.083 Cl
ENDBRANCH   1  18
BRANCH  11  20
ATOM     20  C   UNL     1      -4.376   4.938  -2.564  0.00  0.00    +0.264 C 
ATOM     21  O   UNL     1      -4.963   5.949  -2.229  0.00  0.00    -0.271 OA
BRANCH  20  22
ATOM     22  C   UNL     1      -4.612   4.348  -3.930  0.00  0.00    +0.258 C 
BRANCH  22  23
ATOM     23  O   UNL     1      -5.560   5.149  -4.638  0.00  0.00    -0.359 OA
BRANCH  23  24
ATOM     24  C   UNL     1      -5.857   4.673  -5.952  0.00  0.00    +0.285 C 
BRANCH  24  25
ATOM     25  C   UNL     1      -6.861   5.589  -6.604  0.00  0.00    +0.381 C 
ATOM     26  O   UNL     1      -7.279   6.551  -6.003  0.00  0.00    -0.244 OA
ATOM     27  O   UNL     1      -7.290   5.337  -7.850  0.00  0.00    -0.244 OA
ENDBRANCH  24  25
ENDBRANCH  23  24
ENDBRANCH  22  23
ENDBRANCH  20  22
ENDBRANCH  11  20
TORSDOF 6
