REMARK  Name = ZINC39468474
REMARK  5 active torsions:
REMARK  status: ('A' for Active; 'I' for Inactive)
REMARK    1  A    between atoms: C_1  and  S_2
REMARK    2  A    between atoms: S_2  and  P_3
REMARK    3  A    between atoms: C_11  and  C_22
REMARK    4  A    between atoms: C_12  and  O_21
REMARK    5  A    between atoms: C_27  and  O_28
REMARK                            x       y       z     vdW  Elec       q    Type
REMARK                         _______ _______ _______ _____ _____    ______ ____
ROOT
ATOM      1  P   UNL     1       1.054  -0.512   1.771  0.00  0.00    +0.314 P 
ATOM      2  O   UNL     1       2.436   0.014   1.714  0.00  0.00    -0.262 OA
ATOM      3  N   UNL     1       1.070  -2.150   1.977  0.00  0.00    -0.283 NA
ATOM      4  N   UNL     1      -0.071  -2.747   2.469  0.00  0.00    +0.398 N 
ATOM      5  C   UNL     1       0.262  -4.168   2.656  0.00  0.00    -0.046 C 
ATOM      6  C   UNL     1      -0.938  -4.944   3.184  0.00  0.00    +0.005 C 
ATOM      7  C   UNL     1      -2.086  -4.862   2.213  0.00  0.00    -0.013 C 
ATOM      8  C   UNL     1      -3.338  -5.071   2.654  0.00  0.00    +0.023 C 
ATOM      9  C   UNL     1      -3.557  -5.390   4.084  0.00  0.00    +0.121 C 
ATOM     10  C   UNL     1      -2.632  -5.054   4.984  0.00  0.00    +0.023 C 
ATOM     11  C   UNL     1      -1.377  -4.351   4.526  0.00  0.00    +0.019 C 
ATOM     12  C   UNL     1      -1.678  -2.865   4.327  0.00  0.00    -0.002 C 
ATOM     13  C   UNL     1      -0.458  -2.142   3.745  0.00  0.00    -0.020 C 
ATOM     14  C   UNL     1      -0.849  -0.668   3.573  0.00  0.00    +0.157 C 
ATOM     15  O   UNL     1       0.280   0.074   3.076  0.00  0.00    -0.312 OA
ATOM     16  H   UNL     1       1.856  -2.675   1.759  0.00  0.00    +0.112 HD
ATOM     17  H   UNL     1      -0.822  -2.646   1.803  0.00  0.00    -0.055 HD
ENDROOT
BRANCH   8  18
ATOM     18  C   UNL     1      -4.486  -4.984   1.720  0.00  0.00    +0.027 A 
ATOM     19  C   UNL     1      -4.731  -6.013   0.813  0.00  0.00    +0.012 A 
ATOM     20  C   UNL     1      -5.801  -5.926  -0.053  0.00  0.00    +0.001 A 
ATOM     21  C   UNL     1      -6.633  -4.821  -0.026  0.00  0.00    +0.004 A 
ATOM     22  C   UNL     1      -6.400  -3.795   0.869  0.00  0.00    +0.046 A 
ATOM     23  C   UNL     1      -5.333  -3.871   1.750  0.00  0.00    +0.125 A 
BRANCH  23  24
ATOM     24  O   UNL     1      -5.106  -2.865   2.635  0.00  0.00    -0.506 OA
ATOM     25  H   UNL     1      -4.527  -2.168   2.298  0.00  0.00    +0.292 HD
ENDBRANCH  23  24
ENDBRANCH   8  18
BRANCH   1  27
ATOM     26  C   UNL     1      -0.022   1.810   0.012  0.00  0.00    +0.096 C 
ATOM     27  S   UNL     1       0.002  -0.004   0.002  0.00  0.00    -0.059 S 
ENDBRANCH   1  27
BRANCH   9  28
ATOM     28  O   UNL     1      -4.694  -6.021   4.477  0.00  0.00    -0.506 OA
ATOM     29  H   UNL     1      -4.744  -6.186   5.429  0.00  0.00    +0.292 HD
ENDBRANCH   9  28
TORSDOF 4
