REMARK  Name = ZINC09465911
REMARK  8 active torsions:
REMARK  status: ('A' for Active; 'I' for Inactive)
REMARK    1  A    between atoms: C_1  and  C_2
REMARK    2  A    between atoms: C_3  and  C_7
REMARK    3  A    between atoms: C_10  and  S_18
REMARK    4  A    between atoms: N_11  and  C_12
REMARK    5  A    between atoms: S_18  and  C_19
REMARK    6  A    between atoms: C_19  and  C_20
REMARK    7  A    between atoms: N_25  and  C_26
REMARK    8  A    between atoms: C_26  and  C_27
REMARK                            x       y       z     vdW  Elec       q    Type
REMARK                         _______ _______ _______ _____ _____    ______ ____
ROOT
ATOM      1  C   UNL     1       2.045   0.777  -0.013  0.00  0.00    +0.173 A 
ATOM      2  N   UNL     1       1.184   1.768   0.000  0.00  0.00    -0.128 NA
ATOM      3  N   UNL     1      -0.016   1.309   0.009  0.00  0.00    -0.122 NA
ATOM      4  C   UNL     1       0.002  -0.004   0.002  0.00  0.00    +0.197 A 
ATOM      5  N   UNL     1       1.316  -0.391  -0.013  0.00  0.00    -0.270 N 
ENDROOT
BRANCH   1   8
ATOM      6  C   UNL     1       3.699   3.441  -0.028  0.00  0.00    +0.087 C 
ATOM      7  C   UNL     1       4.253   2.039  -0.032  0.00  0.00    +0.112 A 
ATOM      8  C   UNL     1       3.519   0.894  -0.026  0.00  0.00    +0.060 A 
ATOM      9  C   UNL     1       4.495  -0.204  -0.040  0.00  0.00    +0.053 A 
ATOM     10  C   UNL     1       5.706   0.377  -0.048  0.00  0.00    +0.196 A 
ATOM     11  O   UNL     1       5.553   1.710  -0.040  0.00  0.00    -0.467 OA
ENDBRANCH   1   8
BRANCH   5  12
ATOM     12  C   UNL     1       1.814  -1.702  -0.024  0.00  0.00    +0.051 A 
ATOM     13  C   UNL     1       2.550  -2.175   1.053  0.00  0.00    +0.026 A 
ATOM     14  C   UNL     1       3.035  -3.469   1.040  0.00  0.00    +0.002 A 
ATOM     15  C   UNL     1       2.797  -4.287  -0.048  0.00  0.00    +0.000 A 
ATOM     16  C   UNL     1       2.068  -3.817  -1.125  0.00  0.00    +0.002 A 
ATOM     17  C   UNL     1       1.576  -2.526  -1.116  0.00  0.00    +0.026 A 
ENDBRANCH   5  12
BRANCH   4  18
ATOM     18  S   UNL     1      -1.402  -1.069   0.010  0.00  0.00    -0.076 S 
BRANCH  18  19
ATOM     19  C   UNL     1      -2.729   0.161   0.030  0.00  0.00    +0.173 C 
BRANCH  19  20
ATOM     20  C   UNL     1      -4.063  -0.540   0.039  0.00  0.00    +0.231 C 
ATOM     21  O   UNL     1      -4.112  -1.751   0.032  0.00  0.00    -0.274 OA
ATOM     22  N   UNL     1      -5.203   0.180   0.054  0.00  0.00    -0.239 N 
ATOM     23  C   UNL     1      -6.396  -0.447   0.062  0.00  0.00    +0.306 C 
ATOM     24  O   UNL     1      -6.444  -1.661   0.056  0.00  0.00    -0.252 OA
ATOM     25  N   UNL     1      -7.535   0.273   0.077  0.00  0.00    -0.292 N 
ATOM     26  H   UNL     1      -5.164   1.149   0.059  0.00  0.00    +0.159 HD
ATOM     27  H   UNL     1      -7.496   1.243   0.083  0.00  0.00    +0.151 HD
BRANCH  25  28
ATOM     28  C   UNL     1      -8.832  -0.408   0.086  0.00  0.00    +0.180 C 
BRANCH  28  29
ATOM     29  C   UNL     1      -9.937   0.616   0.103  0.00  0.00    +0.122 A 
ATOM     30  C   UNL     1     -10.525   1.157  -0.979  0.00  0.00    +0.046 A 
ATOM     31  C   UNL     1     -11.501   2.063  -0.505  0.00  0.00    +0.041 A 
ATOM     32  C   UNL     1     -11.452   2.022   0.838  0.00  0.00    +0.195 A 
ATOM     33  O   UNL     1     -10.507   1.140   1.201  0.00  0.00    -0.466 OA
ENDBRANCH  28  29
ENDBRANCH  25  28
ENDBRANCH  19  20
ENDBRANCH  18  19
ENDBRANCH   4  18
TORSDOF 7
