REMARK  Name = ZINC20757956
REMARK  8 active torsions:
REMARK  status: ('A' for Active; 'I' for Inactive)
REMARK    1  A    between atoms: C_1  and  C_2
REMARK    2  A    between atoms: C_2  and  N_3
REMARK    3  A    between atoms: C_16  and  C_18
REMARK    4  A    between atoms: N_25  and  C_28
REMARK    5  A    between atoms: C_28  and  C_29
REMARK    6  A    between atoms: C_29  and  C_30
REMARK    7  A    between atoms: C_33  and  O_36
REMARK    8  A    between atoms: O_36  and  C_37
REMARK                            x       y       z     vdW  Elec       q    Type
REMARK                         _______ _______ _______ _____ _____    ______ ____
ROOT
ATOM      1  C   UNL     1       1.337   2.121  -2.357  0.00  0.00    +0.074 A 
ATOM      2  C   UNL     1       1.301   3.514  -2.165  0.00  0.00    +0.260 A 
ATOM      3  O   UNL     1       0.234   4.087  -2.034  0.00  0.00    -0.267 OA
ATOM      4  N   UNL     1       2.455   4.210  -2.128  0.00  0.00    -0.275 N 
ATOM      5  H   UNL     1       2.426   5.299  -1.978  0.00  0.00    +0.173 HD
ATOM      6  C   UNL     1       3.636   3.582  -2.272  0.00  0.00    +0.332 A 
ATOM      7  O   UNL     1       4.666   4.227  -2.235  0.00  0.00    -0.246 OA
ATOM      8  N   UNL     1       3.694   2.250  -2.458  0.00  0.00    -0.260 N 
ATOM      9  C   UNL     1       2.544   1.503  -2.497  0.00  0.00    +0.262 A 
ATOM     10  O   UNL     1       2.607   0.166  -2.676  0.00  0.00    -0.267 OA
ENDROOT
BRANCH   1  24
ATOM     11  N   UNL     1      -0.723   1.572  -1.182  0.00  0.00    +0.388 N 
ATOM     12  C   UNL     1      -2.064   0.979  -1.274  0.00  0.00    -0.073 C 
ATOM     13  C   UNL     1      -2.910   1.779  -2.275  0.00  0.00    +0.019 C 
ATOM     14  C   UNL     1      -2.098   1.955  -3.534  0.00  0.00    -0.022 A 
ATOM     15  C   UNL     1      -2.531   2.351  -4.855  0.00  0.00    +0.003 A 
ATOM     16  C   UNL     1      -3.780   2.688  -5.386  0.00  0.00    +0.010 A 
ATOM     17  C   UNL     1      -3.821   3.019  -6.718  0.00  0.00    +0.001 A 
ATOM     18  C   UNL     1      -2.685   3.022  -7.510  0.00  0.00    +0.002 A 
ATOM     19  C   UNL     1      -1.436   2.693  -7.013  0.00  0.00    +0.026 A 
ATOM     20  C   UNL     1      -1.364   2.352  -5.663  0.00  0.00    +0.047 A 
ATOM     21  N   UNL     1      -0.317   1.984  -4.867  0.00  0.00    -0.359 N 
ATOM     22  H   UNL     1       0.697   1.917  -5.289  0.00  0.00    +0.166 HD
ATOM     23  C   UNL     1      -0.763   1.749  -3.595  0.00  0.00    +0.011 A 
ATOM     24  C   UNL     1       0.060   1.323  -2.403  0.00  0.00    +0.021 C 
ATOM     25  H   UNL     1      -0.848   2.661  -1.082  0.00  0.00    -0.080 HD
BRANCH  11  27
ATOM     26  C   UNL     1      -0.729   1.579   1.267  0.00  0.00    -0.017 C 
ATOM     27  C   UNL     1      -0.013   1.086   0.008  0.00  0.00    -0.081 C 
ENDBRANCH  11  27
ENDBRANCH   1  24
BRANCH   8  28
ATOM     28  C   UNL     1       4.995   1.593  -2.612  0.00  0.00    +0.134 C 
BRANCH  28  29
ATOM     29  C   UNL     1       5.518   1.169  -1.238  0.00  0.00    +0.057 C 
BRANCH  29  30
ATOM     30  C   UNL     1       6.855   0.493  -1.397  0.00  0.00    -0.045 A 
ATOM     31  C   UNL     1       6.919  -0.876  -1.582  0.00  0.00    +0.007 A 
ATOM     32  C   UNL     1       8.144  -1.497  -1.734  0.00  0.00    +0.046 A 
ATOM     33  C   UNL     1       9.311  -0.748  -1.688  0.00  0.00    +0.120 A 
ATOM     34  C   UNL     1       9.244   0.625  -1.497  0.00  0.00    +0.046 A 
ATOM     35  C   UNL     1       8.017   1.242  -1.352  0.00  0.00    +0.007 A 
BRANCH  33  36
ATOM     36  O   UNL     1      10.517  -1.357  -1.832  0.00  0.00    -0.495 OA
ATOM     37  C   UNL     1      10.510  -2.773  -2.026  0.00  0.00    +0.277 C 
ENDBRANCH  33  36
ENDBRANCH  29  30
ENDBRANCH  28  29
ENDBRANCH   8  28
TORSDOF 6
