REMARK  Name = ZINC12601939
REMARK  8 active torsions:
REMARK  status: ('A' for Active; 'I' for Inactive)
REMARK    1  A    between atoms: C_1  and  C_2
REMARK    2  A    between atoms: C_2  and  C_3
REMARK    3  A    between atoms: C_2  and  N_4
REMARK    4  A    between atoms: N_7  and  C_8
REMARK    5  A    between atoms: C_8  and  C_9
REMARK    6  A    between atoms: C_17  and  C_19
REMARK    7  A    between atoms: C_21  and  C_25
REMARK    8  A    between atoms: N_23  and  C_24
REMARK                            x       y       z     vdW  Elec       q    Type
REMARK                         _______ _______ _______ _____ _____    ______ ____
ROOT
ATOM      1  C   UNL     1       4.479   2.037   0.291  0.00  0.00    -0.051 C 
ATOM      2  C   UNL     1       5.730   1.312  -0.213  0.00  0.00    -0.010 C 
ATOM      3  C   UNL     1       6.041   1.793  -1.636  0.00  0.00    -0.007 C 
ATOM      4  C   UNL     1       6.258   3.311  -1.602  0.00  0.00    -0.015 C 
ATOM      5  C   UNL     1       4.993   3.980  -1.060  0.00  0.00    -0.078 C 
ATOM      6  C   UNL     1       3.605   2.212  -1.961  0.00  0.00    -0.068 C 
ATOM      7  C   UNL     1       4.831   1.492  -2.529  0.00  0.00    +0.024 C 
ATOM      8  N   UNL     1       3.967   2.964  -0.741  0.00  0.00    +0.383 N 
ATOM      9  H   UNL     1       3.131   3.436  -0.379  0.00  0.00    -0.081 HD
ENDROOT
BRANCH   7  10
ATOM     10  C   UNL     1       4.577   0.006  -2.553  0.00  0.00    +0.041 A 
ATOM     11  C   UNL     1       3.392  -0.600  -2.328  0.00  0.00    +0.053 A 
ATOM     12  C   UNL     1       3.589  -1.991  -2.448  0.00  0.00    +0.100 A 
ATOM     13  N   UNL     1       4.860  -2.197  -2.727  0.00  0.00    -0.171 NA
ATOM     14  N   UNL     1       5.497  -0.952  -2.797  0.00  0.00    -0.271 N 
ATOM     15  C   UNL     1       6.916  -0.727  -3.085  0.00  0.00    +0.172 C 
BRANCH  12  16
ATOM     16  C   UNL     1       2.554  -3.035  -2.283  0.00  0.00    +0.039 A 
ATOM     17  C   UNL     1       2.675  -4.394  -2.385  0.00  0.00    +0.018 A 
ATOM     18  C   UNL     1       1.559  -5.176  -2.183  0.00  0.00    +0.008 A 
ATOM     19  C   UNL     1       0.374  -4.577  -1.902  0.00  0.00    +0.046 A 
ATOM     20  S   UNL     1       0.818  -2.848  -1.907  0.00  0.00    -0.095 S 
ENDBRANCH  12  16
ENDBRANCH   7  10
BRANCH   1  21
ATOM     21  C   UNL     1       3.392   1.011   0.620  0.00  0.00    +0.090 C 
BRANCH  21  25
ATOM     22  N   UNL     1      -0.084   1.644   1.637  0.00  0.00    -0.297 N 
ATOM     23  C   UNL     1       1.055   1.003   1.311  0.00  0.00    +0.300 C 
ATOM     24  O   UNL     1       1.090  -0.213   1.309  0.00  0.00    -0.253 OA
ATOM     25  N   UNL     1       2.155   1.708   0.981  0.00  0.00    -0.301 N 
ATOM     26  H   UNL     1      -0.111   2.614   1.639  0.00  0.00    +0.150 HD
ATOM     27  H   UNL     1       2.128   2.678   0.982  0.00  0.00    +0.150 HD
BRANCH  22  29
ATOM     28  C   UNL     1      -2.188   1.728   2.882  0.00  0.00    +0.027 C 
ATOM     29  C   UNL     1      -1.281   0.877   1.990  0.00  0.00    +0.068 C 
ATOM     30  C   UNL     1      -2.035   0.494   0.715  0.00  0.00    +0.027 C 
ENDBRANCH  22  29
ENDBRANCH  21  25
ENDBRANCH   1  21
TORSDOF 5
