REMARK  Name = ZINC16040238
REMARK  7 active torsions:
REMARK  status: ('A' for Active; 'I' for Inactive)
REMARK    1  A    between atoms: C_1  and  C_2
REMARK    2  A    between atoms: C_7  and  C_25
REMARK    3  A    between atoms: C_8  and  C_9
REMARK    4  A    between atoms: N_11  and  C_12
REMARK    5  A    between atoms: C_12  and  C_24
REMARK    6  A    between atoms: C_18  and  C_19
REMARK    7  A    between atoms: C_18  and  C_20
REMARK                            x       y       z     vdW  Elec       q    Type
REMARK                         _______ _______ _______ _____ _____    ______ ____
ROOT
ATOM      1  C   UNL     1       1.199   0.592   2.455  0.00  0.00    +0.251 C 
ATOM      2  O   UNL     1       1.259  -0.001   3.515  0.00  0.00    -0.270 OA
ATOM      3  N   UNL     1       0.468   1.719   2.353  0.00  0.00    -0.285 N 
ATOM      4  H   UNL     1       0.358   2.150   1.491  0.00  0.00    +0.155 HD
ENDROOT
BRANCH   3   5
ATOM      5  C   UNL     1      -0.118   2.257   3.467  0.00  0.00    +0.014 C 
ATOM      6  C   UNL     1      -0.859   3.385   3.363  0.00  0.00    +0.016 C 
ATOM      7  C   UNL     1      -1.546   4.072   4.513  0.00  0.00    +0.034 C 
ATOM      8  C   UNL     1      -2.259   5.305   3.940  0.00  0.00    +0.011 C 
ATOM      9  C   UNL     1      -1.083   5.469   4.931  0.00  0.00    -0.024 C 
ATOM     10  C   UNL     1      -1.421   5.930   6.350  0.00  0.00    +0.012 C 
ATOM     11  C   UNL     1       0.255   5.964   4.377  0.00  0.00    +0.012 C 
ATOM     12  C   UNL     1      -1.971   5.277   2.432  0.00  0.00    +0.084 C 
ATOM     13  C   UNL     1      -1.090   4.083   2.174  0.00  0.00    +0.161 C 
ATOM     14  O   UNL     1      -0.656   3.763   1.085  0.00  0.00    -0.292 OA
ATOM     15  C   UNL     1       0.060   1.594   4.808  0.00  0.00    +0.061 C 
ENDBRANCH   3   5
BRANCH   1  23
ATOM     16  C   UNL     1       0.070  -1.618   0.900  0.00  0.00    +0.045 C 
ATOM     17  C   UNL     1       1.389  -0.995   0.520  0.00  0.00    -0.028 A 
ATOM     18  C   UNL     1       2.080  -1.444  -0.560  0.00  0.00    +0.096 A 
ATOM     19  C   UNL     1       3.310  -0.842  -0.892  0.00  0.00    +0.337 A 
ATOM     20  O   UNL     1       3.936  -1.239  -1.859  0.00  0.00    -0.245 OA
ATOM     21  O   UNL     1       3.797   0.167  -0.150  0.00  0.00    -0.427 OA
ATOM     22  C   UNL     1       3.135   0.625   0.917  0.00  0.00    +0.118 A 
ATOM     23  C   UNL     1       1.926   0.076   1.281  0.00  0.00    +0.078 A 
ATOM     24  C   UNL     1       3.713   1.758   1.725  0.00  0.00    +0.087 C 
ENDBRANCH   1  23
TORSDOF 2
