REMARK  Name = ZINC08883388
REMARK  6 active torsions:
REMARK  status: ('A' for Active; 'I' for Inactive)
REMARK    1  A    between atoms: C_4  and  N_7
REMARK    2  A    between atoms: N_7  and  C_8
REMARK    3  A    between atoms: C_16  and  C_18
REMARK    4  A    between atoms: C_18  and  N_64
REMARK    5  A    between atoms: C_21  and  C_24
REMARK    6  A    between atoms: N_26  and  C_27
REMARK                            x       y       z     vdW  Elec       q    Type
REMARK                         _______ _______ _______ _____ _____    ______ ____
ROOT
ATOM      1  C   UNL     1      -2.086   1.118  -0.556  0.00  0.00    -0.077 C 
ATOM      2  C   UNL     1      -0.655   1.658  -0.501  0.00  0.00    -0.006 C 
ATOM      3  C   UNL     1      -0.021   1.275   0.839  0.00  0.00    +0.072 C 
ATOM      4  C   UNL     1      -0.878   1.832   1.980  0.00  0.00    -0.006 C 
ATOM      5  C   UNL     1      -2.304   1.287   1.852  0.00  0.00    -0.077 C 
ATOM      6  N   UNL     1      -2.865   1.711   0.552  0.00  0.00    +0.385 N 
ATOM      7  H   UNL     1      -2.814   2.734   0.484  0.00  0.00    -0.081 HD
ENDROOT
BRANCH   3   8
ATOM      8  C   UNL     1       1.367   1.853   0.923  0.00  0.00    +0.220 C 
ATOM      9  O   UNL     1       1.809   2.506   0.001  0.00  0.00    -0.275 OA
ATOM     10  N   UNL     1       2.119   1.646   2.022  0.00  0.00    -0.285 N 
ATOM     11  H   UNL     1       1.742   1.182   2.787  0.00  0.00    +0.155 HD
BRANCH  10  12
ATOM     12  C   UNL     1       3.444   2.100   2.062  0.00  0.00    +0.037 A 
ATOM     13  C   UNL     1       3.789   3.288   1.432  0.00  0.00    +0.027 A 
ATOM     14  C   UNL     1       5.095   3.737   1.469  0.00  0.00    +0.051 A 
ATOM     15  C   UNL     1       6.064   3.004   2.135  0.00  0.00    +0.166 A 
ATOM     16  C   UNL     1       5.720   1.812   2.769  0.00  0.00    +0.168 A 
ATOM     17  C   UNL     1       4.410   1.365   2.735  0.00  0.00    +0.072 A 
ATOM     18  O   UNL     1       6.840   1.286   3.346  0.00  0.00    -0.453 OA
ATOM     19  C   UNL     1       7.785   2.370   3.410  0.00  0.00    +0.466 C 
ATOM     20  O   UNL     1       7.400   3.225   2.317  0.00  0.00    -0.453 OA
ENDBRANCH  10  12
ENDBRANCH   3   8
BRANCH   6  21
ATOM     21  C   UNL     1      -4.280   1.294   0.454  0.00  0.00    +0.019 C 
BRANCH  21  23
ATOM     22  N   UNL     1      -6.398   1.812   1.620  0.00  0.00    -0.268 N 
ATOM     23  C   UNL     1      -5.088   2.080   1.454  0.00  0.00    +0.203 C 
ATOM     24  O   UNL     1      -4.559   2.952   2.109  0.00  0.00    -0.277 OA
BRANCH  22  25
ATOM     25  C   UNL     1      -7.066   0.847   0.743  0.00  0.00    +0.104 C 
ATOM     26  C   UNL     1      -8.207   1.548  -0.012  0.00  0.00    +0.047 C 
ATOM     27  C   UNL     1      -9.087   0.455  -0.684  0.00  0.00    +0.168 C 
ATOM     28  S   UNL     1      -9.134  -0.809   0.655  0.00  0.00    -0.029 S 
ATOM     29  O   UNL     1     -10.280  -0.584   1.464  0.00  0.00    -0.174 OA
ATOM     30  O   UNL     1      -8.920  -2.094   0.086  0.00  0.00    -0.174 OA
ATOM     31  C   UNL     1      -7.634  -0.314   1.595  0.00  0.00    +0.188 C 
ENDBRANCH  22  25
BRANCH  22  35
ATOM     32  C   UNL     1      -8.551   3.733   4.626  0.00  0.00    +0.000 A 
ATOM     33  C   UNL     1      -7.221   4.051   4.419  0.00  0.00    +0.002 A 
ATOM     34  C   UNL     1      -6.505   3.416   3.423  0.00  0.00    +0.023 A 
ATOM     35  C   UNL     1      -7.121   2.457   2.630  0.00  0.00    +0.037 A 
ATOM     36  C   UNL     1      -8.458   2.143   2.838  0.00  0.00    +0.023 A 
ATOM     37  C   UNL     1      -9.167   2.778   3.838  0.00  0.00    +0.002 A 
ENDBRANCH  22  35
ENDBRANCH  21  23
ENDBRANCH   6  21
TORSDOF 6
