REMARK  Name = ZINC08734750
REMARK  7 active torsions:
REMARK  status: ('A' for Active; 'I' for Inactive)
REMARK    1  A    between atoms: C_1  and  C_2
REMARK    2  A    between atoms: C_15  and  C_17
REMARK    3  A    between atoms: C_17  and  N_57
REMARK    4  A    between atoms: C_18  and  C_20
REMARK    5  A    between atoms: C_18  and  C_21
REMARK    6  A    between atoms: C_18  and  N_57
REMARK    7  A    between atoms: C_24  and  C_27
REMARK                            x       y       z     vdW  Elec       q    Type
REMARK                         _______ _______ _______ _____ _____    ______ ____
ROOT
ATOM      1  C   UNL     1      -0.018   1.503   0.010  0.00  0.00    +0.016 C 
ENDROOT
BRANCH   1  15
ATOM      2  C   UNL     1      -1.476  -2.659  -1.407  0.00  0.00    +0.029 C 
ATOM      3  C   UNL     1      -1.153  -2.157   0.002  0.00  0.00    +0.087 C 
ATOM      4  C   UNL     1      -2.205  -2.683   0.980  0.00  0.00    +0.118 C 
ATOM      5  C   UNL     1      -2.150  -1.905   2.268  0.00  0.00    +0.219 C 
ATOM      6  O   UNL     1      -1.649  -2.405   3.253  0.00  0.00    -0.275 OA
ATOM      7  N   UNL     1      -2.655  -0.653   2.335  0.00  0.00    -0.284 N 
ATOM      8  C   UNL     1      -3.158  -0.026   1.189  0.00  0.00    +0.055 A 
ATOM      9  C   UNL     1      -4.396   0.593   1.200  0.00  0.00    +0.025 A 
ATOM     10  C   UNL     1      -4.856   1.233   0.063  0.00  0.00    +0.002 A 
ATOM     11  C   UNL     1      -4.081   1.257  -1.083  0.00  0.00    +0.002 A 
ATOM     12  C   UNL     1      -2.849   0.631  -1.105  0.00  0.00    +0.025 A 
ATOM     13  C   UNL     1      -2.386  -0.025   0.031  0.00  0.00    +0.058 A 
ATOM     14  N   UNL     1      -1.156  -0.694   0.009  0.00  0.00    -0.268 N 
ATOM     15  C   UNL     1       0.002  -0.004   0.002  0.00  0.00    +0.203 C 
ATOM     16  O   UNL     1       1.061  -0.596  -0.011  0.00  0.00    -0.277 OA
ATOM     17  H   UNL     1      -2.670  -0.185   3.185  0.00  0.00    +0.155 HD
ENDBRANCH   1  15
BRANCH   1  18
ATOM     18  N   UNL     1       1.369   2.005  -0.000  0.00  0.00    +0.389 N 
ATOM     19  H   UNL     1       1.845   1.667  -0.845  0.00  0.00    -0.084 HD
ATOM     20  H   UNL     1       1.861   1.658   0.832  0.00  0.00    -0.084 HD
BRANCH  18  21
ATOM     21  C   UNL     1       1.379   3.480   0.008  0.00  0.00    -0.043 C 
ATOM     22  C   UNL     1       1.274   3.984   1.448  0.00  0.00    -0.009 C 
BRANCH  21  23
ATOM     23  C   UNL     1       2.667   3.969  -0.603  0.00  0.00    -0.062 A 
ATOM     24  C   UNL     1       3.855   3.319  -0.318  0.00  0.00    +0.002 A 
ATOM     25  C   UNL     1       5.037   3.758  -0.879  0.00  0.00    +0.009 A 
ATOM     26  C   UNL     1       5.034   4.867  -1.724  0.00  0.00    -0.018 A 
ATOM     27  C   UNL     1       3.836   5.521  -2.002  0.00  0.00    +0.009 A 
ATOM     28  C   UNL     1       2.659   5.069  -1.440  0.00  0.00    +0.002 A 
BRANCH  26  29
ATOM     29  C   UNL     1       6.303   5.347  -2.325  0.00  0.00    -0.018 A 
ATOM     30  C   UNL     1       6.300   6.452  -3.174  0.00  0.00    +0.008 A 
ATOM     31  C   UNL     1       7.483   6.898  -3.727  0.00  0.00    +0.001 A 
ATOM     32  C   UNL     1       8.669   6.244  -3.447  0.00  0.00    +0.000 A 
ATOM     33  C   UNL     1       8.678   5.144  -2.608  0.00  0.00    +0.001 A 
ATOM     34  C   UNL     1       7.501   4.693  -2.046  0.00  0.00    +0.008 A 
ENDBRANCH  26  29
ENDBRANCH  21  23
ENDBRANCH  18  21
ENDBRANCH   1  18
TORSDOF 5
