REMARK  Name = ZINC20344243
REMARK  10 active torsions:
REMARK  status: ('A' for Active; 'I' for Inactive)
REMARK    1  A    between atoms: C_1  and  C_2
REMARK    2  A    between atoms: C_4  and  O_5
REMARK    3  A    between atoms: N_13  and  C_14
REMARK    4  A    between atoms: C_14  and  N_16
REMARK    5  A    between atoms: N_19  and  S_22
REMARK    6  A    between atoms: S_22  and  C_25
REMARK    7  A    between atoms: C_28  and  C_31
REMARK    8  A    between atoms: C_31  and  C_32
REMARK    9  A    between atoms: C_31  and  C_33
REMARK   10  A    between atoms: C_31  and  C_34
REMARK                            x       y       z     vdW  Elec       q    Type
REMARK                         _______ _______ _______ _____ _____    ______ ____
ROOT
ATOM      1  N   UNL     1       1.187  -2.484  -4.309  0.00  0.00    -0.310 N 
ATOM      2  C   UNL     1       2.455  -2.247  -3.604  0.00  0.00    +0.124 C 
ATOM      3  C   UNL     1       2.471  -3.095  -2.326  0.00  0.00    +0.128 C 
ATOM      4  N   UNL     1       1.208  -2.881  -1.605  0.00  0.00    -0.174 NA
ATOM      5  C   UNL     1      -0.059  -3.123  -2.308  0.00  0.00    +0.128 C 
ATOM      6  C   UNL     1      -0.075  -2.270  -3.587  0.00  0.00    +0.124 C 
ENDROOT
BRANCH   4   7
ATOM      7  S   UNL     1       1.214  -2.382  -0.025  0.00  0.00    +0.061 S 
ATOM      8  O   UNL     1       2.467  -2.774   0.520  0.00  0.00    -0.153 OA
ATOM      9  O   UNL     1      -0.024  -2.796   0.536  0.00  0.00    -0.153 OA
BRANCH   7  10
ATOM     10  C   UNL     1       1.199  -0.620  -0.036  0.00  0.00    +0.105 A 
ATOM     11  C   UNL     1      -0.004   0.060  -0.032  0.00  0.00    +0.029 A 
ATOM     12  C   UNL     1      -0.017   1.442  -0.039  0.00  0.00    +0.006 A 
ATOM     13  C   UNL     1       1.174   2.144  -0.050  0.00  0.00    -0.042 A 
ATOM     14  C   UNL     1       2.378   1.464  -0.055  0.00  0.00    +0.006 A 
ATOM     15  C   UNL     1       2.390   0.081  -0.047  0.00  0.00    +0.029 A 
BRANCH  13  16
ATOM     16  C   UNL     1       1.161   3.651  -0.058  0.00  0.00    -0.013 C 
ATOM     17  C   UNL     1       0.443   4.162   1.193  0.00  0.00    +0.015 C 
ATOM     18  C   UNL     1       2.599   4.174  -0.069  0.00  0.00    +0.015 C 
ATOM     19  C   UNL     1       0.428   4.148  -1.305  0.00  0.00    +0.015 C 
ENDBRANCH  13  16
ENDBRANCH   7  10
ENDBRANCH   4   7
BRANCH   1  20
ATOM     20  C   UNL     1       1.183  -2.891  -5.594  0.00  0.00    +0.137 C 
ATOM     21  S   UNL     1       2.655  -3.014  -6.458  0.00  0.00    -0.018 S 
BRANCH  20  33
ATOM     22  C   UNL     1      -2.891   2.341  -8.092  0.00  0.00    +0.045 C 
ATOM     23  C   UNL     1      -3.317   0.896  -8.130  0.00  0.00    -0.033 A 
ATOM     24  C   UNL     1      -4.526   0.538  -8.637  0.00  0.00    +0.091 A 
ATOM     25  C   UNL     1      -4.901  -0.820  -8.662  0.00  0.00    +0.285 A 
ATOM     26  O   UNL     1      -4.091  -1.784  -8.196  0.00  0.00    -0.425 OA
ATOM     27  C   UNL     1      -2.877  -1.497  -7.680  0.00  0.00    +0.141 A 
ATOM     28  C   UNL     1      -2.439  -0.160  -7.623  0.00  0.00    +0.021 A 
ATOM     29  C   UNL     1      -1.181   0.143  -7.090  0.00  0.00    +0.013 A 
ATOM     30  C   UNL     1      -0.384  -0.860  -6.619  0.00  0.00    +0.024 A 
ATOM     31  C   UNL     1      -0.810  -2.186  -6.678  0.00  0.00    +0.036 A 
ATOM     32  C   UNL     1      -2.054  -2.504  -7.204  0.00  0.00    +0.070 A 
ATOM     33  N   UNL     1       0.018  -3.201  -6.198  0.00  0.00    -0.297 N 
ATOM     34  H   UNL     1      -0.278  -4.254  -6.314  0.00  0.00    +0.154 HD
BRANCH  25  35
ATOM     35  O   UNL     1      -5.987  -1.127  -9.119  0.00  0.00    -0.480 OA
ATOM     36  H   UNL     1      -6.294  -2.183  -9.146  0.00  0.00    +0.295 HD
ENDBRANCH  25  35
ENDBRANCH  20  33
ENDBRANCH   1  20
TORSDOF 6
