REMARK  Name = ZINC39280188
REMARK  6 active torsions:
REMARK  status: ('A' for Active; 'I' for Inactive)
REMARK    1  A    between atoms: C_1  and  O_2
REMARK    2  A    between atoms: O_2  and  C_3
REMARK    3  A    between atoms: C_6  and  C_9
REMARK    4  A    between atoms: C_25  and  N_38
REMARK    5  A    between atoms: C_26  and  C_36
REMARK    6  A    between atoms: C_27  and  C_29
REMARK                            x       y       z     vdW  Elec       q    Type
REMARK                         _______ _______ _______ _____ _____    ______ ____
ROOT
ATOM      1  C   UNL     1      -4.960  -2.618   0.035  0.00  0.00    +0.072 A 
ATOM      2  C   UNL     1      -5.011  -4.015   0.040  0.00  0.00    +0.029 A 
ATOM      3  C   UNL     1      -6.212  -4.660   0.080  0.00  0.00    +0.014 A 
ATOM      4  C   UNL     1      -7.407  -3.900   0.113  0.00  0.00    +0.027 A 
ATOM      5  C   UNL     1      -7.259  -2.488   0.046  0.00  0.00    +0.107 A 
ATOM      6  N   UNL     1      -6.084  -1.906   0.045  0.00  0.00    -0.240 NA
ATOM      7  S   UNL     1      -8.925  -1.853  -0.063  0.00  0.00    -0.088 S 
ATOM      8  C   UNL     1      -9.732  -3.441  -0.531  0.00  0.00    +0.166 C 
ATOM      9  C   UNL     1      -8.783  -4.386   0.224  0.00  0.00    +0.065 C 
ATOM     10  N   UNL     1      -9.329  -5.414   0.822  0.00  0.00    -0.179 NA
ATOM     11  C   UNL     1     -10.652  -5.513   1.020  0.00  0.00    +0.268 C 
ATOM     12  O   UNL     1     -11.098  -6.552   1.477  0.00  0.00    -0.268 OA
ATOM     13  C   UNL     1     -11.581  -4.426   0.710  0.00  0.00    +0.068 C 
ATOM     14  C   UNL     1     -11.163  -3.383  -0.065  0.00  0.00    +0.135 C 
ATOM     15  O   UNL     1     -11.955  -2.353  -0.394  0.00  0.00    -0.444 OA
ATOM     16  C   UNL     1     -13.293  -2.490  -0.337  0.00  0.00    +0.198 C 
ATOM     17  C   UNL     1     -13.868  -3.478   0.391  0.00  0.00    +0.098 C 
ATOM     18  C   UNL     1     -12.999  -4.481   1.205  0.00  0.00    +0.103 C 
ENDROOT
BRANCH  18  19
ATOM     19  C   UNL     1     -13.029  -4.141   2.673  0.00  0.00    -0.034 A 
ATOM     20  C   UNL     1     -12.575  -2.909   3.105  0.00  0.00    +0.007 A 
ATOM     21  C   UNL     1     -12.602  -2.595   4.451  0.00  0.00    +0.038 A 
ATOM     22  C   UNL     1     -13.084  -3.515   5.366  0.00  0.00    +0.123 A 
ATOM     23  C   UNL     1     -13.539  -4.749   4.932  0.00  0.00    +0.038 A 
ATOM     24  C   UNL     1     -13.516  -5.058   3.585  0.00  0.00    +0.007 A 
ATOM     25  F   UNL     1     -13.111  -3.210   6.682  0.00  0.00    -0.205 F 
ENDBRANCH  18  19
BRANCH   1  29
ATOM     26  C   UNL     1      -1.199  -0.637   0.010  0.00  0.00    +0.120 A 
ATOM     27  C   UNL     1      -2.374   0.105   0.019  0.00  0.00    +0.046 A 
ATOM     28  C   UNL     1      -3.595  -0.534   0.028  0.00  0.00    +0.013 A 
ATOM     29  C   UNL     1      -3.651  -1.928   0.026  0.00  0.00    +0.001 A 
ATOM     30  C   UNL     1      -2.469  -2.671   0.016  0.00  0.00    +0.013 A 
ATOM     31  C   UNL     1      -1.251  -2.025   0.003  0.00  0.00    +0.046 A 
BRANCH  26  33
ATOM     32  C   UNL     1      -0.017   1.425   0.010  0.00  0.00    +0.277 C 
ATOM     33  O   UNL     1       0.002  -0.004   0.002  0.00  0.00    -0.495 OA
ENDBRANCH  26  33
ENDBRANCH   1  29
BRANCH  16  34
ATOM     34  N   UNL     1     -14.090  -1.612  -1.028  0.00  0.00    -0.328 N 
ATOM     35  H   UNL     1     -13.688  -0.901  -1.552  0.00  0.00    +0.145 HD
ATOM     36  H   UNL     1     -15.055  -1.702  -0.993  0.00  0.00    +0.145 HD
ENDBRANCH  16  34
BRANCH  17  37
ATOM     37  C   UNL     1     -15.295  -3.593   0.423  0.00  0.00    +0.101 C 
ATOM     38  N   UNL     1     -16.427  -3.684   0.448  0.00  0.00    -0.191 NA
ENDBRANCH  17  37
TORSDOF 5
