REMARK  Name = ZINC13077758
REMARK  6 active torsions:
REMARK  status: ('A' for Active; 'I' for Inactive)
REMARK    1  A    between atoms: C_1  and  C_2
REMARK    2  A    between atoms: C_3  and  C_20
REMARK    3  A    between atoms: C_10  and  C_12
REMARK    4  A    between atoms: C_23  and  O_26
REMARK    5  A    between atoms: O_26  and  C_27
REMARK    6  A    between atoms: C_27  and  C_28
REMARK                            x       y       z     vdW  Elec       q    Type
REMARK                         _______ _______ _______ _____ _____    ______ ____
ROOT
ATOM      1  C   UNL     1       0.802  -3.999   1.035  0.00  0.00    +0.043 C 
ATOM      2  C   UNL     1       0.551  -2.618   0.487  0.00  0.00    -0.022 C 
ATOM      3  C   UNL     1      -0.670  -2.322   0.064  0.00  0.00    +0.042 C 
ATOM      4  N   UNL     1      -0.993  -1.060  -0.454  0.00  0.00    -0.282 N 
ATOM      5  C   UNL     1      -0.064  -0.048  -0.272  0.00  0.00    +0.240 A 
ATOM      6  N   UNL     1      -0.158   1.240  -0.442  0.00  0.00    -0.092 NA
ATOM      7  N   UNL     1       0.958   1.813  -0.144  0.00  0.00    -0.021 NA
ATOM      8  N   UNL     1       1.831   0.933   0.229  0.00  0.00    -0.042 NA
ATOM      9  N   UNL     1       1.200  -0.307   0.156  0.00  0.00    -0.201 N 
ATOM     10  C   UNL     1       1.699  -1.645   0.448  0.00  0.00    +0.173 C 
ATOM     11  H   UNL     1      -1.829  -0.902  -0.920  0.00  0.00    +0.155 HD
ENDROOT
BRANCH  10  12
ATOM     12  C   UNL     1       2.673  -2.062  -0.625  0.00  0.00    +0.017 A 
ATOM     13  C   UNL     1       2.259  -2.143  -1.941  0.00  0.00    +0.024 A 
ATOM     14  C   UNL     1       3.152  -2.526  -2.925  0.00  0.00    +0.018 A 
ATOM     15  C   UNL     1       4.461  -2.827  -2.593  0.00  0.00    +0.018 A 
ATOM     16  C   UNL     1       4.876  -2.746  -1.278  0.00  0.00    +0.040 A 
ATOM     17  C   UNL     1       3.984  -2.358  -0.292  0.00  0.00    +0.129 A 
ATOM     18  F   UNL     1       4.391  -2.274   0.993  0.00  0.00    -0.205 F 
ATOM     19 BR   UNL     1       2.584  -2.636  -4.725  0.00  0.00    -0.050 Br
ENDBRANCH  10  12
BRANCH   3  20
ATOM     20  C   UNL     1      -1.727  -3.357   0.140  0.00  0.00    -0.004 A 
ATOM     21  C   UNL     1      -1.551  -4.583  -0.501  0.00  0.00    +0.013 A 
ATOM     22  C   UNL     1      -2.535  -5.546  -0.423  0.00  0.00    +0.046 A 
ATOM     23  C   UNL     1      -3.703  -5.293   0.283  0.00  0.00    +0.121 A 
ATOM     24  C   UNL     1      -3.883  -4.071   0.917  0.00  0.00    +0.046 A 
ATOM     25  C   UNL     1      -2.902  -3.105   0.849  0.00  0.00    +0.013 A 
BRANCH  23  26
ATOM     26  O   UNL     1      -4.672  -6.242   0.353  0.00  0.00    -0.481 OA
BRANCH  26  27
ATOM     27  C   UNL     1      -4.421  -7.476  -0.323  0.00  0.00    +0.353 C 
BRANCH  27  28
ATOM     28  C   UNL     1      -5.597  -8.400  -0.135  0.00  0.00    +0.393 C 
ATOM     29  O   UNL     1      -6.553  -8.038   0.510  0.00  0.00    -0.243 OA
ATOM     30  O   UNL     1      -5.584  -9.624  -0.686  0.00  0.00    -0.243 OA
ENDBRANCH  27  28
ENDBRANCH  26  27
ENDBRANCH  23  26
ENDBRANCH   3  20
TORSDOF 5
