REMARK  Name = ZINC15988684
REMARK  9 active torsions:
REMARK  status: ('A' for Active; 'I' for Inactive)
REMARK    1  A    between atoms: C_1  and  C_2
REMARK    2  A    between atoms: C_5  and  S_9
REMARK    3  A    between atoms: C_6  and  C_8
REMARK    4  A    between atoms: S_9  and  N_12
REMARK    5  A    between atoms: C_15  and  C_18
REMARK    6  A    between atoms: N_20  and  C_21
REMARK    7  A    between atoms: C_21  and  C_22
REMARK    8  A    between atoms: C_22  and  C_24
REMARK    9  A    between atoms: C_22  and  N_68
REMARK                            x       y       z     vdW  Elec       q    Type
REMARK                         _______ _______ _______ _____ _____    ______ ____
ROOT
ATOM      1  C   UNL     1       5.383   1.583   2.724  0.00  0.00    +0.216 C 
ATOM      2  O   UNL     1       4.942   1.918   3.803  0.00  0.00    -0.276 OA
ATOM      3  N   UNL     1       4.566   1.509   1.655  0.00  0.00    -0.316 N 
ATOM      4  H   UNL     1       4.919   1.242   0.792  0.00  0.00    +0.149 HD
ENDROOT
BRANCH   1   8
ATOM      5  N   UNL     1       9.184  -0.226   3.174  0.00  0.00    -0.177 NA
ATOM      6  C   UNL     1       9.035   1.108   3.772  0.00  0.00    +0.110 C 
ATOM      7  C   UNL     1       7.543   1.414   3.931  0.00  0.00    +0.030 C 
ATOM      8  C   UNL     1       6.846   1.251   2.578  0.00  0.00    +0.077 C 
ATOM      9  C   UNL     1       6.994  -0.195   2.097  0.00  0.00    +0.030 C 
ATOM     10  C   UNL     1       8.481  -0.518   1.917  0.00  0.00    +0.110 C 
BRANCH   5  11
ATOM     11  S   UNL     1      10.125  -1.377   3.902  0.00  0.00    +0.061 S 
ATOM     12  O   UNL     1      10.643  -2.195   2.862  0.00  0.00    -0.153 OA
ATOM     13  O   UNL     1      10.964  -0.693   4.822  0.00  0.00    -0.153 OA
BRANCH  11  18
ATOM     14  C   UNL     1       6.458  -4.870   7.181  0.00  0.00    +0.044 C 
ATOM     15  C   UNL     1       7.373  -3.998   6.362  0.00  0.00    -0.050 A 
ATOM     16  C   UNL     1       7.998  -4.512   5.240  0.00  0.00    +0.005 A 
ATOM     17  C   UNL     1       8.838  -3.712   4.489  0.00  0.00    +0.029 A 
ATOM     18  C   UNL     1       9.054  -2.397   4.859  0.00  0.00    +0.108 A 
ATOM     19  C   UNL     1       8.434  -1.885   5.983  0.00  0.00    -0.024 A 
ATOM     20  C   UNL     1       7.589  -2.684   6.731  0.00  0.00    +0.008 A 
ATOM     21  C   UNL     1       8.674  -0.454   6.390  0.00  0.00    +0.046 C 
ENDBRANCH  11  18
ENDBRANCH   5  11
ENDBRANCH   1   8
BRANCH   3  22
ATOM     22  C   UNL     1       3.144   1.833   1.796  0.00  0.00    +0.096 C 
BRANCH  22  23
ATOM     23  C   UNL     1       2.447   1.670   0.444  0.00  0.00    +0.016 C 
BRANCH  23  29
ATOM     24  C   UNL     1       3.199   3.893  -0.148  0.00  0.00    -0.078 C 
ATOM     25  C   UNL     1       4.046   4.685  -1.147  0.00  0.00    -0.019 C 
ATOM     26  C   UNL     1       3.422   4.572  -2.541  0.00  0.00    -0.004 C 
ATOM     27  C   UNL     1       3.324   3.095  -2.930  0.00  0.00    -0.019 C 
ATOM     28  C   UNL     1       2.497   2.349  -1.879  0.00  0.00    -0.078 C 
ATOM     29  N   UNL     1       3.164   2.476  -0.566  0.00  0.00    +0.387 N 
ATOM     30  H   UNL     1       4.127   2.129  -0.646  0.00  0.00    -0.081 HD
ENDBRANCH  23  29
BRANCH  23  31
ATOM     31  C   UNL     1       1.013   2.120   0.560  0.00  0.00    +0.093 A 
ATOM     32  C   UNL     1      -0.065   1.315   0.577  0.00  0.00    +0.043 A 
ATOM     33  C   UNL     1      -1.198   2.152   0.691  0.00  0.00    +0.041 A 
ATOM     34  C   UNL     1      -0.745   3.417   0.748  0.00  0.00    +0.195 A 
ATOM     35  O   UNL     1       0.595   3.392   0.664  0.00  0.00    -0.469 OA
ENDBRANCH  23  31
ENDBRANCH  22  23
ENDBRANCH   3  22
TORSDOF 7
