REMARK  Name = ZINC08738293
REMARK  11 active torsions:
REMARK  status: ('A' for Active; 'I' for Inactive)
REMARK    1  A    between atoms: C_1  and  C_2
REMARK    2  A    between atoms: C_2  and  C_35
REMARK    3  A    between atoms: C_7  and  C_8
REMARK    4  A    between atoms: C_7  and  N_76
REMARK    5  A    between atoms: C_9  and  O_34
REMARK    6  A    between atoms: C_10  and  C_26
REMARK    7  A    between atoms: C_13  and  O_14
REMARK    8  A    between atoms: C_18  and  C_20
REMARK    9  A    between atoms: C_26  and  N_78
REMARK   10  A    between atoms: C_30  and  C_32
REMARK   11  A    between atoms: C_30  and  C_33
REMARK                            x       y       z     vdW  Elec       q    Type
REMARK                         _______ _______ _______ _____ _____    ______ ____
ROOT
ATOM      1  C   UNL     1      -1.029  -2.098  -0.609  0.00  0.00    +0.020 A 
ATOM      2  C   UNL     1      -1.034  -0.708  -0.592  0.00  0.00    +0.127 A 
ATOM      3  C   UNL     1       0.002  -0.004   0.002  0.00  0.00    +0.021 A 
ATOM      4  C   UNL     1       1.060  -0.686   0.584  0.00  0.00    +0.148 A 
ATOM      5  C   UNL     1       1.065  -2.091   0.573  0.00  0.00    +0.106 A 
ATOM      6  C   UNL     1       0.015  -2.796  -0.029  0.00  0.00    +0.136 A 
ATOM      7  C   UNL     1       2.196  -2.794   1.202  0.00  0.00    +0.197 A 
ATOM      8  O   UNL     1       2.255  -4.013   1.219  0.00  0.00    -0.287 OA
ATOM      9  C   UNL     1       3.212  -2.000   1.788  0.00  0.00    +0.098 A 
ATOM     10  C   UNL     1       3.109  -0.645   1.749  0.00  0.00    +0.139 A 
ATOM     11  O   UNL     1       2.073  -0.016   1.172  0.00  0.00    -0.454 OA
ENDROOT
BRANCH  10  12
ATOM     12  C   UNL     1       4.179   0.166   2.364  0.00  0.00    +0.017 A 
ATOM     13  C   UNL     1       5.268  -0.458   2.977  0.00  0.00    +0.011 A 
ATOM     14  C   UNL     1       6.267   0.305   3.544  0.00  0.00    +0.001 A 
ATOM     15  C   UNL     1       6.186   1.687   3.518  0.00  0.00    +0.000 A 
ATOM     16  C   UNL     1       5.106   2.311   2.918  0.00  0.00    +0.001 A 
ATOM     17  C   UNL     1       4.104   1.560   2.341  0.00  0.00    +0.011 A 
ENDBRANCH  10  12
BRANCH   6  18
ATOM     18  O   UNL     1       0.022  -4.153  -0.044  0.00  0.00    -0.506 OA
ATOM     19  H   UNL     1       0.458  -4.535  -0.818  0.00  0.00    +0.292 HD
ENDBRANCH   6  18
BRANCH   2  20
ATOM     20  O   UNL     1      -2.063  -0.033  -1.164  0.00  0.00    -0.506 OA
ATOM     21  H   UNL     1      -1.928   0.173  -2.099  0.00  0.00    +0.292 HD
ENDBRANCH   2  20
BRANCH   1  22
ATOM     22  C   UNL     1      -2.163  -2.847  -1.260  0.00  0.00    -0.036 C 
BRANCH  22  30
ATOM     23  C   UNL     1      -3.537  -5.078  -5.422  0.00  0.00    +0.009 C 
ATOM     24  C   UNL     1      -2.547  -4.097  -4.791  0.00  0.00    -0.050 C 
ATOM     25  C   UNL     1      -1.118  -4.596  -5.019  0.00  0.00    +0.003 C 
ATOM     26  C   UNL     1      -0.137  -3.641  -4.332  0.00  0.00    -0.018 C 
ATOM     27  C   UNL     1      -0.474  -3.556  -2.842  0.00  0.00    -0.078 C 
ATOM     28  C   UNL     1      -2.814  -3.998  -3.287  0.00  0.00    -0.072 C 
ATOM     29  C   UNL     1      -2.715  -2.717  -5.431  0.00  0.00    +0.009 C 
ATOM     30  N   UNL     1      -1.853  -3.046  -2.691  0.00  0.00    +0.383 N 
ATOM     31  H   UNL     1      -1.931  -2.146  -3.177  0.00  0.00    -0.081 HD
ENDBRANCH  22  30
ENDBRANCH   1  22
BRANCH   3  32
ATOM     32  C   UNL     1      -0.018   1.503   0.010  0.00  0.00    -0.036 C 
BRANCH  32  40
ATOM     33  C   UNL     1      -0.241   1.250   2.408  0.00  0.00    -0.078 C 
ATOM     34  C   UNL     1      -1.078   1.665   3.620  0.00  0.00    -0.018 C 
ATOM     35  C   UNL     1      -0.942   3.175   3.836  0.00  0.00    +0.003 C 
ATOM     36  C   UNL     1      -1.387   3.906   2.566  0.00  0.00    -0.050 C 
ATOM     37  C   UNL     1      -0.541   3.426   1.384  0.00  0.00    -0.072 C 
ATOM     38  C   UNL     1      -1.198   5.413   2.751  0.00  0.00    +0.009 C 
ATOM     39  C   UNL     1      -2.862   3.605   2.294  0.00  0.00    +0.009 C 
ATOM     40  N   UNL     1      -0.735   1.970   1.215  0.00  0.00    +0.383 N 
ATOM     41  H   UNL     1      -1.737   1.779   1.102  0.00  0.00    -0.081 HD
ENDBRANCH  32  40
ENDBRANCH   3  32
TORSDOF 7
