REMARK  Name = ZINC42822589
REMARK  4 active torsions:
REMARK  status: ('A' for Active; 'I' for Inactive)
REMARK    1  A    between atoms: C_1  and  C_2
REMARK    2  A    between atoms: C_9  and  N_11
REMARK    3  A    between atoms: N_11  and  C_12
REMARK    4  A    between atoms: C_12  and  C_13
REMARK                            x       y       z     vdW  Elec       q    Type
REMARK                         _______ _______ _______ _____ _____    ______ ____
ROOT
ATOM      1  C   UNL     1      -0.018   1.503   0.010  0.00  0.00    +0.044 C 
ATOM      2  C   UNL     1       0.002  -0.004   0.002  0.00  0.00    -0.044 A 
ATOM      3  C   UNL     1       0.006  -0.683  -1.182  0.00  0.00    +0.051 A 
ATOM      4  C   UNL     1       0.025  -2.087  -1.172  0.00  0.00    +0.158 A 
ATOM      5  N   UNL     1       0.033  -2.998  -2.140  0.00  0.00    -0.215 NA
ATOM      6  C   UNL     1       0.052  -4.213  -1.609  0.00  0.00    +0.246 A 
ATOM      7  N   UNL     1       0.057  -4.123  -0.301  0.00  0.00    -0.152 NA
ATOM      8  N   UNL     1       0.040  -2.758   0.019  0.00  0.00    -0.199 N 
ATOM      9  C   UNL     1       0.035  -2.076   1.199  0.00  0.00    +0.123 A 
ATOM     10  C   UNL     1       0.023  -0.712   1.207  0.00  0.00    +0.047 A 
ENDROOT
BRANCH   9  11
ATOM     11  N   UNL     1       0.050  -2.771   2.395  0.00  0.00    -0.326 N 
ATOM     12  H   UNL     1       0.064  -3.740   2.393  0.00  0.00    +0.148 HD
BRANCH  11  13
ATOM     13  C   UNL     1       0.046  -2.041   3.666  0.00  0.00    +0.134 C 
BRANCH  13  14
ATOM     14  C   UNL     1       0.065  -3.038   4.826  0.00  0.00    +0.135 C 
ATOM     15  C   UNL     1      -0.065  -2.282   6.151  0.00  0.00    +0.033 C 
ATOM     16  C   UNL     1       0.016  -3.281   7.309  0.00  0.00    +0.005 C 
ATOM     17  C   UNL     1       1.332  -4.057   7.210  0.00  0.00    +0.028 C 
ATOM     18  C   UNL     1       1.408  -4.745   5.844  0.00  0.00    +0.160 C 
ATOM     19  O   UNL     1       1.296  -3.763   4.811  0.00  0.00    -0.375 OA
ENDBRANCH  13  14
ENDBRANCH  11  13
ENDBRANCH   9  11
TORSDOF 3
