REMARK  Name = ZINC17306169
REMARK  13 active torsions:
REMARK  status: ('A' for Active; 'I' for Inactive)
REMARK    1  A    between atoms: C_1  and  C_2
REMARK    2  A    between atoms: C_2  and  C_3
REMARK    3  A    between atoms: C_3  and  C_4
REMARK    4  A    between atoms: C_4  and  N_5
REMARK    5  A    between atoms: C_9  and  S_30
REMARK    6  A    between atoms: C_13  and  C_14
REMARK    7  A    between atoms: C_14  and  N_62
REMARK    8  A    between atoms: C_15  and  N_62
REMARK    9  A    between atoms: C_16  and  C_18
REMARK   10  A    between atoms: C_16  and  C_19
REMARK   11  A    between atoms: C_16  and  N_62
REMARK   12  A    between atoms: C_22  and  N_25
REMARK   13  A    between atoms: S_30  and  N_33
REMARK                            x       y       z     vdW  Elec       q    Type
REMARK                         _______ _______ _______ _____ _____    ______ ____
ROOT
ATOM      1  N   UNL     1       0.012  -2.301  -3.930  0.00  0.00    -0.329 N 
ATOM      2  C   UNL     1       0.730  -2.618  -5.066  0.00  0.00    +0.069 A 
ATOM      3  C   UNL     1       0.826  -3.749  -5.864  0.00  0.00    +0.030 A 
ATOM      4  C   UNL     1       1.661  -3.742  -6.961  0.00  0.00    +0.030 A 
ATOM      5  C   UNL     1       2.404  -2.612  -7.272  0.00  0.00    +0.107 A 
ATOM      6  C   UNL     1       2.321  -1.489  -6.498  0.00  0.00    +0.058 A 
ATOM      7  C   UNL     1       1.482  -1.474  -5.381  0.00  0.00    +0.091 A 
ATOM      8  N   UNL     1       1.188  -0.536  -4.444  0.00  0.00    -0.234 NA
ATOM      9  C   UNL     1       0.331  -1.022  -3.593  0.00  0.00    +0.094 A 
ENDROOT
BRANCH   5  10
ATOM     10  S   UNL     1       3.464  -2.625  -8.679  0.00  0.00    +0.056 S 
ATOM     11  O   UNL     1       4.462  -1.642  -8.445  0.00  0.00    -0.153 OA
ATOM     12  O   UNL     1       3.781  -3.987  -8.936  0.00  0.00    -0.153 OA
BRANCH  10  13
ATOM     13  N   UNL     1       2.571  -2.096  -9.970  0.00  0.00    -0.204 NA
ATOM     14  H   UNL     1       3.004  -1.623 -10.697  0.00  0.00    +0.144 HD
ATOM     15  H   UNL     1       1.615  -2.258  -9.998  0.00  0.00    +0.144 HD
ENDBRANCH  10  13
ENDBRANCH   5  10
BRANCH   1  16
ATOM     16  C   UNL     1      -0.921  -3.178  -3.219  0.00  0.00    +0.123 C 
BRANCH  16  17
ATOM     17  C   UNL     1      -2.328  -2.997  -3.792  0.00  0.00    +0.021 C 
BRANCH  17  19
ATOM     18  C   UNL     1      -4.710  -3.733  -3.623  0.00  0.00    +0.004 C 
ATOM     19  C   UNL     1      -3.303  -3.914  -3.050  0.00  0.00    -0.002 C 
ENDBRANCH  17  19
ENDBRANCH  16  17
ENDBRANCH   1  16
BRANCH   9  20
ATOM     20  C   UNL     1      -0.230  -0.275  -2.411  0.00  0.00    -0.003 C 
BRANCH  20  22
ATOM     21  C   UNL     1       1.954   0.101  -1.434  0.00  0.00    -0.095 C 
ATOM     22  N   UNL     1       0.630  -0.527  -1.236  0.00  0.00    +0.387 N 
ATOM     23  H   UNL     1       0.755  -1.540  -1.125  0.00  0.00    -0.081 HD
BRANCH  22  24
ATOM     24  C   UNL     1      -0.008   0.014  -0.017  0.00  0.00    -0.041 C 
ATOM     25  C   UNL     1       0.969  -0.107   1.155  0.00  0.00    -0.008 C 
BRANCH  24  26
ATOM     26  C   UNL     1      -1.249  -0.789   0.279  0.00  0.00    -0.061 A 
ATOM     27  C   UNL     1      -1.212  -2.169   0.204  0.00  0.00    +0.004 A 
ATOM     28  C   UNL     1      -2.346  -2.908   0.480  0.00  0.00    +0.028 A 
ATOM     29  C   UNL     1      -3.527  -2.262   0.821  0.00  0.00    +0.067 A 
ATOM     30  C   UNL     1      -3.562  -0.876   0.889  0.00  0.00    +0.028 A 
ATOM     31  C   UNL     1      -2.424  -0.143   0.618  0.00  0.00    +0.004 A 
BRANCH  29  32
ATOM     32  N   UNL     1      -4.681  -3.009   1.096  0.00  0.00    -0.220 N 
ATOM     33  C   UNL     1      -4.802  -4.350   1.066  0.00  0.00    +0.225 A 
ATOM     34  N   UNL     1      -6.034  -4.653   1.385  0.00  0.00    -0.222 NA
ATOM     35  C   UNL     1      -6.729  -3.539   1.617  0.00  0.00    +0.245 A 
ATOM     36  N   UNL     1      -5.944  -2.507   1.453  0.00  0.00    -0.154 NA
ENDBRANCH  29  32
ENDBRANCH  24  26
ENDBRANCH  22  24
ENDBRANCH  20  22
ENDBRANCH   9  20
TORSDOF 10
