REMARK  Name = ZINC45521313
REMARK  9 active torsions:
REMARK  status: ('A' for Active; 'I' for Inactive)
REMARK    1  A    between atoms: C_4  and  O_7
REMARK    2  A    between atoms: O_7  and  C_8
REMARK    3  A    between atoms: C_11  and  O_14
REMARK    4  A    between atoms: O_14  and  C_15
REMARK    5  A    between atoms: C_15  and  C_16
REMARK    6  A    between atoms: C_16  and  C_18
REMARK    7  A    between atoms: C_16  and  O_36
REMARK    8  A    between atoms: C_18  and  N_19
REMARK    9  A    between atoms: C_22  and  N_25
REMARK                            x       y       z     vdW  Elec       q    Type
REMARK                         _______ _______ _______ _____ _____    ______ ____
ROOT
ATOM      1  C   UNL     1       6.446  -8.833   0.345  0.00  0.00    -0.044 C 
ENDROOT
BRANCH   1   2
ATOM      2  N   UNL     1       6.349 -10.296   0.246  0.00  0.00    +0.382 N 
ATOM      3  C   UNL     1       7.697 -10.871   0.182  0.00  0.00    -0.077 C 
ATOM      4  C   UNL     1       7.601 -12.387  -0.002  0.00  0.00    +0.006 C 
ATOM      5  C   UNL     1       6.841 -12.993   1.181  0.00  0.00    +0.089 C 
ATOM      6  C   UNL     1       5.463 -12.332   1.283  0.00  0.00    +0.006 C 
ATOM      7  C   UNL     1       5.639 -10.818   1.420  0.00  0.00    -0.077 C 
ATOM      8  H   UNL     1       5.840 -10.542  -0.590  0.00  0.00    -0.082 HD
BRANCH   5   9
ATOM      9  N   UNL     1       6.678 -14.434   0.973  0.00  0.00    -0.289 N 
ATOM     10  C   UNL     1       7.155 -15.438   1.813  0.00  0.00    +0.070 A 
ATOM     11  C   UNL     1       7.869 -15.424   3.002  0.00  0.00    +0.028 A 
ATOM     12  C   UNL     1       8.205 -16.615   3.616  0.00  0.00    +0.002 A 
ATOM     13  C   UNL     1       7.833 -17.822   3.048  0.00  0.00    +0.002 A 
ATOM     14  C   UNL     1       7.124 -17.845   1.864  0.00  0.00    +0.028 A 
ATOM     15  C   UNL     1       6.781 -16.655   1.241  0.00  0.00    +0.067 A 
ATOM     16  N   UNL     1       6.087 -16.353   0.071  0.00  0.00    -0.306 N 
ATOM     17  H   UNL     1       5.702 -16.998  -0.543  0.00  0.00    +0.170 HD
ATOM     18  C   UNL     1       6.038 -15.014  -0.059  0.00  0.00    +0.328 A 
ATOM     19  O   UNL     1       5.499 -14.418  -0.973  0.00  0.00    -0.247 OA
ENDBRANCH   5   9
ENDBRANCH   1   2
BRANCH   1  20
ATOM     20  C   UNL     1       5.048  -8.221   0.241  0.00  0.00    +0.135 C 
BRANCH  20  21
ATOM     21  O   UNL     1       4.471  -8.562  -1.021  0.00  0.00    -0.390 OA
ATOM     22  H   UNL     1       4.978  -8.248  -1.782  0.00  0.00    +0.210 HD
ENDBRANCH  20  21
BRANCH  20  23
ATOM     23  C   UNL     1       5.148  -6.699   0.362  0.00  0.00    +0.258 C 
BRANCH  23  24
ATOM     24  O   UNL     1       3.835  -6.135   0.382  0.00  0.00    -0.489 OA
BRANCH  24  28
ATOM     25  C   UNL     1       3.562  -2.028   0.699  0.00  0.00    +0.129 A 
ATOM     26  C   UNL     1       2.410  -2.796   0.617  0.00  0.00    +0.050 A 
ATOM     27  C   UNL     1       2.501  -4.170   0.511  0.00  0.00    +0.049 A 
ATOM     28  C   UNL     1       3.745  -4.782   0.486  0.00  0.00    +0.121 A 
ATOM     29  C   UNL     1       4.898  -4.015   0.568  0.00  0.00    +0.049 A 
ATOM     30  C   UNL     1       4.807  -2.641   0.668  0.00  0.00    +0.050 A 
BRANCH  25  31
ATOM     31  O   UNL     1       3.473  -0.676   0.803  0.00  0.00    -0.456 OA
BRANCH  31  35
ATOM     32  C   UNL     1       2.498   0.922   4.479  0.00  0.00    +0.000 A 
ATOM     33  C   UNL     1       2.515  -0.449   4.306  0.00  0.00    +0.004 A 
ATOM     34  C   UNL     1       2.841  -0.987   3.076  0.00  0.00    +0.046 A 
ATOM     35  C   UNL     1       3.151  -0.149   2.014  0.00  0.00    +0.128 A 
ATOM     36  C   UNL     1       3.133   1.227   2.191  0.00  0.00    +0.046 A 
ATOM     37  C   UNL     1       2.807   1.759   3.423  0.00  0.00    +0.004 A 
ENDBRANCH  31  35
ENDBRANCH  25  31
ENDBRANCH  24  28
ENDBRANCH  23  24
ENDBRANCH  20  23
ENDBRANCH   1  20
TORSDOF 9
