REMARK  Name = ZINC01904123
REMARK  7 active torsions:
REMARK  status: ('A' for Active; 'I' for Inactive)
REMARK    1  A    between atoms: C_1  and  C_2
REMARK    2  A    between atoms: N_3  and  C_31
REMARK    3  A    between atoms: C_7  and  C_9
REMARK    4  A    between atoms: C_11  and  C_15
REMARK    5  A    between atoms: N_17  and  N_18
REMARK    6  A    between atoms: C_19  and  C_20
REMARK    7  A    between atoms: C_29  and  O_30
REMARK                            x       y       z     vdW  Elec       q    Type
REMARK                         _______ _______ _______ _____ _____    ______ ____
ROOT
ATOM      1  C   UNL     1       2.583  11.659  -1.085  0.00  0.00    +0.051 A 
ATOM      2  C   UNL     1       1.253  11.460  -0.932  0.00  0.00    +0.058 A 
ATOM      3  C   UNL     1       1.101  10.069  -0.718  0.00  0.00    +0.149 A 
ATOM      4  N   UNL     1       2.308   9.539  -0.762  0.00  0.00    -0.169 NA
ATOM      5  N   UNL     1       3.184  10.454  -0.976  0.00  0.00    -0.280 N 
ATOM      6  H   UNL     1       4.168  10.297  -1.051  0.00  0.00    +0.189 HD
ENDROOT
BRANCH   1  13
ATOM      7  C   UNL     1       4.859  12.906   0.833  0.00  0.00    +0.061 C 
ATOM      8  C   UNL     1       4.615  13.018  -0.650  0.00  0.00    +0.028 C 
ATOM      9  N   UNL     1       5.518  13.165  -1.560  0.00  0.00    -0.269 N 
ATOM     10  N   UNL     1       4.990  13.239  -2.846  0.00  0.00    -0.257 N 
ATOM     11  C   UNL     1       3.603  13.133  -2.807  0.00  0.00    +0.032 C 
ATOM     12  C   UNL     1       2.764  13.161  -3.827  0.00  0.00    +0.031 C 
ATOM     13  C   UNL     1       3.267  12.979  -1.336  0.00  0.00    +0.126 C 
ATOM     14  H   UNL     1       5.514  13.349  -3.654  0.00  0.00    +0.172 HD
BRANCH   9  15
ATOM     15  C   UNL     1       6.865  13.240  -1.287  0.00  0.00    +0.061 A 
ATOM     16  C   UNL     1       7.614  14.321  -1.750  0.00  0.00    +0.027 A 
ATOM     17  C   UNL     1       8.963  14.394  -1.469  0.00  0.00    +0.002 A 
ATOM     18  C   UNL     1       9.575  13.392  -0.738  0.00  0.00    +0.000 A 
ATOM     19  C   UNL     1       8.839  12.313  -0.281  0.00  0.00    +0.002 A 
ATOM     20  C   UNL     1       7.488  12.232  -0.551  0.00  0.00    +0.027 A 
ENDBRANCH   9  15
ENDBRANCH   1  13
BRANCH   3  21
ATOM     21  C   UNL     1      -0.167   9.348  -0.492  0.00  0.00    +0.283 C 
ATOM     22  O   UNL     1      -1.219   9.959  -0.475  0.00  0.00    -0.267 OA
ATOM     23  N   UNL     1      -0.160   8.014  -0.307  0.00  0.00    -0.202 N 
ATOM     24  H   UNL     1       0.678   7.526  -0.321  0.00  0.00    +0.178 HD
BRANCH  23  25
ATOM     25  N   UNL     1      -1.364   7.330  -0.093  0.00  0.00    -0.187 NA
ATOM     26  C   UNL     1      -1.368   6.033  -0.005  0.00  0.00    +0.142 C 
BRANCH  26  27
ATOM     27  C   UNL     1      -0.098   5.294   0.016  0.00  0.00    +0.044 A 
ATOM     28  C   UNL     1       0.923   5.593   1.019  0.00  0.00    -0.006 A 
ATOM     29  C   UNL     1       0.729   6.586   1.986  0.00  0.00    +0.009 A 
ATOM     30  C   UNL     1       1.704   6.829   2.907  0.00  0.00    +0.001 A 
ATOM     31  C   UNL     1       2.898   6.112   2.892  0.00  0.00    +0.001 A 
ATOM     32  C   UNL     1       3.119   5.139   1.965  0.00  0.00    +0.008 A 
ATOM     33  C   UNL     1       2.133   4.857   1.004  0.00  0.00    -0.017 A 
ATOM     34  C   UNL     1       2.327   3.860   0.032  0.00  0.00    +0.012 A 
ATOM     35  C   UNL     1       1.367   3.595  -0.893  0.00  0.00    +0.046 A 
ATOM     36  C   UNL     1       0.159   4.292  -0.919  0.00  0.00    +0.126 A 
BRANCH  36  37
ATOM     37  O   UNL     1      -0.772   3.993  -1.861  0.00  0.00    -0.506 OA
ATOM     38  H   UNL     1      -1.351   3.256  -1.622  0.00  0.00    +0.292 HD
ENDBRANCH  36  37
ENDBRANCH  26  27
ENDBRANCH  23  25
ENDBRANCH   3  21
TORSDOF 6
