REMARK  Name = ZINC39915193
REMARK  6 active torsions:
REMARK  status: ('A' for Active; 'I' for Inactive)
REMARK    1  A    between atoms: C_1  and  C_2
REMARK    2  A    between atoms: C_5  and  S_8
REMARK    3  A    between atoms: S_8  and  N_11
REMARK    4  A    between atoms: N_14  and  C_15
REMARK    5  A    between atoms: N_14  and  C_23
REMARK    6  A    between atoms: C_15  and  C_16
REMARK                            x       y       z     vdW  Elec       q    Type
REMARK                         _______ _______ _______ _____ _____    ______ ____
ROOT
ATOM      1  N   UNL     1       1.651  -4.999  -0.034  0.00  0.00    -0.072 NA
ATOM      2  C   UNL     1       1.956  -6.264  -0.043  0.00  0.00    +0.355 C 
ATOM      3  O   UNL     1       0.976  -7.195  -0.042  0.00  0.00    -0.246 OA
ATOM      4  N   UNL     1       3.273  -6.653  -0.052  0.00  0.00    -0.272 N 
ENDROOT
BRANCH   4   5
ATOM      5  C   UNL     1       4.335  -5.644  -0.053  0.00  0.00    +0.101 C 
ATOM      6  C   UNL     1       4.199  -4.747   1.189  0.00  0.00    +0.047 C 
ATOM      7  C   UNL     1       5.100  -3.498   1.038  0.00  0.00    +0.168 C 
ATOM      8  S   UNL     1       5.181  -3.276  -0.786  0.00  0.00    -0.029 S 
ATOM      9  O   UNL     1       6.527  -3.437  -1.212  0.00  0.00    -0.174 OA
ATOM     10  O   UNL     1       4.472  -2.096  -1.140  0.00  0.00    -0.174 OA
ATOM     11  C   UNL     1       4.205  -4.745  -1.315  0.00  0.00    +0.188 C 
ENDBRANCH   4   5
BRANCH   1  12
ATOM     12  S   UNL     1       0.063  -4.530  -0.023  0.00  0.00    +0.103 S 
ATOM     13  O   UNL     1      -0.476  -4.950   1.223  0.00  0.00    -0.146 OA
ATOM     14  O   UNL     1      -0.490  -4.937  -1.267  0.00  0.00    -0.146 OA
BRANCH  12  19
ATOM     15  C   UNL     1      -0.018   1.503   0.010  0.00  0.00    +0.044 C 
ATOM     16  C   UNL     1       0.002  -0.004   0.002  0.00  0.00    -0.050 A 
ATOM     17  C   UNL     1       0.006  -0.689  -1.199  0.00  0.00    +0.005 A 
ATOM     18  C   UNL     1       0.025  -2.071  -1.206  0.00  0.00    +0.029 A 
ATOM     19  C   UNL     1       0.040  -2.768  -0.013  0.00  0.00    +0.113 A 
ATOM     20  C   UNL     1       0.037  -2.084   1.188  0.00  0.00    +0.029 A 
ATOM     21  C   UNL     1       0.023  -0.702   1.195  0.00  0.00    +0.005 A 
ENDBRANCH  12  19
ENDBRANCH   1  12
BRANCH   4  22
ATOM     22  C   UNL     1       3.616  -8.078  -0.062  0.00  0.00    +0.145 C 
BRANCH  22  23
ATOM     23  C   UNL     1       3.725  -8.558  -1.486  0.00  0.00    -0.027 A 
ATOM     24  C   UNL     1       2.610  -9.054  -2.136  0.00  0.00    +0.005 A 
ATOM     25  C   UNL     1       2.709  -9.495  -3.442  0.00  0.00    +0.003 A 
ATOM     26  C   UNL     1       3.924  -9.442  -4.100  0.00  0.00    +0.038 A 
ATOM     27  C   UNL     1       5.041  -8.946  -3.450  0.00  0.00    +0.124 A 
ATOM     28  C   UNL     1       4.939  -8.498  -2.143  0.00  0.00    +0.043 A 
ATOM     29  F   UNL     1       6.229  -8.893  -4.092  0.00  0.00    -0.205 F 
ENDBRANCH  22  23
ENDBRANCH   4  22
TORSDOF 5
