REMARK  Name = ZINC20783304
REMARK  8 active torsions:
REMARK  status: ('A' for Active; 'I' for Inactive)
REMARK    1  A    between atoms: C_1  and  C_2
REMARK    2  A    between atoms: C_7  and  C_19
REMARK    3  A    between atoms: C_15  and  O_18
REMARK    4  A    between atoms: C_19  and  N_20
REMARK    5  A    between atoms: N_20  and  C_21
REMARK    6  A    between atoms: C_21  and  C_22
REMARK    7  A    between atoms: C_22  and  C_23
REMARK    8  A    between atoms: C_23  and  N_24
REMARK                            x       y       z     vdW  Elec       q    Type
REMARK                         _______ _______ _______ _____ _____    ______ ____
ROOT
ATOM      1  C   UNL     1      -0.652   1.153  -1.206  0.00  0.00    +0.044 C 
ATOM      2  C   UNL     1      -0.401  -0.316  -0.980  0.00  0.00    -0.048 A 
ATOM      3  C   UNL     1      -0.171  -1.148  -2.074  0.00  0.00    +0.004 A 
ATOM      4  C   UNL     1       0.059  -2.479  -1.902  0.00  0.00    +0.010 A 
ATOM      5  C   UNL     1       0.066  -3.021  -0.607  0.00  0.00    -0.001 A 
ATOM      6  C   UNL     1       0.301  -4.394  -0.390  0.00  0.00    +0.018 A 
ATOM      7  C   UNL     1       0.294  -4.856   0.891  0.00  0.00    +0.005 A 
ATOM      8  C   UNL     1       0.057  -3.969   1.952  0.00  0.00    +0.104 A 
ATOM      9  N   UNL     1      -0.162  -2.687   1.743  0.00  0.00    -0.343 N 
ATOM     10  C   UNL     1      -0.167  -2.177   0.506  0.00  0.00    +0.048 A 
ATOM     11  C   UNL     1      -0.396  -0.808   0.289  0.00  0.00    +0.029 A 
ATOM     12  N   UNL     1       0.053  -4.453   3.252  0.00  0.00    -0.316 N 
ATOM     13  C   UNL     1      -1.207  -4.834   3.905  0.00  0.00    +0.109 C 
ATOM     14  C   UNL     1      -1.315  -4.091   5.240  0.00  0.00    +0.050 C 
ATOM     15  C   UNL     1      -0.064  -4.370   6.076  0.00  0.00    +0.118 C 
ATOM     16  C   UNL     1       1.173  -3.856   5.336  0.00  0.00    +0.050 C 
ATOM     17  C   UNL     1       1.309  -4.601   3.999  0.00  0.00    +0.109 C 
ATOM     18  H   UNL     1      -0.323  -2.102   2.499  0.00  0.00    +0.167 HD
ENDROOT
BRANCH  15  19
ATOM     19  O   UNL     1      -0.175  -3.704   7.336  0.00  0.00    -0.392 OA
ATOM     20  H   UNL     1       0.584  -3.837   7.920  0.00  0.00    +0.210 HD
ENDBRANCH  15  19
BRANCH   7  21
ATOM     21  C   UNL     1       0.540  -6.316   1.169  0.00  0.00    +0.119 C 
BRANCH  21  22
ATOM     22  N   UNL     1      -0.743  -6.996   1.392  0.00  0.00    -0.312 NA
ATOM     23  H   UNL     1      -1.228  -6.601   2.184  0.00  0.00    +0.122 HD
BRANCH  22  24
ATOM     24  C   UNL     1      -0.550  -8.442   1.559  0.00  0.00    +0.079 C 
BRANCH  24  25
ATOM     25  C   UNL     1      -1.906  -9.114   1.789  0.00  0.00    -0.003 C 
BRANCH  25  26
ATOM     26  C   UNL     1      -1.706 -10.621   1.963  0.00  0.00    -0.077 C 
BRANCH  26  27
ATOM     27  N   UNL     1      -3.007 -11.265   2.183  0.00  0.00    +0.384 N 
ATOM     28  C   UNL     1      -3.554 -10.877   3.508  0.00  0.00    -0.071 C 
ATOM     29  C   UNL     1      -3.696 -12.232   4.275  0.00  0.00    -0.007 C 
ATOM     30  C   UNL     1      -4.110 -13.162   3.075  0.00  0.00    -0.006 C 
ATOM     31  C   UNL     1      -2.846 -12.754   2.235  0.00  0.00    -0.045 C 
ATOM     32  C   UNL     1      -1.749 -12.982   3.282  0.00  0.00    -0.046 C 
ATOM     33  C   UNL     1      -2.241 -12.673   4.490  0.00  0.00    -0.031 C 
ATOM     34  H   UNL     1      -3.652 -11.010   1.450  0.00  0.00    -0.081 HD
ENDBRANCH  26  27
ENDBRANCH  25  26
ENDBRANCH  24  25
ENDBRANCH  22  24
ENDBRANCH  21  22
ENDBRANCH   7  21
TORSDOF 7
