REMARK  Name = ZINC39671750
REMARK  12 active torsions:
REMARK  status: ('A' for Active; 'I' for Inactive)
REMARK    1  A    between atoms: C_1  and  C_2
REMARK    2  A    between atoms: C_4  and  C_37
REMARK    3  A    between atoms: N_5  and  C_7
REMARK    4  A    between atoms: C_7  and  C_8
REMARK    5  A    between atoms: C_8  and  C_9
REMARK    6  A    between atoms: C_9  and  N_10
REMARK    7  A    between atoms: C_11  and  C_13
REMARK    8  A    between atoms: C_24  and  C_26
REMARK    9  A    between atoms: C_30  and  O_33
REMARK   10  A    between atoms: C_31  and  C_32
REMARK   11  A    between atoms: O_33  and  C_34
REMARK   12  A    between atoms: C_34  and  C_36
REMARK                            x       y       z     vdW  Elec       q    Type
REMARK                         _______ _______ _______ _____ _____    ______ ____
ROOT
ATOM      1  C   UNL     1       4.951  -6.928   4.441  0.00  0.00    +0.100 C 
ATOM      2  C   UNL     1       5.512  -7.395   3.079  0.00  0.00    +0.121 C 
ATOM      3  N   UNL     1       6.452  -8.490   3.417  0.00  0.00    -0.296 N 
ATOM      4  C   UNL     1       5.776  -9.233   4.507  0.00  0.00    +0.115 C 
ATOM      5  C   UNL     1       5.126  -8.137   5.375  0.00  0.00    -0.004 C 
ATOM      6  C   UNL     1       3.768  -8.609   5.889  0.00  0.00    -0.010 C 
ATOM      7  C   UNL     1       3.972  -9.774   6.861  0.00  0.00    -0.082 C 
ATOM      8  N   UNL     1       4.816  -9.339   7.980  0.00  0.00    +0.379 N 
ATOM      9  C   UNL     1       6.151  -8.976   7.488  0.00  0.00    -0.082 C 
ATOM     10  C   UNL     1       6.040  -7.777   6.543  0.00  0.00    -0.010 C 
ATOM     11  C   UNL     1       7.650  -8.751   2.858  0.00  0.00    +0.247 C 
ATOM     12  O   UNL     1       8.267  -9.748   3.181  0.00  0.00    -0.270 OA
ATOM     13  H   UNL     1       4.395  -8.539   8.426  0.00  0.00    -0.086 HD
ATOM     14  H   UNL     1       4.899 -10.090   8.649  0.00  0.00    -0.086 HD
ENDROOT
BRANCH  11  15
ATOM     15  C   UNL     1       8.216  -7.825   1.854  0.00  0.00    +0.043 A 
ATOM     16  C   UNL     1       7.375  -7.178   0.947  0.00  0.00    +0.013 A 
ATOM     17  C   UNL     1       7.905  -6.314   0.011  0.00  0.00    +0.004 A 
ATOM     18  C   UNL     1       9.269  -6.087  -0.032  0.00  0.00    +0.047 A 
ATOM     19  C   UNL     1      10.113  -6.726   0.866  0.00  0.00    +0.135 A 
ATOM     20  C   UNL     1       9.590  -7.591   1.813  0.00  0.00    +0.004 A 
ATOM     21  C   UNL     1      10.504  -8.281   2.792  0.00  0.00    +0.048 C 
BRANCH  19  22
ATOM     22  O   UNL     1      11.452  -6.498   0.819  0.00  0.00    -0.426 OA
BRANCH  22  23
ATOM     23  C   UNL     1      12.209  -7.338   0.094  0.00  0.00    +0.309 C 
ATOM     24  O   UNL     1      11.687  -8.204  -0.566  0.00  0.00    -0.251 OA
ATOM     25  C   UNL     1      13.709  -7.199   0.104  0.00  0.00    +0.136 C 
ENDBRANCH  22  23
ENDBRANCH  19  22
ENDBRANCH  11  15
BRANCH   1  27
ATOM     26  N   UNL     1       2.945  -5.667   5.151  0.00  0.00    -0.315 N 
ATOM     27  C   UNL     1       3.493  -6.570   4.314  0.00  0.00    +0.218 C 
ATOM     28  O   UNL     1       2.813  -7.094   3.457  0.00  0.00    -0.275 OA
ATOM     29  H   UNL     1       3.490  -5.248   5.836  0.00  0.00    +0.149 HD
BRANCH  26  30
ATOM     30  C   UNL     1       1.528  -5.318   5.027  0.00  0.00    +0.106 C 
BRANCH  30  31
ATOM     31  C   UNL     1       1.163  -4.279   6.089  0.00  0.00    +0.042 C 
BRANCH  31  32
ATOM     32  C   UNL     1      -0.317  -3.915   5.959  0.00  0.00    +0.145 C 
BRANCH  32  37
ATOM     33  C   UNL     1      -1.833  -1.881  10.290  0.00  0.00    +0.067 C 
ATOM     34  C   UNL     1      -1.333  -2.052   8.879  0.00  0.00    +0.060 A 
ATOM     35  C   UNL     1      -1.005  -1.019   7.995  0.00  0.00    +0.047 A 
ATOM     36  C   UNL     1      -0.598  -1.580   6.832  0.00  0.00    +0.036 A 
ATOM     37  N   UNL     1      -0.667  -2.920   6.976  0.00  0.00    -0.268 N 
ATOM     38  N   UNL     1      -1.126  -3.192   8.271  0.00  0.00    -0.176 NA
ATOM     39  C   UNL     1      -0.149  -0.841   5.598  0.00  0.00    +0.065 C 
ENDBRANCH  32  37
ENDBRANCH  31  32
ENDBRANCH  30  31
ENDBRANCH  26  30
ENDBRANCH   1  27
TORSDOF 8
