REMARK  Name = ZINC03355713
REMARK  9 active torsions:
REMARK  status: ('A' for Active; 'I' for Inactive)
REMARK    1  A    between atoms: C_1  and  C_2
REMARK    2  A    between atoms: C_2  and  C_3
REMARK    3  A    between atoms: C_2  and  C_4
REMARK    4  A    between atoms: C_2  and  N_5
REMARK    5  A    between atoms: C_9  and  C_11
REMARK    6  A    between atoms: C_11  and  S_12
REMARK    7  A    between atoms: S_12  and  C_13
REMARK    8  A    between atoms: C_16  and  C_24
REMARK    9  A    between atoms: N_17  and  C_18
REMARK                            x       y       z     vdW  Elec       q    Type
REMARK                         _______ _______ _______ _____ _____    ______ ____
ROOT
ATOM      1  C   UNL     1       1.629   5.533  -0.548  0.00  0.00    +0.197 A 
ATOM      2  N   UNL     1       1.305   5.433   0.721  0.00  0.00    -0.122 NA
ATOM      3  N   UNL     1       1.197   4.195   1.048  0.00  0.00    -0.129 NA
ATOM      4  C   UNL     1       1.451   3.435   0.021  0.00  0.00    +0.183 A 
ATOM      5  N   UNL     1       1.733   4.259  -1.036  0.00  0.00    -0.271 N 
ENDROOT
BRANCH   4   6
ATOM      6  C   UNL     1       1.433   1.928  -0.001  0.00  0.00    +0.278 C 
ATOM      7  C   UNL     1      -0.017   1.427   0.010  0.00  0.00    +0.281 C 
ATOM      8  O   UNL     1       0.002  -0.004   0.002  0.00  0.00    -0.484 OA
ATOM      9  C   UNL     1       0.861  -0.609   0.868  0.00  0.00    +0.162 A 
ATOM     10  C   UNL     1       0.686  -1.951   1.174  0.00  0.00    +0.049 A 
ATOM     11  C   UNL     1       1.551  -2.579   2.049  0.00  0.00    +0.004 A 
ATOM     12  C   UNL     1       2.593  -1.874   2.621  0.00  0.00    +0.004 A 
ATOM     13  C   UNL     1       2.772  -0.536   2.322  0.00  0.00    +0.049 A 
ATOM     14  C   UNL     1       1.906   0.101   1.445  0.00  0.00    +0.163 A 
ATOM     15  O   UNL     1       2.091   1.420   1.165  0.00  0.00    -0.474 OA
ENDBRANCH   4   6
BRANCH   5  16
ATOM     16  C   UNL     1       2.059   3.877  -2.345  0.00  0.00    +0.050 A 
ATOM     17  C   UNL     1       3.237   3.187  -2.595  0.00  0.00    +0.026 A 
ATOM     18  C   UNL     1       3.553   2.808  -3.885  0.00  0.00    +0.002 A 
ATOM     19  C   UNL     1       2.702   3.123  -4.928  0.00  0.00    +0.000 A 
ATOM     20  C   UNL     1       1.531   3.816  -4.683  0.00  0.00    +0.002 A 
ATOM     21  C   UNL     1       1.207   4.193  -3.394  0.00  0.00    +0.026 A 
ENDBRANCH   5  16
BRANCH   1  22
ATOM     22  S   UNL     1       1.882   7.025  -1.451  0.00  0.00    -0.076 S 
BRANCH  22  23
ATOM     23  C   UNL     1       1.569   8.239  -0.145  0.00  0.00    +0.173 C 
BRANCH  23  28
ATOM     24  N   UNL     1       1.508  13.016   0.392  0.00  0.00    -0.294 N 
ATOM     25  C   UNL     1       1.694  11.944  -0.405  0.00  0.00    +0.306 C 
ATOM     26  O   UNL     1       1.993  12.100  -1.572  0.00  0.00    -0.252 OA
ATOM     27  N   UNL     1       1.548  10.701   0.094  0.00  0.00    -0.239 N 
ATOM     28  C   UNL     1       1.733   9.630  -0.702  0.00  0.00    +0.231 C 
ATOM     29  O   UNL     1       2.031   9.784  -1.867  0.00  0.00    -0.274 OA
ATOM     30  H   UNL     1       1.270  12.892   1.324  0.00  0.00    +0.151 HD
ATOM     31  H   UNL     1       1.309  10.577   1.026  0.00  0.00    +0.159 HD
BRANCH  24  33
ATOM     32  C   UNL     1       0.672  14.579  -1.292  0.00  0.00    +0.031 C 
ATOM     33  C   UNL     1       1.667  14.368  -0.150  0.00  0.00    +0.028 C 
ATOM     34  C   UNL     1       1.403  15.394   0.954  0.00  0.00    +0.031 C 
ATOM     35  C   UNL     1       3.093  14.541  -0.677  0.00  0.00    +0.031 C 
ENDBRANCH  24  33
ENDBRANCH  23  28
ENDBRANCH  22  23
ENDBRANCH   1  22
TORSDOF 6
