REMARK  Name = ZINC37538575
REMARK  6 active torsions:
REMARK  status: ('A' for Active; 'I' for Inactive)
REMARK    1  A    between atoms: C_1  and  C_2
REMARK    2  A    between atoms: C_15  and  C_16
REMARK    3  A    between atoms: C_15  and  C_17
REMARK    4  A    between atoms: C_30  and  C_32
REMARK    5  A    between atoms: C_30  and  C_33
REMARK    6  A    between atoms: N_34  and  C_37
REMARK                            x       y       z     vdW  Elec       q    Type
REMARK                         _______ _______ _______ _____ _____    ______ ____
ROOT
ATOM      1  C   UNL     1      -0.018   1.514   0.010  0.00  0.00    +0.006 C 
ATOM      2  C   UNL     1       0.002  -0.004   0.002  0.00  0.00    -0.018 C 
ATOM      3  C   UNL     1       0.771  -0.571  -1.224  0.00  0.00    -0.016 C 
ATOM      4  C   UNL     1       1.572  -1.777  -0.649  0.00  0.00    -0.077 C 
ATOM      5  N   UNL     1       0.956  -2.015   0.680  0.00  0.00    +0.391 N 
ATOM      6  C   UNL     1       0.774  -0.613   1.168  0.00  0.00    +0.016 C 
ATOM      7  C   UNL     1       0.035  -0.631   2.505  0.00  0.00    +0.003 C 
ATOM      8  C   UNL     1       0.859  -1.502   3.427  0.00  0.00    +0.017 C 
ATOM      9  C   UNL     1       2.186  -1.922   2.745  0.00  0.00    +0.027 C 
ATOM     10  C   UNL     1       1.799  -2.817   1.565  0.00  0.00    -0.051 C 
ATOM     11  C   UNL     1       2.944  -2.592   3.884  0.00  0.00    +0.045 C 
ATOM     12  C   UNL     1       2.516  -1.824   5.160  0.00  0.00    +0.081 C 
ATOM     13  C   UNL     1       1.277  -0.980   4.793  0.00  0.00    -0.012 C 
ATOM     14  C   UNL     1       1.612   0.510   4.758  0.00  0.00    +0.012 C 
ATOM     15  C   UNL     1       0.150  -1.214   5.808  0.00  0.00    +0.012 C 
ATOM     16  C   UNL     1       2.249  -2.785   6.271  0.00  0.00    -0.007 A 
ATOM     17  C   UNL     1       1.428  -3.890   6.385  0.00  0.00    +0.010 A 
ATOM     18  C   UNL     1       1.418  -4.571   7.596  0.00  0.00    +0.050 A 
ATOM     19  C   UNL     1       2.219  -4.177   8.662  0.00  0.00    +0.166 A 
ATOM     20  C   UNL     1       3.060  -3.088   8.538  0.00  0.00    +0.190 A 
ATOM     21  C   UNL     1       3.076  -2.386   7.335  0.00  0.00    +0.084 A 
ATOM     22  N   UNL     1       3.844  -1.299   6.963  0.00  0.00    -0.281 N 
ATOM     23  C   UNL     1       3.644  -0.965   5.666  0.00  0.00    +0.228 C 
ATOM     24  O   UNL     1       4.311  -0.142   5.078  0.00  0.00    -0.274 OA
ATOM     25  O   UNL     1       3.870  -2.746   9.568  0.00  0.00    -0.458 OA
ATOM     26  C   UNL     1       3.349  -2.399  10.757  0.00  0.00    +0.195 C 
ATOM     27  C   UNL     1       2.415  -3.028  11.389  0.00  0.00    +0.058 C 
ATOM     28  C   UNL     1       1.666  -4.261  10.998  0.00  0.00    +0.126 C 
ATOM     29  O   UNL     1       2.172  -4.870   9.824  0.00  0.00    -0.478 OA
ATOM     30  C   UNL     1       0.194  -3.898  10.784  0.00  0.00    +0.060 C 
ATOM     31  C   UNL     1       1.758  -5.267  12.151  0.00  0.00    +0.060 C 
ATOM     32  N   UNL     1       2.929  -0.799   2.169  0.00  0.00    -0.301 N 
ATOM     33  C   UNL     1       2.124   0.015   1.387  0.00  0.00    +0.206 C 
ATOM     34  O   UNL     1       2.525   1.075   0.959  0.00  0.00    -0.277 OA
ATOM     35  C   UNL     1       4.369  -0.542   2.292  0.00  0.00    +0.132 C 
ATOM     36  H   UNL     1       4.446  -0.823   7.555  0.00  0.00    +0.155 HD
ATOM     37  H   UNL     1       0.053  -2.444   0.560  0.00  0.00    -0.080 HD
ENDROOT
TORSDOF 0
