REMARK  Name = ZINC11472085
REMARK  8 active torsions:
REMARK  status: ('A' for Active; 'I' for Inactive)
REMARK    1  A    between atoms: C_1  and  C_2
REMARK    2  A    between atoms: C_8  and  N_10
REMARK    3  A    between atoms: C_14  and  C_16
REMARK    4  A    between atoms: C_16  and  O_17
REMARK    5  A    between atoms: O_17  and  C_18
REMARK    6  A    between atoms: C_18  and  C_20
REMARK    7  A    between atoms: C_24  and  S_26
REMARK    8  A    between atoms: S_26  and  N_29
REMARK                            x       y       z     vdW  Elec       q    Type
REMARK                         _______ _______ _______ _____ _____    ______ ____
ROOT
ATOM      1  O   UNL     1      -0.715   1.567  -1.168  0.00  0.00    -0.452 OA
ENDROOT
BRANCH   1   2
ATOM      2  C   UNL     1      -0.210   1.218  -2.368  0.00  0.00    +0.340 C 
ATOM      3  O   UNL     1       0.790   0.531  -2.429  0.00  0.00    -0.245 OA
BRANCH   2   4
ATOM      4  C   UNL     1      -0.871   1.671  -3.607  0.00  0.00    +0.061 A 
ATOM      5  C   UNL     1      -2.021   2.461  -3.540  0.00  0.00    +0.016 A 
ATOM      6  C   UNL     1      -2.634   2.881  -4.702  0.00  0.00    +0.023 A 
ATOM      7  C   UNL     1      -2.112   2.522  -5.933  0.00  0.00    +0.067 A 
ATOM      8  C   UNL     1      -0.972   1.739  -6.006  0.00  0.00    +0.124 A 
ATOM      9  C   UNL     1      -0.346   1.316  -4.852  0.00  0.00    +0.045 A 
ATOM     10 CL   UNL     1      -2.889   3.054  -7.391  0.00  0.00    -0.082 Cl
BRANCH   8  11
ATOM     11  S   UNL     1      -0.315   1.286  -7.578  0.00  0.00    +0.062 S 
ATOM     12  O   UNL     1      -0.242   2.480  -8.346  0.00  0.00    -0.153 OA
ATOM     13  O   UNL     1       0.822   0.473  -7.324  0.00  0.00    -0.153 OA
BRANCH  11  14
ATOM     14  N   UNL     1      -1.436   0.316  -8.316  0.00  0.00    -0.177 NA
ATOM     15  C   UNL     1      -1.502  -1.149  -8.213  0.00  0.00    +0.109 C 
ATOM     16  C   UNL     1      -2.687  -1.617  -9.083  0.00  0.00    +0.018 C 
ATOM     17  C   UNL     1      -2.867  -0.443 -10.082  0.00  0.00    +0.018 C 
ATOM     18  C   UNL     1      -2.529   0.778  -9.191  0.00  0.00    +0.109 C 
ENDBRANCH  11  14
ENDBRANCH   8  11
ENDBRANCH   2   4
ENDBRANCH   1   2
BRANCH   1  19
ATOM     19  C   UNL     1      -0.013   1.086   0.008  0.00  0.00    +0.328 C 
BRANCH  19  24
ATOM     20  N   UNL     1      -0.396   1.355   4.793  0.00  0.00    -0.296 N 
ATOM     21  C   UNL     1      -0.872   1.681   3.575  0.00  0.00    +0.306 C 
ATOM     22  O   UNL     1      -1.871   2.366   3.476  0.00  0.00    -0.252 OA
ATOM     23  N   UNL     1      -0.242   1.246   2.466  0.00  0.00    -0.237 N 
ATOM     24  C   UNL     1      -0.718   1.572   1.248  0.00  0.00    +0.258 C 
ATOM     25  O   UNL     1      -1.714   2.256   1.150  0.00  0.00    -0.272 OA
ATOM     26  H   UNL     1       0.401   0.807   4.871  0.00  0.00    +0.151 HD
ATOM     27  H   UNL     1       0.555   0.699   2.544  0.00  0.00    +0.159 HD
BRANCH  20  34
ATOM     28  C   UNL     1       1.050   2.847   6.810  0.00  0.00    +0.009 C 
ATOM     29  C   UNL     1      -0.088   1.886   7.160  0.00  0.00    +0.006 C 
ATOM     30  C   UNL     1       0.484   0.489   7.413  0.00  0.00    +0.005 C 
ATOM     31  C   UNL     1      -0.654  -0.472   7.762  0.00  0.00    +0.000 C 
ATOM     32  C   UNL     1      -1.647  -0.531   6.600  0.00  0.00    +0.002 C 
ATOM     33  C   UNL     1      -2.219   0.866   6.347  0.00  0.00    +0.022 C 
ATOM     34  C   UNL     1      -1.082   1.827   5.998  0.00  0.00    +0.077 C 
ENDBRANCH  20  34
ENDBRANCH  19  24
ENDBRANCH   1  19
TORSDOF 7
