REMARK  Name = ZINC12548550
REMARK  5 active torsions:
REMARK  status: ('A' for Active; 'I' for Inactive)
REMARK    1  A    between atoms: C_9  and  S_11
REMARK    2  A    between atoms: S_11  and  N_14
REMARK    3  A    between atoms: N_14  and  C_15
REMARK    4  A    between atoms: C_19  and  S_21
REMARK    5  A    between atoms: S_21  and  N_24
REMARK                            x       y       z     vdW  Elec       q    Type
REMARK                         _______ _______ _______ _____ _____    ______ ____
ROOT
ATOM      1  N   UNL     1       0.185  -5.066  -1.969  0.00  0.00    -0.216 N 
ATOM      2  H   UNL     1      -0.561  -5.548  -2.358  0.00  0.00    +0.174 HD
ENDROOT
BRANCH   1   3
ATOM      3  C   UNL     1       1.315  -4.787  -2.741  0.00  0.00    +0.050 A 
ATOM      4  C   UNL     1       1.885  -3.521  -2.710  0.00  0.00    +0.024 A 
ATOM      5  C   UNL     1       3.005  -3.250  -3.471  0.00  0.00    +0.004 A 
ATOM      6  C   UNL     1       3.553  -4.236  -4.271  0.00  0.00    +0.028 A 
ATOM      7  C   UNL     1       2.986  -5.496  -4.308  0.00  0.00    +0.107 A 
ATOM      8  C   UNL     1       1.869  -5.775  -3.546  0.00  0.00    +0.053 A 
BRANCH   7   9
ATOM      9  S   UNL     1       3.689  -6.748  -5.329  0.00  0.00    +0.056 S 
ATOM     10  O   UNL     1       5.051  -6.395  -5.525  0.00  0.00    -0.153 OA
ATOM     11  O   UNL     1       3.299  -7.995  -4.770  0.00  0.00    -0.153 OA
BRANCH   9  12
ATOM     12  N   UNL     1       2.955  -6.643  -6.810  0.00  0.00    -0.204 NA
ATOM     13  H   UNL     1       2.273  -5.970  -6.966  0.00  0.00    +0.144 HD
ATOM     14  H   UNL     1       3.206  -7.253  -7.520  0.00  0.00    +0.144 HD
ENDBRANCH   9  12
ENDBRANCH   7   9
ENDBRANCH   1   3
BRANCH   1  15
ATOM     15  S   UNL     1       0.119  -4.572  -0.390  0.00  0.00    +0.069 S 
ATOM     16  O   UNL     1       1.339  -4.978   0.214  0.00  0.00    -0.150 OA
ATOM     17  O   UNL     1      -1.149  -4.974   0.109  0.00  0.00    -0.150 OA
BRANCH  15  26
ATOM     18  C   UNL     1       1.173   2.082   0.002  0.00  0.00    +0.000 A 
ATOM     19  C   UNL     1       2.385   1.413  -0.008  0.00  0.00    +0.001 A 
ATOM     20  C   UNL     1       2.416   0.033  -0.016  0.00  0.00    +0.008 A 
ATOM     21  C   UNL     1       1.221  -0.683  -0.017  0.00  0.00    -0.020 A 
ATOM     22  C   UNL     1       0.002  -0.004   0.002  0.00  0.00    -0.040 A 
ATOM     23  C   UNL     1      -0.017   1.374   0.010  0.00  0.00    +0.004 A 
ATOM     24  C   UNL     1      -1.283  -0.790   0.029  0.00  0.00    +0.042 C 
ATOM     25  C   UNL     1      -1.128  -2.070  -0.789  0.00  0.00    +0.061 C 
ATOM     26  C   UNL     1       0.121  -2.809  -0.395  0.00  0.00    +0.087 C 
ATOM     27  C   UNL     1       1.222  -2.160  -0.051  0.00  0.00    +0.032 C 
ENDBRANCH  15  26
ENDBRANCH   1  15
TORSDOF 5
