REMARK  Name = ZINC46607907
REMARK  6 active torsions:
REMARK  status: ('A' for Active; 'I' for Inactive)
REMARK    1  A    between atoms: C_1  and  C_2
REMARK    2  A    between atoms: N_14  and  C_15
REMARK    3  A    between atoms: C_15  and  C_17
REMARK    4  A    between atoms: C_15  and  C_18
REMARK    5  A    between atoms: C_22  and  O_24
REMARK    6  A    between atoms: O_24  and  C_25
REMARK                            x       y       z     vdW  Elec       q    Type
REMARK                         _______ _______ _______ _____ _____    ______ ____
ROOT
ATOM      1  C   UNL     1       2.841  -1.346   0.265  0.00  0.00    +0.033 C 
ATOM      2  C   UNL     1       2.189  -0.354   1.230  0.00  0.00    +0.105 C 
ATOM      3  C   UNL     1       2.534   1.075   0.814  0.00  0.00    -0.017 A 
ATOM      4  C   UNL     1       3.795   1.640   0.996  0.00  0.00    +0.013 A 
ATOM      5  C   UNL     1       4.030   2.912   0.598  0.00  0.00    +0.046 A 
ATOM      6  S   UNL     1       2.442   3.388  -0.069  0.00  0.00    -0.101 S 
ATOM      7  C   UNL     1       1.588   1.863   0.234  0.00  0.00    -0.004 A 
ATOM      8  C   UNL     1       0.166   1.520  -0.070  0.00  0.00    +0.062 C 
ATOM      9  C   UNL     1       0.003  -0.006  -0.002  0.00  0.00    +0.115 C 
ATOM     10  N   UNL     1       0.728  -0.498   1.180  0.00  0.00    -0.278 N 
ATOM     11  C   UNL     1       0.062  -1.070   2.203  0.00  0.00    +0.303 C 
ATOM     12  O   UNL     1      -1.153  -1.099   2.196  0.00  0.00    -0.253 OA
ATOM     13  N   UNL     1       0.744  -1.611   3.232  0.00  0.00    -0.293 N 
ATOM     14  H   UNL     1       1.709  -1.525   3.273  0.00  0.00    +0.151 HD
ENDROOT
BRANCH  13  15
ATOM     15  C   UNL     1       0.026  -2.328   4.289  0.00  0.00    +0.102 C 
ATOM     16  C   UNL     1      -0.191  -3.781   3.862  0.00  0.00    +0.033 C 
BRANCH  15  17
ATOM     17  C   UNL     1       0.838  -2.295   5.559  0.00  0.00    -0.024 A 
ATOM     18  C   UNL     1       2.211  -2.443   5.505  0.00  0.00    +0.006 A 
ATOM     19  C   UNL     1       2.958  -2.412   6.668  0.00  0.00    +0.004 A 
ATOM     20  C   UNL     1       2.333  -2.233   7.887  0.00  0.00    +0.046 A 
ATOM     21  C   UNL     1       0.955  -2.084   7.944  0.00  0.00    +0.127 A 
ATOM     22  C   UNL     1       0.209  -2.109   6.774  0.00  0.00    +0.051 A 
BRANCH  21  23
ATOM     23  O   UNL     1       0.338  -1.908   9.142  0.00  0.00    -0.434 OA
BRANCH  23  24
ATOM     24  C   UNL     1       1.171  -1.887  10.303  0.00  0.00    +0.541 C 
ATOM     25  F   UNL     1       1.856  -3.102  10.408  0.00  0.00    -0.166 F 
ATOM     26  F   UNL     1       2.092  -0.840  10.197  0.00  0.00    -0.166 F 
ENDBRANCH  23  24
ENDBRANCH  21  23
ENDBRANCH  15  17
ENDBRANCH  13  15
TORSDOF 4
