REMARK  Name = ZINC21866435
REMARK  5 active torsions:
REMARK  status: ('A' for Active; 'I' for Inactive)
REMARK    1  A    between atoms: C_1  and  C_2
REMARK    2  A    between atoms: C_2  and  C_4
REMARK    3  A    between atoms: C_2  and  S_16
REMARK    4  A    between atoms: C_10  and  C_13
REMARK    5  A    between atoms: S_16  and  C_17
REMARK                            x       y       z     vdW  Elec       q    Type
REMARK                         _______ _______ _______ _____ _____    ______ ____
ROOT
ATOM      1  C   UNL     1      -0.812   1.596   4.434  0.00  0.00    +0.029 C 
ATOM      2  C   UNL     1      -0.762   2.720   3.398  0.00  0.00    +0.137 C 
ENDROOT
BRANCH   2   3
ATOM      3  C   UNL     1      -0.037   2.238   2.168  0.00  0.00    +0.229 C 
ATOM      4  O   UNL     1       1.149   2.457   2.038  0.00  0.00    -0.274 OA
ATOM      5  N   UNL     1      -0.706   1.562   1.213  0.00  0.00    -0.300 N 
ATOM      6  C   UNL     1      -2.146   1.289   1.351  0.00  0.00    +0.108 C 
ATOM      7  C   UNL     1      -2.868   1.797   0.099  0.00  0.00    +0.020 C 
ATOM      8  C   UNL     1      -2.228   1.174  -1.143  0.00  0.00    +0.016 C 
ATOM      9  C   UNL     1      -0.759   1.596  -1.228  0.00  0.00    +0.092 C 
ATOM     10  C   UNL     1      -0.013   1.086   0.008  0.00  0.00    +0.120 C 
BRANCH   9  11
ATOM     11  C   UNL     1      -0.138   1.008  -2.469  0.00  0.00    +0.215 C 
ATOM     12  O   UNL     1       0.808   0.256  -2.375  0.00  0.00    -0.276 OA
ATOM     13  N   UNL     1      -0.634   1.319  -3.683  0.00  0.00    -0.329 N 
ATOM     14  H   UNL     1      -0.180   0.890  -4.589  0.00  0.00    +0.145 HD
ATOM     15  H   UNL     1      -1.492   2.002  -3.769  0.00  0.00    +0.145 HD
ENDBRANCH   9  11
ENDBRANCH   2   3
BRANCH   2  16
ATOM     16  S   UNL     1       0.112   4.144   4.094  0.00  0.00    -0.075 S 
BRANCH  16  17
ATOM     17  C   UNL     1      -1.001   4.583   5.388  0.00  0.00    +0.168 A 
ATOM     18  N   UNL     1      -0.824   5.623   6.256  0.00  0.00    -0.333 N 
ATOM     19  H   UNL     1       0.069   6.261   6.177  0.00  0.00    +0.168 HD
ATOM     20  C   UNL     1      -1.912   5.632   7.113  0.00  0.00    +0.068 A 
ATOM     21  C   UNL     1      -2.288   6.433   8.181  0.00  0.00    +0.047 A 
ATOM     22  C   UNL     1      -3.467   6.175   8.852  0.00  0.00    +0.043 A 
ATOM     23  C   UNL     1      -4.280   5.119   8.463  0.00  0.00    +0.022 A 
ATOM     24  C   UNL     1      -3.921   4.315   7.405  0.00  0.00    +0.031 A 
ATOM     25  C   UNL     1      -2.731   4.562   6.716  0.00  0.00    +0.090 A 
ATOM     26  N   UNL     1      -2.124   3.966   5.657  0.00  0.00    -0.222 NA
ATOM     27 CL   UNL     1      -3.936   7.178  10.189  0.00  0.00    -0.083 Cl
ENDBRANCH  16  17
ENDBRANCH   2  16
TORSDOF 4
