REMARK  Name = ZINC39711261
REMARK  14 active torsions:
REMARK  status: ('A' for Active; 'I' for Inactive)
REMARK    1  A    between atoms: C_1  and  C_2
REMARK    2  A    between atoms: C_6  and  C_15
REMARK    3  A    between atoms: C_13  and  C_14
REMARK    4  A    between atoms: C_15  and  C_17
REMARK    5  A    between atoms: C_15  and  N_27
REMARK    6  A    between atoms: N_22  and  C_23
REMARK    7  A    between atoms: C_23  and  C_24
REMARK    8  A    between atoms: C_23  and  C_25
REMARK    9  A    between atoms: C_23  and  C_26
REMARK   10  A    between atoms: N_27  and  C_28
REMARK   11  A    between atoms: N_27  and  C_36
REMARK   12  A    between atoms: C_28  and  C_29
REMARK   13  A    between atoms: C_29  and  C_30
REMARK   14  A    between atoms: C_36  and  C_37
REMARK                            x       y       z     vdW  Elec       q    Type
REMARK                         _______ _______ _______ _____ _____    ______ ____
ROOT
ATOM      1  C   UNL     1      -1.096  -4.918  -2.759  0.00  0.00    +0.115 C 
ENDROOT
BRANCH   1   7
ATOM      2  C   UNL     1      -1.700   2.199  -2.737  0.00  0.00    +0.044 C 
ATOM      3  C   UNL     1      -1.225   0.887  -2.168  0.00  0.00    -0.047 A 
ATOM      4  C   UNL     1      -1.111  -0.190  -2.988  0.00  0.00    +0.013 A 
ATOM      5  C   UNL     1      -0.649  -1.460  -2.424  0.00  0.00    -0.007 A 
ATOM      6  C   UNL     1      -0.519  -2.567  -3.209  0.00  0.00    -0.003 C 
ATOM      7  C   UNL     1      -0.034  -3.839  -2.541  0.00  0.00    +0.119 C 
ATOM      8  C   UNL     1       0.266  -3.776  -1.061  0.00  0.00    +0.226 C 
ATOM      9  O   UNL     1       0.659  -4.766  -0.474  0.00  0.00    -0.275 OA
ATOM     10  N   UNL     1       0.100  -2.639  -0.406  0.00  0.00    -0.284 N 
ATOM     11  C   UNL     1      -0.326  -1.518  -0.988  0.00  0.00    +0.041 A 
ATOM     12  C   UNL     1      -0.479  -0.344  -0.228  0.00  0.00    +0.027 A 
ATOM     13  C   UNL     1      -0.908   0.805  -0.812  0.00  0.00    -0.046 A 
ATOM     14  C   UNL     1      -1.051   2.039   0.040  0.00  0.00    +0.044 C 
ATOM     15  H   UNL     1       0.298  -2.619   0.544  0.00  0.00    +0.155 HD
ENDBRANCH   1   7
BRANCH   1  16
ATOM     16  C   UNL     1      -0.721  -6.170  -1.964  0.00  0.00    +0.236 C 
ATOM     17  N   UNL     1       0.605  -6.656  -2.368  0.00  0.00    -0.148 NA
ATOM     18  N   UNL     1       0.490  -7.794  -2.827  0.00  0.00    -0.069 NA
ATOM     19  N   UNL     1      -0.827  -8.252  -2.819  0.00  0.00    -0.179 N 
ATOM     20  N   UNL     1      -1.640  -7.281  -2.288  0.00  0.00    -0.179 NA
ATOM     21  H   UNL     1      -1.122  -9.119  -3.137  0.00  0.00    +0.191 HD
BRANCH  20  22
ATOM     22  C   UNL     1      -2.325  -7.767  -1.083  0.00  0.00    +0.035 C 
ATOM     23  C   UNL     1      -3.076  -6.609  -0.422  0.00  0.00    +0.029 C 
ATOM     24  C   UNL     1      -3.318  -8.865  -1.468  0.00  0.00    +0.029 C 
ATOM     25  C   UNL     1      -1.295  -8.332  -0.103  0.00  0.00    +0.029 C 
ENDBRANCH  20  22
ENDBRANCH   1  16
BRANCH   1  26
ATOM     26  N   UNL     1      -2.400  -4.420  -2.302  0.00  0.00    -0.290 NA
BRANCH  26  27
ATOM     27  C   UNL     1      -2.272  -3.700  -1.028  0.00  0.00    +0.090 C 
BRANCH  27  28
ATOM     28  C   UNL     1      -3.663  -3.452  -0.440  0.00  0.00    +0.050 C 
BRANCH  28  29
ATOM     29  C   UNL     1      -3.537  -2.634   0.819  0.00  0.00    -0.046 A 
ATOM     30  C   UNL     1      -3.381  -3.263   2.040  0.00  0.00    +0.003 A 
ATOM     31  C   UNL     1      -3.266  -2.513   3.195  0.00  0.00    +0.000 A 
ATOM     32  C   UNL     1      -3.307  -1.133   3.129  0.00  0.00    +0.000 A 
ATOM     33  C   UNL     1      -3.462  -0.503   1.909  0.00  0.00    +0.000 A 
ATOM     34  C   UNL     1      -3.572  -1.253   0.753  0.00  0.00    +0.003 A 
ENDBRANCH  28  29
ENDBRANCH  27  28
ENDBRANCH  26  27
BRANCH  26  35
ATOM     35  C   UNL     1      -3.028  -3.573  -3.325  0.00  0.00    +0.127 C 
BRANCH  35  36
ATOM     36  C   UNL     1      -3.587  -4.441  -4.423  0.00  0.00    +0.004 A 
ATOM     37  C   UNL     1      -4.846  -4.919  -4.575  0.00  0.00    +0.012 A 
ATOM     38  C   UNL     1      -5.135  -5.706  -5.675  0.00  0.00    +0.008 A 
ATOM     39  C   UNL     1      -4.152  -5.976  -6.567  0.00  0.00    +0.045 A 
ATOM     40  S   UNL     1      -2.764  -5.100  -5.863  0.00  0.00    -0.100 S 
ENDBRANCH  35  36
ENDBRANCH  26  35
ENDBRANCH   1  26
TORSDOF 9
