REMARK  Name = ZINC38897561
REMARK  7 active torsions:
REMARK  status: ('A' for Active; 'I' for Inactive)
REMARK    1  A    between atoms: C_1  and  C_2
REMARK    2  A    between atoms: C_3  and  C_18
REMARK    3  A    between atoms: C_8  and  S_10
REMARK    4  A    between atoms: S_10  and  C_11
REMARK    5  A    between atoms: C_11  and  C_12
REMARK    6  A    between atoms: C_18  and  C_19
REMARK    7  A    between atoms: N_21  and  C_22
REMARK                            x       y       z     vdW  Elec       q    Type
REMARK                         _______ _______ _______ _____ _____    ______ ____
ROOT
ATOM      1  C   UNL     1      -0.026   1.504   0.029  0.00  0.00    +0.066 C 
ATOM      2  C   UNL     1      -0.001  -0.003   0.011  0.00  0.00    +0.050 A 
ATOM      3  C   UNL     1      -1.173  -0.704   0.004  0.00  0.00    +0.047 A 
ATOM      4  C   UNL     1      -1.125  -2.108  -0.013  0.00  0.00    +0.256 A 
ATOM      5  O   UNL     1      -2.153  -2.765  -0.019  0.00  0.00    -0.267 OA
ATOM      6  N   UNL     1       0.080  -2.717  -0.022  0.00  0.00    -0.302 N 
ATOM      7  H   UNL     1       0.136  -3.685  -0.034  0.00  0.00    +0.171 HD
ATOM      8  C   UNL     1       1.216  -1.966  -0.015  0.00  0.00    +0.169 A 
ATOM      9  N   UNL     1       1.162  -0.648  -0.004  0.00  0.00    -0.228 NA
ENDROOT
BRANCH   8  10
ATOM     10  S   UNL     1       2.785  -2.769  -0.026  0.00  0.00    -0.083 S 
BRANCH  10  11
ATOM     11  C   UNL     1       3.977  -1.402  -0.012  0.00  0.00    +0.112 C 
BRANCH  11  12
ATOM     12  C   UNL     1       5.378  -1.958  -0.021  0.00  0.00    -0.037 A 
ATOM     13  C   UNL     1       6.020  -2.232   1.173  0.00  0.00    +0.004 A 
ATOM     14  C   UNL     1       7.305  -2.741   1.165  0.00  0.00    +0.000 A 
ATOM     15  C   UNL     1       7.948  -2.977  -0.036  0.00  0.00    +0.000 A 
ATOM     16  C   UNL     1       7.306  -2.704  -1.229  0.00  0.00    +0.000 A 
ATOM     17  C   UNL     1       6.019  -2.198  -1.222  0.00  0.00    +0.004 A 
ENDBRANCH  11  12
ENDBRANCH  10  11
ENDBRANCH   8  10
BRANCH   3  18
ATOM     18  C   UNL     1      -2.496   0.018   0.016  0.00  0.00    +0.138 C 
BRANCH  18  19
ATOM     19  C   UNL     1      -2.999   0.167  -1.397  0.00  0.00    +0.222 C 
ATOM     20  O   UNL     1      -2.347  -0.270  -2.322  0.00  0.00    -0.275 OA
ATOM     21  N   UNL     1      -4.173   0.785  -1.633  0.00  0.00    -0.285 N 
ATOM     22  H   UNL     1      -4.727   1.074  -0.890  0.00  0.00    +0.155 HD
BRANCH  21  23
ATOM     23  C   UNL     1      -4.595   1.010  -2.950  0.00  0.00    +0.037 A 
ATOM     24  C   UNL     1      -5.296   2.166  -3.267  0.00  0.00    +0.027 A 
ATOM     25  C   UNL     1      -5.712   2.389  -4.565  0.00  0.00    +0.051 A 
ATOM     26  C   UNL     1      -5.431   1.460  -5.554  0.00  0.00    +0.166 A 
ATOM     27  C   UNL     1      -4.728   0.300  -5.240  0.00  0.00    +0.168 A 
ATOM     28  C   UNL     1      -4.307   0.080  -3.939  0.00  0.00    +0.072 A 
ATOM     29  O   UNL     1      -4.582  -0.444  -6.375  0.00  0.00    -0.453 OA
ATOM     30  C   UNL     1      -5.554   0.075  -7.302  0.00  0.00    +0.466 C 
ATOM     31  O   UNL     1      -5.725   1.444  -6.888  0.00  0.00    -0.453 OA
ENDBRANCH  21  23
ENDBRANCH  18  19
ENDBRANCH   3  18
TORSDOF 6
