REMARK  Name = ZINC01094855
REMARK  5 active torsions:
REMARK  status: ('A' for Active; 'I' for Inactive)
REMARK    1  A    between atoms: C_3  and  C_8
REMARK    2  A    between atoms: C_5  and  O_7
REMARK    3  A    between atoms: C_8  and  C_10
REMARK    4  A    between atoms: C_8  and  N_21
REMARK    5  A    between atoms: C_19  and  O_20
REMARK                            x       y       z     vdW  Elec       q    Type
REMARK                         _______ _______ _______ _____ _____    ______ ____
ROOT
ATOM      1  C   UNL     1       3.671   2.190  -0.021  0.00  0.00    +0.136 C 
ENDROOT
BRANCH   1   2
ATOM      2  C   UNL     1       4.142   2.619   1.345  0.00  0.00    +0.021 A 
ATOM      3  C   UNL     1       3.986   3.946   1.738  0.00  0.00    +0.010 A 
ATOM      4  C   UNL     1       4.401   4.366   2.965  0.00  0.00    +0.010 A 
ATOM      5  C   UNL     1       4.995   3.451   3.850  0.00  0.00    +0.004 A 
ATOM      6  C   UNL     1       5.436   3.848   5.127  0.00  0.00    +0.011 A 
ATOM      7  C   UNL     1       6.004   2.904   5.934  0.00  0.00    +0.020 A 
ATOM      8  C   UNL     1       6.133   1.591   5.485  0.00  0.00    +0.111 A 
ATOM      9  N   UNL     1       5.721   1.226   4.295  0.00  0.00    -0.251 NA
ATOM     10  C   UNL     1       5.157   2.100   3.457  0.00  0.00    +0.113 A 
ATOM     11  C   UNL     1       4.710   1.700   2.180  0.00  0.00    +0.148 A 
BRANCH  11  12
ATOM     12  O   UNL     1       4.849   0.409   1.781  0.00  0.00    -0.504 OA
ATOM     13  H   UNL     1       5.685   0.224   1.332  0.00  0.00    +0.292 HD
ENDBRANCH  11  12
ENDBRANCH   1   2
BRANCH   1  14
ATOM     14  N   UNL     1       3.704   3.337  -0.932  0.00  0.00    -0.313 N 
ATOM     15  C   UNL     1       3.864   3.136  -2.294  0.00  0.00    +0.159 A 
ATOM     16  N   UNL     1       3.995   1.999  -2.943  0.00  0.00    -0.233 NA
ATOM     17  C   UNL     1       4.140   1.976  -4.256  0.00  0.00    +0.120 A 
ATOM     18  C   UNL     1       4.147   3.171  -4.896  0.00  0.00    +0.068 A 
ATOM     19  S   UNL     1       3.930   4.287  -3.520  0.00  0.00    -0.061 S 
ATOM     20  H   UNL     1       3.613   4.237  -0.582  0.00  0.00    +0.149 HD
ENDBRANCH   1  14
BRANCH   1  23
ATOM     21  C   UNL     1      -0.096   2.069   0.216  0.00  0.00    +0.004 A 
ATOM     22  C   UNL     1       1.198   2.547   0.127  0.00  0.00    +0.006 A 
ATOM     23  C   UNL     1       2.262   1.665   0.075  0.00  0.00    -0.019 A 
ATOM     24  C   UNL     1       2.034   0.303   0.112  0.00  0.00    +0.051 A 
ATOM     25  C   UNL     1       0.736  -0.179   0.201  0.00  0.00    +0.117 A 
ATOM     26  C   UNL     1      -0.329   0.708   0.253  0.00  0.00    +0.045 A 
BRANCH  25  27
ATOM     27  O   UNL     1       0.509  -1.519   0.237  0.00  0.00    -0.507 OA
ATOM     28  H   UNL     1       0.498  -1.892   1.129  0.00  0.00    +0.292 HD
ENDBRANCH  25  27
ENDBRANCH   1  23
TORSDOF 5
