REMARK  Name = ZINC04090550
REMARK  3 active torsions:
REMARK  status: ('A' for Active; 'I' for Inactive)
REMARK    1  A    between atoms: C_1  and  N_43
REMARK    2  A    between atoms: C_14  and  C_16
REMARK    3  A    between atoms: C_25  and  O_26
REMARK                            x       y       z     vdW  Elec       q    Type
REMARK                         _______ _______ _______ _____ _____    ______ ____
ROOT
ATOM      1  C   UNL     1       2.298   0.380  -2.471  0.00  0.00    -0.095 C 
ATOM      2  C   UNL     1       0.776   1.460  -4.013  0.00  0.00    -0.073 C 
ATOM      3  C   UNL     1      -0.541   2.248  -4.062  0.00  0.00    +0.019 C 
ATOM      4  C   UNL     1      -1.642   1.346  -3.563  0.00  0.00    -0.022 A 
ATOM      5  C   UNL     1      -3.074   1.488  -3.698  0.00  0.00    +0.003 A 
ATOM      6  C   UNL     1      -3.881   2.458  -4.301  0.00  0.00    +0.010 A 
ATOM      7  C   UNL     1      -5.239   2.265  -4.235  0.00  0.00    +0.001 A 
ATOM      8  C   UNL     1      -5.796   1.165  -3.603  0.00  0.00    +0.002 A 
ATOM      9  C   UNL     1      -5.022   0.190  -2.998  0.00  0.00    +0.026 A 
ATOM     10  C   UNL     1      -3.640   0.359  -3.049  0.00  0.00    +0.047 A 
ATOM     11  N   UNL     1      -2.608  -0.393  -2.565  0.00  0.00    -0.359 N 
ATOM     12  H   UNL     1      -2.705  -1.224  -2.075  0.00  0.00    +0.166 HD
ATOM     13  C   UNL     1      -1.416   0.203  -2.876  0.00  0.00    +0.011 A 
ATOM     14  C   UNL     1      -0.030  -0.291  -2.534  0.00  0.00    +0.016 C 
ATOM     15  N   UNL     1       0.911   0.846  -2.673  0.00  0.00    +0.386 N 
ATOM     16  H   UNL     1       0.689   1.551  -1.960  0.00  0.00    -0.081 HD
ENDROOT
BRANCH  14  17
ATOM     17  C   UNL     1      -0.003  -0.774  -1.106  0.00  0.00    +0.013 A 
ATOM     18  C   UNL     1       0.025  -2.168  -0.659  0.00  0.00    +0.005 A 
ATOM     19  C   UNL     1       0.034  -3.398  -1.320  0.00  0.00    +0.010 A 
ATOM     20  C   UNL     1       0.055  -4.557  -0.596  0.00  0.00    +0.001 A 
ATOM     21  C   UNL     1       0.068  -4.521   0.792  0.00  0.00    +0.002 A 
ATOM     22  C   UNL     1       0.059  -3.318   1.464  0.00  0.00    +0.026 A 
ATOM     23  C   UNL     1       0.037  -2.127   0.748  0.00  0.00    +0.049 A 
ATOM     24  N   UNL     1       0.023  -0.797   1.118  0.00  0.00    -0.326 N 
ATOM     25  H   UNL     1       0.027  -0.473   2.032  0.00  0.00    +0.169 HD
ATOM     26  C   UNL     1       0.002  -0.004   0.002  0.00  0.00    +0.193 A 
BRANCH  26  27
ATOM     27  O   UNL     1      -0.016   1.353   0.009  0.00  0.00    -0.493 OA
ATOM     28  H   UNL     1       0.862   1.758   0.003  0.00  0.00    +0.294 HD
ENDBRANCH  26  27
ENDBRANCH  14  17
TORSDOF 2
