REMARK  Name = ZINC29698326
REMARK  10 active torsions:
REMARK  status: ('A' for Active; 'I' for Inactive)
REMARK    1  A    between atoms: C_1  and  C_2
REMARK    2  A    between atoms: C_8  and  N_10
REMARK    3  A    between atoms: C_14  and  C_16
REMARK    4  A    between atoms: C_16  and  N_17
REMARK    5  A    between atoms: N_17  and  C_18
REMARK    6  A    between atoms: N_17  and  C_33
REMARK    7  A    between atoms: C_18  and  C_19
REMARK    8  A    between atoms: C_22  and  C_25
REMARK    9  A    between atoms: N_27  and  C_28
REMARK   10  A    between atoms: C_28  and  C_29
REMARK                            x       y       z     vdW  Elec       q    Type
REMARK                         _______ _______ _______ _____ _____    ______ ____
ROOT
ATOM      1  N   UNL     1       0.984   6.791  -6.169  0.00  0.00    +0.390 N 
ATOM      2  H   UNL     1       0.990   7.375  -5.237  0.00  0.00    -0.080 HD
ENDROOT
BRANCH   1   3
ATOM      3  C   UNL     1       2.353   6.775  -6.701  0.00  0.00    -0.068 C 
ATOM      4  C   UNL     1       2.983   5.411  -6.990  0.00  0.00    -0.017 C 
ATOM      5  C   UNL     1       3.458   6.234  -5.791  0.00  0.00    -0.017 C 
ENDBRANCH   1   3
BRANCH   1   6
ATOM      6  C   UNL     1       0.528   5.432  -5.848  0.00  0.00    +0.020 C 
BRANCH   6  11
ATOM      7  N   UNL     1      -3.108   3.321  -3.517  0.00  0.00    -0.296 N 
ATOM      8  C   UNL     1      -2.446   4.447  -3.847  0.00  0.00    +0.306 C 
ATOM      9  O   UNL     1      -2.833   5.523  -3.435  0.00  0.00    -0.252 OA
ATOM     10  N   UNL     1      -1.354   4.380  -4.635  0.00  0.00    -0.242 N 
ATOM     11  C   UNL     1      -0.692   5.507  -4.966  0.00  0.00    +0.204 C 
ATOM     12  O   UNL     1      -1.078   6.580  -4.555  0.00  0.00    -0.277 OA
ATOM     13  H   UNL     1      -2.757   2.347  -3.889  0.00  0.00    +0.151 HD
ATOM     14  H   UNL     1      -1.004   3.407  -5.008  0.00  0.00    +0.159 HD
BRANCH   7  21
ATOM     15  C   UNL     1      -3.254   1.761  -1.081  0.00  0.00    +0.009 C 
ATOM     16  C   UNL     1      -4.485   2.058  -1.939  0.00  0.00    +0.006 C 
ATOM     17  C   UNL     1      -4.668   0.943  -2.971  0.00  0.00    +0.005 C 
ATOM     18  C   UNL     1      -5.900   1.240  -3.829  0.00  0.00    +0.000 C 
ATOM     19  C   UNL     1      -5.709   2.576  -4.550  0.00  0.00    +0.002 C 
ATOM     20  C   UNL     1      -5.525   3.691  -3.518  0.00  0.00    +0.022 C 
ATOM     21  C   UNL     1      -4.294   3.394  -2.660  0.00  0.00    +0.077 C 
ENDBRANCH   7  21
ENDBRANCH   6  11
ENDBRANCH   1   6
BRANCH   1  22
ATOM     22  C   UNL     1       0.063   7.447  -7.107  0.00  0.00    -0.042 C 
BRANCH  22  23
ATOM     23  C   UNL     1       0.419   8.907  -7.223  0.00  0.00    -0.064 A 
ATOM     24  C   UNL     1      -0.165   9.828  -6.372  0.00  0.00    +0.002 A 
ATOM     25  C   UNL     1       0.161  11.165  -6.470  0.00  0.00    +0.013 A 
ATOM     26  C   UNL     1       1.074  11.589  -7.436  0.00  0.00    +0.037 A 
ATOM     27  C   UNL     1       1.656  10.655  -8.295  0.00  0.00    +0.013 A 
ATOM     28  C   UNL     1       1.325   9.320  -8.183  0.00  0.00    +0.002 A 
BRANCH  26  29
ATOM     29  C   UNL     1       1.423  13.021  -7.551  0.00  0.00    +0.244 C 
ATOM     30  O   UNL     1       2.218  13.387  -8.394  0.00  0.00    -0.270 OA
ATOM     31  N   UNL     1       0.859  13.921  -6.720  0.00  0.00    -0.303 N 
ATOM     32  H   UNL     1       0.139  13.589  -5.957  0.00  0.00    +0.149 HD
BRANCH  31  33
ATOM     33  C   UNL     1       1.205  15.340  -6.834  0.00  0.00    +0.217 C 
BRANCH  33  34
ATOM     34  C   UNL     1       0.432  16.138  -5.782  0.00  0.00    +0.405 C 
ATOM     35  F   UNL     1       0.769  15.677  -4.505  0.00  0.00    -0.169 F 
ATOM     36  F   UNL     1       0.762  17.494  -5.891  0.00  0.00    -0.169 F 
ATOM     37  F   UNL     1      -0.942  15.975  -5.989  0.00  0.00    -0.169 F 
ENDBRANCH  33  34
ENDBRANCH  31  33
ENDBRANCH  26  29
ENDBRANCH  22  23
ENDBRANCH   1  22
TORSDOF 9
