REMARK  Name = ZINC03359116
REMARK  10 active torsions:
REMARK  status: ('A' for Active; 'I' for Inactive)
REMARK    1  A    between atoms: C_9  and  C_10
REMARK    2  A    between atoms: C_9  and  C_12
REMARK    3  A    between atoms: C_12  and  C_14
REMARK    4  A    between atoms: C_14  and  O_15
REMARK    5  A    between atoms: O_15  and  C_16
REMARK    6  A    between atoms: C_16  and  C_18
REMARK    7  A    between atoms: C_21  and  O_37
REMARK    8  A    between atoms: N_24  and  S_25
REMARK    9  A    between atoms: S_25  and  C_28
REMARK   10  A    between atoms: C_33  and  N_34
REMARK                            x       y       z     vdW  Elec       q    Type
REMARK                         _______ _______ _______ _____ _____    ______ ____
ROOT
ATOM      1  C   UNL     1      -1.073   0.924   3.067  0.00  0.00    +0.327 C 
ATOM      2  O   UNL     1      -0.131   0.674   2.354  0.00  0.00    -0.249 OA
ENDROOT
BRANCH   1   3
ATOM      3  C   UNL     1      -1.956   2.107   2.762  0.00  0.00    +0.191 C 
ATOM      4  C   UNL     1      -1.893   3.120   3.923  0.00  0.00    +0.064 C 
ATOM      5  C   UNL     1      -1.919   4.488   3.191  0.00  0.00    +0.132 C 
ATOM      6  C   UNL     1      -1.097   4.173   1.916  0.00  0.00    +0.141 C 
ATOM      7  N   UNL     1      -1.472   2.794   1.555  0.00  0.00    -0.160 NA
BRANCH   7   8
ATOM      8  S   UNL     1      -1.372   2.131   0.042  0.00  0.00    +0.064 S 
ATOM      9  O   UNL     1      -1.621   3.183  -0.880  0.00  0.00    -0.153 OA
ATOM     10  O   UNL     1      -2.149   0.941   0.067  0.00  0.00    -0.153 OA
BRANCH   8  11
ATOM     11  C   UNL     1       0.301   1.634  -0.200  0.00  0.00    +0.136 A 
ATOM     12  C   UNL     1       1.284   2.072   0.668  0.00  0.00    +0.031 A 
ATOM     13  C   UNL     1       2.596   1.678   0.482  0.00  0.00    +0.002 A 
ATOM     14  C   UNL     1       2.925   0.846  -0.572  0.00  0.00    +0.002 A 
ATOM     15  C   UNL     1       1.942   0.407  -1.439  0.00  0.00    +0.035 A 
ATOM     16  C   UNL     1       0.630   0.803  -1.254  0.00  0.00    +0.152 A 
BRANCH  16  17
ATOM     17  N   UNL     1      -0.422   0.334  -2.183  0.00  0.00    +0.058 N 
ATOM     18  O   UNL     1      -0.158  -0.499  -3.032  0.00  0.00    -0.126 OA
ATOM     19  O   UNL     1      -1.552   0.781  -2.099  0.00  0.00    -0.126 OA
ENDBRANCH  16  17
ENDBRANCH   8  11
ENDBRANCH   7   8
BRANCH   5  20
ATOM     20  O   UNL     1      -3.257   4.864   2.858  0.00  0.00    -0.390 OA
ATOM     21  H   UNL     1      -3.317   5.662   2.314  0.00  0.00    +0.210 HD
ENDBRANCH   5  20
ENDBRANCH   1   3
BRANCH   1  22
ATOM     22  O   UNL     1      -1.333   0.150   4.132  0.00  0.00    -0.455 OA
BRANCH  22  23
ATOM     23  C   UNL     1      -0.441  -0.971   4.366  0.00  0.00    +0.312 C 
BRANCH  23  24
ATOM     24  C   UNL     1      -0.886  -1.720   5.595  0.00  0.00    +0.214 C 
ATOM     25  O   UNL     1      -1.862  -1.345   6.215  0.00  0.00    -0.288 OA
BRANCH  24  34
ATOM     26  C   UNL     1      -1.397  -6.238  10.772  0.00  0.00    +0.002 A 
ATOM     27  C   UNL     1      -2.445  -5.347  10.935  0.00  0.00    +0.002 A 
ATOM     28  C   UNL     1      -2.619  -4.307  10.045  0.00  0.00    +0.025 A 
ATOM     29  C   UNL     1      -1.741  -4.153   8.981  0.00  0.00    +0.054 A 
ATOM     30  C   UNL     1      -0.685  -5.051   8.816  0.00  0.00    +0.054 A 
ATOM     31  C   UNL     1      -0.518  -6.094   9.717  0.00  0.00    +0.025 A 
ATOM     32  N   UNL     1       0.017  -4.654   7.684  0.00  0.00    -0.300 N 
ATOM     33  C   UNL     1      -0.588  -3.551   7.173  0.00  0.00    +0.114 C 
ATOM     34  C   UNL     1      -0.173  -2.852   6.025  0.00  0.00    +0.133 C 
ATOM     35  N   UNL     1      -1.655  -3.226   7.948  0.00  0.00    -0.300 N 
ATOM     36  H   UNL     1       0.804  -5.090   7.321  0.00  0.00    +0.153 HD
ATOM     37  H   UNL     1      -2.255  -2.477   7.805  0.00  0.00    +0.153 HD
BRANCH  34  38
ATOM     38  C   UNL     1       0.977  -3.294   5.295  0.00  0.00    +0.106 C 
ATOM     39  N   UNL     1       1.889  -3.645   4.715  0.00  0.00    -0.191 NA
ENDBRANCH  34  38
ENDBRANCH  24  34
ENDBRANCH  23  24
ENDBRANCH  22  23
ENDBRANCH   1  22
TORSDOF 10
