REMARK  Name = ZINC09908683
REMARK  6 active torsions:
REMARK  status: ('A' for Active; 'I' for Inactive)
REMARK    1  A    between atoms: C_4  and  C_7
REMARK    2  A    between atoms: C_4  and  N_63
REMARK    3  A    between atoms: C_7  and  N_8
REMARK    4  A    between atoms: C_9  and  C_11
REMARK    5  A    between atoms: C_11  and  C_12
REMARK    6  A    between atoms: C_12  and  N_13
REMARK                            x       y       z     vdW  Elec       q    Type
REMARK                         _______ _______ _______ _____ _____    ______ ____
ROOT
ATOM      1  N   UNL     1       0.616  -0.572   1.136  0.00  0.00    -0.317 N 
ATOM      2  C   UNL     1       0.755  -1.906   1.269  0.00  0.00    +0.214 C 
ATOM      3  O   UNL     1       0.273  -2.651   0.443  0.00  0.00    -0.276 OA
ATOM      4  H   UNL     1       1.001   0.024   1.797  0.00  0.00    +0.149 HD
ENDROOT
BRANCH   1   5
ATOM      5  C   UNL     1      -0.118  -0.022  -0.006  0.00  0.00    +0.092 C 
BRANCH   5   9
ATOM      6  C   UNL     1      -2.725   2.277   0.629  0.00  0.00    -0.000 C 
ATOM      7  C   UNL     1      -2.355   1.718  -0.747  0.00  0.00    -0.001 C 
ATOM      8  C   UNL     1      -0.909   2.092  -1.077  0.00  0.00    -0.010 C 
ATOM      9  C   UNL     1       0.025   1.501  -0.019  0.00  0.00    -0.049 C 
ATOM     10  C   UNL     1      -0.345   2.059   1.357  0.00  0.00    -0.010 C 
ATOM     11  C   UNL     1      -1.791   1.686   1.687  0.00  0.00    -0.001 C 
BRANCH   9  17
ATOM     12  C   UNL     1       1.747   1.501  -1.722  0.00  0.00    -0.049 C 
ATOM     13  C   UNL     1       3.180   1.945  -2.028  0.00  0.00    +0.141 C 
ATOM     14  O   UNL     1       4.071   1.345  -1.084  0.00  0.00    -0.383 OA
ATOM     15  C   UNL     1       3.776   1.673   0.276  0.00  0.00    +0.141 C 
ATOM     16  C   UNL     1       2.349   1.226   0.605  0.00  0.00    -0.049 C 
ATOM     17  N   UNL     1       1.417   1.886  -0.334  0.00  0.00    +0.387 N 
ATOM     18  H   UNL     1       1.512   2.904  -0.238  0.00  0.00    -0.081 HD
ENDBRANCH   9  17
ENDBRANCH   5   9
ENDBRANCH   1   5
BRANCH   2  19
ATOM     19  C   UNL     1       1.510  -2.472   2.444  0.00  0.00    +0.115 C 
BRANCH  19  20
ATOM     20  C   UNL     1       1.520  -3.999   2.357  0.00  0.00    +0.127 C 
BRANCH  20  21
ATOM     21  N   UNL     1       2.254  -4.549   3.499  0.00  0.00    -0.224 N 
ATOM     22  C   UNL     1       1.687  -4.875   4.681  0.00  0.00    +0.247 C 
ATOM     23  O   UNL     1       0.518  -4.772   4.989  0.00  0.00    -0.273 OA
ATOM     24  C   UNL     1       2.816  -5.392   5.535  0.00  0.00    +0.113 C 
ATOM     25  C   UNL     1       2.560  -6.842   5.967  0.00  0.00    +0.035 C 
ATOM     26  C   UNL     1       3.161  -6.919   7.394  0.00  0.00    +0.003 C 
ATOM     27  C   UNL     1       2.811  -5.533   7.991  0.00  0.00    +0.003 C 
ATOM     28  C   UNL     1       2.979  -4.556   6.806  0.00  0.00    +0.035 C 
ATOM     29  N   UNL     1       3.998  -5.297   4.676  0.00  0.00    -0.285 N 
ATOM     30  C   UNL     1       3.570  -4.797   3.500  0.00  0.00    +0.309 C 
ATOM     31  O   UNL     1       4.297  -4.591   2.548  0.00  0.00    -0.252 OA
ATOM     32  H   UNL     1       4.906  -5.548   4.907  0.00  0.00    +0.151 HD
ENDBRANCH  20  21
ENDBRANCH  19  20
ENDBRANCH   2  19
TORSDOF 6
