REMARK  Name = ZINC39674241
REMARK  10 active torsions:
REMARK  status: ('A' for Active; 'I' for Inactive)
REMARK    1  A    between atoms: C_1  and  C_2
REMARK    2  A    between atoms: C_2  and  O_3
REMARK    3  A    between atoms: O_3  and  C_4
REMARK    4  A    between atoms: C_7  and  C_10
REMARK    5  A    between atoms: C_14  and  C_23
REMARK    6  A    between atoms: N_25  and  C_26
REMARK    7  A    between atoms: C_26  and  C_28
REMARK    8  A    between atoms: C_26  and  C_29
REMARK    9  A    between atoms: C_30  and  C_36
REMARK   10  A    between atoms: C_33  and  C_35
REMARK                            x       y       z     vdW  Elec       q    Type
REMARK                         _______ _______ _______ _____ _____    ______ ____
ROOT
ATOM      1  C   UNL     1       0.571  -6.927   1.449  0.00  0.00    +0.247 C 
ATOM      2  O   UNL     1       0.174  -7.896   0.831  0.00  0.00    -0.270 OA
ATOM      3  N   UNL     1       1.357  -7.093   2.530  0.00  0.00    -0.296 N 
ATOM      4  C   UNL     1       1.838  -6.055   3.472  0.00  0.00    +0.121 C 
ATOM      5  C   UNL     1       1.761  -6.723   4.863  0.00  0.00    +0.100 C 
ATOM      6  C   UNL     1       1.828  -8.232   4.577  0.00  0.00    -0.004 C 
ATOM      7  C   UNL     1       1.932  -8.357   3.050  0.00  0.00    +0.115 C 
ATOM      8  C   UNL     1       3.058  -8.842   5.243  0.00  0.00    -0.010 C 
ATOM      9  C   UNL     1       3.072 -10.353   4.994  0.00  0.00    -0.082 C 
ATOM     10  N   UNL     1       1.848 -10.952   5.540  0.00  0.00    +0.379 N 
ATOM     11  C   UNL     1       0.675 -10.428   4.829  0.00  0.00    -0.082 C 
ATOM     12  C   UNL     1       0.559  -8.921   5.072  0.00  0.00    -0.010 C 
ATOM     13  H   UNL     1       1.887 -11.954   5.429  0.00  0.00    -0.086 HD
ATOM     14  H   UNL     1       1.773 -10.727   6.521  0.00  0.00    -0.086 HD
ENDROOT
BRANCH   1  18
ATOM     15  C   UNL     1      -0.525  -3.019   0.199  0.00  0.00    +0.121 A 
ATOM     16  C   UNL     1       0.610  -3.204   0.980  0.00  0.00    +0.046 A 
ATOM     17  C   UNL     1       0.969  -4.470   1.387  0.00  0.00    +0.016 A 
ATOM     18  C   UNL     1       0.190  -5.569   1.015  0.00  0.00    +0.037 A 
ATOM     19  C   UNL     1      -0.951  -5.378   0.231  0.00  0.00    +0.016 A 
ATOM     20  C   UNL     1      -1.306  -4.108  -0.168  0.00  0.00    +0.046 A 
BRANCH  15  21
ATOM     21  O   UNL     1      -0.875  -1.770  -0.200  0.00  0.00    -0.492 OA
BRANCH  21  23
ATOM     22  C   UNL     1      -0.579   0.625  -0.328  0.00  0.00    +0.048 C 
ATOM     23  C   UNL     1      -0.028  -0.696   0.213  0.00  0.00    +0.225 C 
ENDBRANCH  21  23
ENDBRANCH  15  21
ENDBRANCH   1  18
BRANCH   5  24
ATOM     24  C   UNL     1       0.462  -6.372   5.541  0.00  0.00    +0.219 C 
ATOM     25  O   UNL     1      -0.538  -6.190   4.879  0.00  0.00    -0.275 OA
ATOM     26  N   UNL     1       0.411  -6.261   6.883  0.00  0.00    -0.309 N 
ATOM     27  H   UNL     1       1.210  -6.407   7.413  0.00  0.00    +0.149 HD
BRANCH  26  28
ATOM     28  C   UNL     1      -0.852  -5.920   7.543  0.00  0.00    +0.100 C 
ATOM     29  C   UNL     1      -1.026  -4.401   7.558  0.00  0.00    +0.033 C 
BRANCH  28  30
ATOM     30  C   UNL     1      -0.835  -6.438   8.958  0.00  0.00    -0.001 C 
ATOM     31  C   UNL     1      -1.723  -7.239   9.552  0.00  0.00    +0.063 C 
ATOM     32  N   UNL     1      -1.367  -7.485  10.832  0.00  0.00    -0.159 NA
ATOM     33  N   UNL     1      -0.322  -6.935  11.188  0.00  0.00    -0.180 NA
ATOM     34  C   UNL     1       0.199  -6.174  10.039  0.00  0.00    +0.154 C 
ATOM     35  C   UNL     1       0.269  -4.682  10.368  0.00  0.00    +0.039 C 
ATOM     36  C   UNL     1      -2.955  -7.794   8.885  0.00  0.00    +0.067 C 
ENDBRANCH  28  30
ENDBRANCH  26  28
ENDBRANCH   5  24
TORSDOF 6
