REMARK  Name = ZINC25244534
REMARK  4 active torsions:
REMARK  status: ('A' for Active; 'I' for Inactive)
REMARK    1  A    between atoms: C_4  and  C_6
REMARK    2  A    between atoms: C_9  and  S_12
REMARK    3  A    between atoms: S_12  and  C_13
REMARK    4  A    between atoms: C_13  and  C_14
REMARK                            x       y       z     vdW  Elec       q    Type
REMARK                         _______ _______ _______ _____ _____    ______ ____
ROOT
ATOM      1  C   UNL     1       2.933  -6.662  -3.216  0.00  0.00    +0.121 A 
ATOM      2  N   UNL     1       3.666  -7.479  -2.417  0.00  0.00    -0.310 N 
ATOM      3  H   UNL     1       3.933  -7.170  -1.537  0.00  0.00    +0.170 HD
ATOM      4  C   UNL     1       4.030  -8.711  -2.822  0.00  0.00    +0.260 A 
ATOM      5  O   UNL     1       4.689  -9.434  -2.094  0.00  0.00    -0.267 OA
ATOM      6  C   UNL     1       3.628  -9.156  -4.123  0.00  0.00    +0.075 A 
ATOM      7  C   UNL     1       3.909 -10.448  -4.766  0.00  0.00    -0.023 A 
ATOM      8  C   UNL     1       3.420 -10.629  -6.005  0.00  0.00    -0.004 A 
ATOM      9  S   UNL     1       2.565  -9.117  -6.387  0.00  0.00    -0.073 S 
ATOM     10  C   UNL     1       2.874  -8.245  -4.874  0.00  0.00    +0.116 A 
ATOM     11  N   UNL     1       2.548  -7.043  -4.404  0.00  0.00    -0.226 NA
ATOM     12  C   UNL     1       3.772 -11.981  -6.564  0.00  0.00    +0.043 C 
ATOM     13  C   UNL     1       4.928 -12.481  -5.668  0.00  0.00    +0.010 C 
ATOM     14  C   UNL     1       4.660 -11.718  -4.356  0.00  0.00    +0.037 C 
ENDROOT
BRANCH   1  15
ATOM     15  C   UNL     1       2.550  -5.292  -2.719  0.00  0.00    +0.151 C 
BRANCH  15  16
ATOM     16  S   UNL     1       1.573  -4.439  -3.988  0.00  0.00    -0.079 S 
BRANCH  16  20
ATOM     17  C   UNL     1       1.130  -1.229  -1.857  0.00  0.00    +0.155 A 
ATOM     18  N   UNL     1       1.583  -2.465  -2.071  0.00  0.00    -0.205 NA
ATOM     19  H   UNL     1       0.088  -1.889  -4.718  0.00  0.00    +0.191 HD
ATOM     20  C   UNL     1       1.209  -2.874  -3.265  0.00  0.00    +0.185 A 
ATOM     21  N   UNL     1       0.496  -1.880  -3.838  0.00  0.00    -0.254 N 
ATOM     22  N   UNL     1       0.457  -0.833  -2.903  0.00  0.00    -0.157 NA
BRANCH  17  26
ATOM     23  C   UNL     1      -0.019   1.538   0.011  0.00  0.00    +0.001 C 
ATOM     24  C   UNL     1       1.477   1.939  -0.002  0.00  0.00    +0.001 C 
ATOM     25  C   UNL     1       2.107   0.881  -0.942  0.00  0.00    +0.011 C 
ATOM     26  C   UNL     1       1.353  -0.422  -0.604  0.00  0.00    +0.059 C 
ATOM     27  C   UNL     1       0.002  -0.004   0.002  0.00  0.00    +0.011 C 
ENDBRANCH  17  26
ENDBRANCH  16  20
ENDBRANCH  15  16
ENDBRANCH   1  15
TORSDOF 4
