REMARK  Name = ZINC31772934
REMARK  5 active torsions:
REMARK  status: ('A' for Active; 'I' for Inactive)
REMARK    1  A    between atoms: C_5  and  N_7
REMARK    2  A    between atoms: N_7  and  S_8
REMARK    3  A    between atoms: S_8  and  C_11
REMARK    4  A    between atoms: C_15  and  S_17
REMARK    5  A    between atoms: S_17  and  C_20
REMARK                            x       y       z     vdW  Elec       q    Type
REMARK                         _______ _______ _______ _____ _____    ______ ____
ROOT
ATOM      1  C   UNL     1       5.257   4.527  -1.825  0.00  0.00    +0.112 A 
ATOM      2  C   UNL     1       5.991   4.944  -0.731  0.00  0.00    +0.029 A 
ATOM      3  C   UNL     1       5.416   4.949   0.526  0.00  0.00    +0.004 A 
ATOM      4  C   UNL     1       4.105   4.543   0.688  0.00  0.00    +0.027 A 
ATOM      5  C   UNL     1       3.372   4.121  -0.405  0.00  0.00    +0.090 A 
ATOM      6  C   UNL     1       3.947   4.115  -1.662  0.00  0.00    +0.055 A 
ENDROOT
BRANCH   1   7
ATOM      7  S   UNL     1       5.990   4.520  -3.427  0.00  0.00    +0.092 S 
ATOM      8  O   UNL     1       7.394   4.432  -3.231  0.00  0.00    -0.148 OA
ATOM      9  O   UNL     1       5.268   3.571  -4.200  0.00  0.00    -0.148 OA
BRANCH   7  10
ATOM     10  N   UNL     1       5.698   6.002  -4.106  0.00  0.00    -0.095 NA
BRANCH  10  15
ATOM     11  C   UNL     1       7.887   8.287  -2.233  0.00  0.00    +0.002 A 
ATOM     12  C   UNL     1       7.144   9.453  -2.271  0.00  0.00    +0.003 A 
ATOM     13  C   UNL     1       5.921   9.477  -2.917  0.00  0.00    +0.040 A 
ATOM     14  C   UNL     1       5.440   8.335  -3.531  0.00  0.00    +0.148 A 
ATOM     15  C   UNL     1       6.183   7.160  -3.490  0.00  0.00    +0.109 A 
ATOM     16  C   UNL     1       7.410   7.141  -2.841  0.00  0.00    +0.029 A 
ATOM     17  F   UNL     1       4.248   8.360  -4.167  0.00  0.00    -0.203 F 
ENDBRANCH  10  15
ENDBRANCH   7  10
ENDBRANCH   1   7
BRANCH   5  18
ATOM     18  S   UNL     1       1.702   3.598  -0.198  0.00  0.00    +0.001 S 
ATOM     19  O   UNL     1       1.088   3.837  -1.456  0.00  0.00    -0.169 OA
ATOM     20  O   UNL     1       1.253   4.274   0.969  0.00  0.00    -0.169 OA
BRANCH  18  21
ATOM     21  C   UNL     1       1.809   1.814   0.116  0.00  0.00    +0.158 C 
ATOM     22  C   UNL     1       0.395   1.215   0.191  0.00  0.00    +0.051 C 
ATOM     23  C   UNL     1       0.473  -0.330   0.136  0.00  0.00    +0.168 C 
ATOM     24  S   UNL     1       2.014  -0.623  -0.824  0.00  0.00    -0.029 S 
ATOM     25  O   UNL     1       2.951  -1.301   0.002  0.00  0.00    -0.174 OA
ATOM     26  O   UNL     1       1.673  -1.169  -2.090  0.00  0.00    -0.174 OA
ATOM     27  C   UNL     1       2.568   1.120  -1.051  0.00  0.00    +0.192 C 
ENDBRANCH  18  21
ENDBRANCH   5  18
TORSDOF 5
