REMARK  Name = ZINC39711360
REMARK  13 active torsions:
REMARK  status: ('A' for Active; 'I' for Inactive)
REMARK    1  A    between atoms: C_1  and  O_2
REMARK    2  A    between atoms: O_2  and  C_3
REMARK    3  A    between atoms: C_3  and  C_4
REMARK    4  A    between atoms: C_4  and  N_5
REMARK    5  A    between atoms: C_6  and  C_10
REMARK    6  A    between atoms: C_10  and  C_12
REMARK    7  A    between atoms: C_10  and  N_26
REMARK    8  A    between atoms: C_17  and  O_24
REMARK    9  A    between atoms: O_24  and  C_25
REMARK   10  A    between atoms: N_26  and  C_27
REMARK   11  A    between atoms: N_26  and  C_34
REMARK   12  A    between atoms: C_27  and  C_28
REMARK   13  A    between atoms: C_34  and  C_35
REMARK                            x       y       z     vdW  Elec       q    Type
REMARK                         _______ _______ _______ _____ _____    ______ ____
ROOT
ATOM      1  C   UNL     1      -2.835  -2.712   3.179  0.00  0.00    +0.019 C 
ENDROOT
BRANCH   1   2
ATOM      2  C   UNL     1      -2.237  -3.764   4.115  0.00  0.00    +0.092 C 
ATOM      3  C   UNL     1      -0.919  -4.220   3.520  0.00  0.00    -0.006 C 
ATOM      4  C   UNL     1      -0.782  -5.550   3.250  0.00  0.00    -0.004 A 
ATOM      5  C   UNL     1       0.456  -6.074   2.674  0.00  0.00    +0.055 A 
ATOM      6  C   UNL     1       0.548  -7.409   2.421  0.00  0.00    +0.121 A 
ATOM      7  C   UNL     1      -0.514  -8.277   2.702  0.00  0.00    +0.047 A 
ATOM      8  C   UNL     1      -1.687  -7.849   3.236  0.00  0.00    +0.027 A 
ATOM      9  C   UNL     1      -1.883  -6.487   3.534  0.00  0.00    +0.041 A 
ATOM     10  N   UNL     1      -3.039  -6.081   4.059  0.00  0.00    -0.285 N 
ATOM     11  C   UNL     1      -3.291  -4.819   4.361  0.00  0.00    +0.223 C 
ATOM     12  O   UNL     1      -4.366  -4.509   4.838  0.00  0.00    -0.275 OA
ATOM     13  H   UNL     1      -3.729  -6.743   4.225  0.00  0.00    +0.155 HD
BRANCH   6  14
ATOM     14  O   UNL     1       1.693  -7.909   1.886  0.00  0.00    -0.495 OA
ATOM     15  C   UNL     1       1.735  -9.316   1.641  0.00  0.00    +0.277 C 
ENDBRANCH   6  14
ENDBRANCH   1   2
BRANCH   1  17
ATOM     16  N   UNL     1      -2.661  -3.485   0.755  0.00  0.00    -0.229 N 
ATOM     17  C   UNL     1      -3.326  -3.380   1.921  0.00  0.00    +0.139 A 
ATOM     18  N   UNL     1      -4.482  -3.972   1.749  0.00  0.00    -0.115 NA
ATOM     19  N   UNL     1      -4.526  -4.418   0.541  0.00  0.00    -0.023 NA
ATOM     20  N   UNL     1      -3.429  -4.120  -0.064  0.00  0.00    -0.044 NA
BRANCH  16  21
ATOM     21  C   UNL     1      -1.320  -2.969   0.469  0.00  0.00    +0.175 C 
BRANCH  21  22
ATOM     22  C   UNL     1      -1.416  -1.498   0.061  0.00  0.00    +0.183 C 
BRANCH  22  24
ATOM     23  C   UNL     1      -0.081   0.391  -0.569  0.00  0.00    +0.194 C 
ATOM     24  O   UNL     1      -0.104  -0.984  -0.180  0.00  0.00    -0.381 OA
ENDBRANCH  22  24
ENDBRANCH  21  22
ENDBRANCH  16  21
ENDBRANCH   1  17
BRANCH   1  25
ATOM     25  N   UNL     1      -3.959  -2.044   3.849  0.00  0.00    +0.394 N 
ATOM     26  H   UNL     1      -4.690  -2.715   4.031  0.00  0.00    -0.080 HD
BRANCH  25  27
ATOM     27  C   UNL     1      -4.480  -0.976   2.984  0.00  0.00    -0.041 C 
BRANCH  27  28
ATOM     28  C   UNL     1      -5.348  -1.579   1.910  0.00  0.00    -0.064 A 
ATOM     29  C   UNL     1      -4.823  -1.824   0.655  0.00  0.00    +0.002 A 
ATOM     30  C   UNL     1      -5.619  -2.377  -0.331  0.00  0.00    +0.000 A 
ATOM     31  C   UNL     1      -6.939  -2.684  -0.062  0.00  0.00    +0.000 A 
ATOM     32  C   UNL     1      -7.464  -2.440   1.193  0.00  0.00    +0.000 A 
ATOM     33  C   UNL     1      -6.667  -1.891   2.180  0.00  0.00    +0.002 A 
ENDBRANCH  27  28
ENDBRANCH  25  27
BRANCH  25  34
ATOM     34  C   UNL     1      -3.499  -1.465   5.118  0.00  0.00    -0.002 C 
BRANCH  34  35
ATOM     35  C   UNL     1      -4.673  -0.873   5.855  0.00  0.00    +0.089 A 
ATOM     36  C   UNL     1      -5.413  -1.498   6.788  0.00  0.00    +0.042 A 
ATOM     37  C   UNL     1      -6.401  -0.579   7.211  0.00  0.00    +0.041 A 
ATOM     38  C   UNL     1      -6.205   0.553   6.512  0.00  0.00    +0.195 A 
ATOM     39  O   UNL     1      -5.153   0.371   5.696  0.00  0.00    -0.470 OA
ENDBRANCH  34  35
ENDBRANCH  25  34
ENDBRANCH   1  25
TORSDOF 11
