REMARK  Name = ZINC33812256
REMARK  11 active torsions:
REMARK  status: ('A' for Active; 'I' for Inactive)
REMARK    1  A    between atoms: C_1  and  C_2
REMARK    2  A    between atoms: C_3  and  C_22
REMARK    3  A    between atoms: C_4  and  N_12
REMARK    4  A    between atoms: N_5  and  C_11
REMARK    5  A    between atoms: C_8  and  C_9
REMARK    6  A    between atoms: C_14  and  C_21
REMARK    7  A    between atoms: C_17  and  C_20
REMARK    8  A    between atoms: N_26  and  C_30
REMARK    9  A    between atoms: C_30  and  C_31
REMARK   10  A    between atoms: C_34  and  O_37
REMARK   11  A    between atoms: O_37  and  C_38
REMARK                            x       y       z     vdW  Elec       q    Type
REMARK                         _______ _______ _______ _____ _____    ______ ____
ROOT
ATOM      1  C   UNL     1       0.105  -0.145  -1.125  0.00  0.00    +0.046 C 
ATOM      2  C   UNL     1      -0.050   1.292  -0.699  0.00  0.00    -0.017 A 
ATOM      3  C   UNL     1       1.067   2.039  -0.287  0.00  0.00    +0.019 A 
ATOM      4  C   UNL     1       0.897   3.377   0.105  0.00  0.00    +0.111 A 
ATOM      5  N   UNL     1      -0.334   3.950   0.088  0.00  0.00    -0.298 N 
ATOM      6  C   UNL     1      -1.419   3.256  -0.303  0.00  0.00    +0.270 A 
ATOM      7  O   UNL     1      -2.511   3.796  -0.309  0.00  0.00    -0.266 OA
ATOM      8  C   UNL     1      -1.300   1.904  -0.713  0.00  0.00    +0.120 A 
ATOM      9  C   UNL     1      -0.484   5.347   0.502  0.00  0.00    +0.154 C 
ENDROOT
BRANCH   4  10
ATOM     10  N   UNL     1       1.977   4.107   0.507  0.00  0.00    -0.315 N 
ATOM     11  C   UNL     1       2.914   4.315  -0.604  0.00  0.00    +0.109 C 
ATOM     12  C   UNL     1       4.036   5.255  -0.158  0.00  0.00    +0.004 C 
ATOM     13  C   UNL     1       4.764   4.641   1.041  0.00  0.00    +0.009 C 
ATOM     14  C   UNL     1       3.757   4.390   2.166  0.00  0.00    +0.004 C 
ATOM     15  C   UNL     1       2.643   3.474   1.653  0.00  0.00    +0.109 C 
ATOM     16  C   UNL     1       4.465   3.721   3.346  0.00  0.00    +0.009 C 
ATOM     17  C   UNL     1       3.441   6.606   0.244  0.00  0.00    +0.009 C 
ENDBRANCH   4  10
BRANCH   3  18
ATOM     18  C   UNL     1       2.397   1.427  -0.265  0.00  0.00    +0.032 C 
ATOM     19  C   UNL     1       2.666   0.413   0.602  0.00  0.00    +0.077 C 
ATOM     20  C   UNL     1       1.852  -0.134   1.640  0.00  0.00    +0.259 C 
ATOM     21  O   UNL     1       0.737   0.304   1.859  0.00  0.00    -0.269 OA
ATOM     22  N   UNL     1       2.344  -1.131   2.354  0.00  0.00    -0.251 N 
ATOM     23  C   UNL     1       3.584  -1.612   2.115  0.00  0.00    +0.121 C 
ATOM     24  S   UNL     1       4.416  -2.879   2.912  0.00  0.00    -0.027 S 
ATOM     25  S   UNL     1       4.137  -0.590   0.758  0.00  0.00    -0.061 S 
BRANCH  22  26
ATOM     26  C   UNL     1       1.536  -1.721   3.424  0.00  0.00    +0.150 C 
BRANCH  26  27
ATOM     27  C   UNL     1       1.799  -0.989   4.714  0.00  0.00    -0.029 A 
ATOM     28  C   UNL     1       2.805  -1.420   5.559  0.00  0.00    +0.009 A 
ATOM     29  C   UNL     1       3.052  -0.747   6.740  0.00  0.00    +0.046 A 
ATOM     30  C   UNL     1       2.283   0.355   7.083  0.00  0.00    +0.120 A 
ATOM     31  C   UNL     1       1.270   0.782   6.237  0.00  0.00    +0.046 A 
ATOM     32  C   UNL     1       1.031   0.109   5.054  0.00  0.00    +0.009 A 
BRANCH  30  33
ATOM     33  O   UNL     1       2.520   1.016   8.247  0.00  0.00    -0.495 OA
ATOM     34  C   UNL     1       3.579   0.520   9.070  0.00  0.00    +0.277 C 
ENDBRANCH  30  33
ENDBRANCH  26  27
ENDBRANCH  22  26
ENDBRANCH   3  18
BRANCH   8  35
ATOM     35  C   UNL     1      -2.457   1.172  -1.133  0.00  0.00    +0.105 C 
ATOM     36  N   UNL     1      -3.375   0.592  -1.466  0.00  0.00    -0.191 NA
ENDBRANCH   8  35
TORSDOF 6
