REMARK  Name = ZINC61881584
REMARK  11 active torsions:
REMARK  status: ('A' for Active; 'I' for Inactive)
REMARK    1  A    between atoms: C_1  and  C_2
REMARK    2  A    between atoms: C_2  and  C_3
REMARK    3  A    between atoms: C_2  and  C_4
REMARK    4  A    between atoms: C_2  and  C_18
REMARK    5  A    between atoms: C_4  and  N_5
REMARK    6  A    between atoms: N_5  and  S_6
REMARK    7  A    between atoms: S_6  and  C_9
REMARK    8  A    between atoms: C_13  and  N_16
REMARK    9  A    between atoms: C_18  and  N_19
REMARK   10  A    between atoms: N_19  and  C_20
REMARK   11  A    between atoms: N_19  and  C_21
REMARK                            x       y       z     vdW  Elec       q    Type
REMARK                         _______ _______ _______ _____ _____    ______ ____
ROOT
ATOM      1  S   UNL     1      -3.701   1.210   1.244  0.00  0.00    +0.060 S 
ATOM      2  O   UNL     1      -3.982   2.176   2.248  0.00  0.00    -0.153 OA
ATOM      3  O   UNL     1      -4.080   1.390  -0.113  0.00  0.00    -0.153 OA
ENDROOT
BRANCH   1   4
ATOM      4  C   UNL     1      -4.437  -0.299   1.777  0.00  0.00    +0.122 A 
ATOM      5  C   UNL     1      -5.236  -1.021   0.910  0.00  0.00    +0.049 A 
ATOM      6  C   UNL     1      -5.816  -2.207   1.325  0.00  0.00    +0.045 A 
ATOM      7  C   UNL     1      -5.598  -2.674   2.608  0.00  0.00    +0.044 A 
ATOM      8  C   UNL     1      -4.796  -1.951   3.481  0.00  0.00    +0.042 A 
ATOM      9  C   UNL     1      -4.211  -0.762   3.059  0.00  0.00    +0.065 A 
ATOM     10 BR   UNL     1      -3.112   0.223   4.241  0.00  0.00    -0.046 Br
ATOM     11 CL   UNL     1      -6.819  -3.110   0.233  0.00  0.00    -0.083 Cl
BRANCH   8  12
ATOM     12  N   UNL     1      -4.574  -2.419   4.778  0.00  0.00    -0.357 N 
ATOM     13  H   UNL     1      -4.981  -3.250   5.070  0.00  0.00    +0.142 HD
ATOM     14  H   UNL     1      -4.014  -1.913   5.387  0.00  0.00    +0.142 HD
ENDBRANCH   8  12
ENDBRANCH   1   4
BRANCH   1  15
ATOM     15  N   UNL     1      -2.060   0.984   1.252  0.00  0.00    -0.189 NA
ATOM     16  H   UNL     1      -1.501   1.507   1.847  0.00  0.00    +0.148 HD
BRANCH  15  17
ATOM     17  C   UNL     1      -1.453  -0.006   0.359  0.00  0.00    +0.110 C 
BRANCH  17  19
ATOM     18  C   UNL     1       0.300   1.652  -0.289  0.00  0.00    +0.010 C 
ATOM     19  C   UNL     1       0.053   0.247   0.265  0.00  0.00    -0.036 C 
ATOM     20  C   UNL     1       0.678   0.130   1.656  0.00  0.00    +0.010 C 
BRANCH  19  21
ATOM     21  C   UNL     1       0.686  -0.787  -0.668  0.00  0.00    -0.072 C 
BRANCH  21  22
ATOM     22  N   UNL     1       2.129  -0.533  -0.773  0.00  0.00    +0.376 N 
ATOM     23  C   UNL     1       2.828  -1.214   0.325  0.00  0.00    -0.097 C 
ATOM     24  C   UNL     1       2.624  -1.042  -2.059  0.00  0.00    -0.097 C 
ATOM     25  H   UNL     1       2.301   0.460  -0.716  0.00  0.00    -0.083 HD
ENDBRANCH  21  22
ENDBRANCH  19  21
ENDBRANCH  17  19
ENDBRANCH  15  17
ENDBRANCH   1  15
TORSDOF 7
