REMARK  Name = ZINC06443799
REMARK  7 active torsions:
REMARK  status: ('A' for Active; 'I' for Inactive)
REMARK    1  A    between atoms: C_1  and  C_2
REMARK    2  A    between atoms: C_12  and  C_14
REMARK    3  A    between atoms: C_14  and  C_16
REMARK    4  A    between atoms: C_14  and  N_58
REMARK    5  A    between atoms: N_20  and  C_21
REMARK    6  A    between atoms: C_21  and  C_22
REMARK    7  A    between atoms: C_31  and  O_34
REMARK                            x       y       z     vdW  Elec       q    Type
REMARK                         _______ _______ _______ _____ _____    ______ ____
ROOT
ATOM      1  C   UNL     1       0.408  -2.537   4.804  0.00  0.00    +0.039 C 
ENDROOT
BRANCH   1  13
ATOM      2  C   UNL     1       1.472   1.919   0.090  0.00  0.00    +0.046 C 
ATOM      3  C   UNL     1       1.194   0.440   0.017  0.00  0.00    -0.026 A 
ATOM      4  C   UNL     1       1.124  -0.191  -1.207  0.00  0.00    +0.005 A 
ATOM      5  C   UNL     1       0.875  -1.554  -1.288  0.00  0.00    +0.001 A 
ATOM      6  C   UNL     1       0.682  -2.294  -0.155  0.00  0.00    +0.010 A 
ATOM      7  C   UNL     1       0.742  -1.674   1.097  0.00  0.00    -0.001 A 
ATOM      8  C   UNL     1       1.001  -0.293   1.183  0.00  0.00    +0.052 A 
ATOM      9  N   UNL     1       1.061   0.314   2.420  0.00  0.00    -0.322 N 
ATOM     10  H   UNL     1       1.239   1.265   2.478  0.00  0.00    +0.169 HD
ATOM     11  C   UNL     1       0.874  -0.395   3.547  0.00  0.00    +0.251 A 
ATOM     12  O   UNL     1       0.933   0.174   4.623  0.00  0.00    -0.268 OA
ATOM     13  C   UNL     1       0.612  -1.782   3.515  0.00  0.00    +0.011 A 
ATOM     14  C   UNL     1       0.541  -2.436   2.330  0.00  0.00    +0.017 A 
ENDBRANCH   1  13
BRANCH   1  20
ATOM     15  C   UNL     1      -1.844  -1.650   4.790  0.00  0.00    -0.075 C 
ATOM     16  C   UNL     1      -2.856  -0.837   5.602  0.00  0.00    +0.013 C 
ATOM     17  C   UNL     1      -3.211  -1.603   6.879  0.00  0.00    +0.111 C 
ATOM     18  C   UNL     1      -1.932  -1.871   7.677  0.00  0.00    +0.013 C 
ATOM     19  C   UNL     1      -0.948  -2.654   6.806  0.00  0.00    -0.075 C 
ATOM     20  N   UNL     1      -0.627  -1.853   5.605  0.00  0.00    +0.389 N 
ATOM     21  H   UNL     1      -0.269  -0.937   5.902  0.00  0.00    -0.080 HD
BRANCH  17  22
ATOM     22  O   UNL     1      -4.112  -0.823   7.668  0.00  0.00    -0.392 OA
ATOM     23  H   UNL     1      -4.945  -0.615   7.224  0.00  0.00    +0.210 HD
ENDBRANCH  17  22
ENDBRANCH   1  20
BRANCH   1  24
ATOM     24  C   UNL     1       1.696  -2.551   5.586  0.00  0.00    +0.143 A 
ATOM     25  N   UNL     1       2.171  -1.583   6.330  0.00  0.00    -0.115 NA
ATOM     26  N   UNL     1       3.290  -1.978   6.833  0.00  0.00    -0.023 NA
ATOM     27  N   UNL     1       3.545  -3.171   6.422  0.00  0.00    -0.044 NA
ATOM     28  N   UNL     1       2.586  -3.560   5.651  0.00  0.00    -0.226 N 
BRANCH  28  29
ATOM     29  C   UNL     1       2.484  -4.855   4.973  0.00  0.00    +0.182 C 
BRANCH  29  30
ATOM     30  C   UNL     1       1.877  -5.866   5.910  0.00  0.00    -0.026 A 
ATOM     31  C   UNL     1       2.690  -6.611   6.744  0.00  0.00    +0.008 A 
ATOM     32  C   UNL     1       2.134  -7.535   7.608  0.00  0.00    +0.038 A 
ATOM     33  C   UNL     1       0.762  -7.723   7.630  0.00  0.00    +0.123 A 
ATOM     34  C   UNL     1      -0.051  -6.980   6.791  0.00  0.00    +0.038 A 
ATOM     35  C   UNL     1       0.507  -6.053   5.932  0.00  0.00    +0.008 A 
ATOM     36  F   UNL     1       0.218  -8.630   8.471  0.00  0.00    -0.205 F 
ENDBRANCH  29  30
ENDBRANCH  28  29
ENDBRANCH   1  24
TORSDOF 6
