REMARK  Name = ZINC16448022
REMARK  16 active torsions:
REMARK  status: ('A' for Active; 'I' for Inactive)
REMARK    1  A    between atoms: C_1  and  C_2
REMARK    2  A    between atoms: C_2  and  O_3
REMARK    3  A    between atoms: O_3  and  C_4
REMARK    4  A    between atoms: C_6  and  C_24
REMARK    5  A    between atoms: C_9  and  O_10
REMARK    6  A    between atoms: O_10  and  C_11
REMARK    7  A    between atoms: C_11  and  C_12
REMARK    8  A    between atoms: N_14  and  C_15
REMARK    9  A    between atoms: C_15  and  C_16
REMARK   10  A    between atoms: C_16  and  C_17
REMARK   11  A    between atoms: C_24  and  N_60
REMARK   12  A    between atoms: C_25  and  C_26
REMARK   13  A    between atoms: C_25  and  C_27
REMARK   14  A    between atoms: C_25  and  C_28
REMARK   15  A    between atoms: C_25  and  N_60
REMARK   16  A    between atoms: C_28  and  O_29
REMARK                            x       y       z     vdW  Elec       q    Type
REMARK                         _______ _______ _______ _____ _____    ______ ____
ROOT
ATOM      1  C   UNL     1      -1.010   3.230   2.954  0.00  0.00    +0.163 A 
ATOM      2  C   UNL     1      -0.359   2.779   1.817  0.00  0.00    +0.051 A 
ATOM      3  C   UNL     1      -0.718   1.572   1.248  0.00  0.00    -0.060 A 
ATOM      4  C   UNL     1      -1.719   0.807   1.817  0.00  0.00    +0.020 A 
ATOM      5  C   UNL     1      -2.369   1.248   2.954  0.00  0.00    +0.059 A 
ATOM      6  C   UNL     1      -2.018   2.461   3.527  0.00  0.00    +0.176 A 
ATOM      7  I   UNL     1      -3.886   0.085   3.813  0.00  0.00    -0.040 I 
ENDROOT
BRANCH   1   8
ATOM      8  O   UNL     1      -0.661   4.420   3.513  0.00  0.00    -0.489 OA
BRANCH   8  10
ATOM      9  C   UNL     1       0.633   6.457   3.636  0.00  0.00    +0.048 C 
ATOM     10  C   UNL     1       0.382   5.157   2.871  0.00  0.00    +0.226 C 
ENDBRANCH   8  10
ENDBRANCH   1   8
BRANCH   6  11
ATOM     11  O   UNL     1      -2.656   2.897   4.646  0.00  0.00    -0.478 OA
BRANCH  11  12
ATOM     12  C   UNL     1      -2.097   2.512   5.903  0.00  0.00    +0.324 C 
BRANCH  12  13
ATOM     13  C   UNL     1      -2.933   3.084   7.020  0.00  0.00    +0.251 C 
ATOM     14  O   UNL     1      -3.911   3.754   6.764  0.00  0.00    -0.272 OA
ATOM     15  N   UNL     1      -2.593   2.849   8.303  0.00  0.00    -0.312 N 
ATOM     16  H   UNL     1      -1.811   2.313   8.508  0.00  0.00    +0.149 HD
BRANCH  15  17
ATOM     17  C   UNL     1      -3.406   3.405   9.389  0.00  0.00    +0.109 C 
BRANCH  17  18
ATOM     18  C   UNL     1      -2.807   2.993  10.735  0.00  0.00    +0.054 C 
BRANCH  18  19
ATOM     19  C   UNL     1      -3.643   3.564  11.852  0.00  0.00    -0.046 A 
ATOM     20  C   UNL     1      -3.346   4.811  12.369  0.00  0.00    +0.004 A 
ATOM     21  C   UNL     1      -4.115   5.337  13.390  0.00  0.00    +0.000 A 
ATOM     22  C   UNL     1      -5.175   4.612  13.900  0.00  0.00    +0.000 A 
ATOM     23  C   UNL     1      -5.469   3.362  13.387  0.00  0.00    +0.000 A 
ATOM     24  C   UNL     1      -4.702   2.839  12.363  0.00  0.00    +0.004 A 
ENDBRANCH  18  19
ENDBRANCH  17  18
ENDBRANCH  15  17
ENDBRANCH  12  13
ENDBRANCH  11  12
ENDBRANCH   6  11
BRANCH   3  25
ATOM     25  C   UNL     1      -0.013   1.086   0.008  0.00  0.00    -0.046 C 
BRANCH  25  26
ATOM     26  N   UNL     1      -0.732   1.579  -1.182  0.00  0.00    +0.387 N 
ATOM     27  H   UNL     1      -0.746   2.605  -1.168  0.00  0.00    -0.085 HD
ATOM     28  H   UNL     1      -1.695   1.223  -1.167  0.00  0.00    -0.085 HD
BRANCH  26  29
ATOM     29  C   UNL     1      -0.062   1.117  -2.413  0.00  0.00    -0.050 C 
ATOM     30  C   UNL     1       1.373   1.647  -2.447  0.00  0.00    -0.008 C 
ATOM     31  C   UNL     1      -0.042  -0.412  -2.445  0.00  0.00    -0.008 C 
BRANCH  29  32
ATOM     32  C   UNL     1      -0.829   1.643  -3.628  0.00  0.00    +0.143 C 
BRANCH  32  33
ATOM     33  O   UNL     1      -0.187   1.200  -4.825  0.00  0.00    -0.396 OA
ATOM     34  H   UNL     1      -0.620   1.496  -5.637  0.00  0.00    +0.209 HD
ENDBRANCH  32  33
ENDBRANCH  29  32
ENDBRANCH  26  29
ENDBRANCH  25  26
ENDBRANCH   3  25
TORSDOF 13
