REMARK  Name = ZINC64414834
REMARK  4 active torsions:
REMARK  status: ('A' for Active; 'I' for Inactive)
REMARK    1  A    between atoms: C_1  and  C_2
REMARK    2  A    between atoms: C_7  and  N_12
REMARK    3  A    between atoms: N_15  and  S_18
REMARK    4  A    between atoms: S_18  and  C_21
REMARK                            x       y       z     vdW  Elec       q    Type
REMARK                         _______ _______ _______ _____ _____    ______ ____
ROOT
ATOM      1  N   UNL     1      -1.125  -5.092   1.948  0.00  0.00    -0.263 NA
ATOM      2  C   UNL     1      -1.042  -6.487   1.494  0.00  0.00    +0.105 C 
ATOM      3  C   UNL     1      -2.208  -7.284   2.088  0.00  0.00    +0.125 C 
ATOM      4  N   UNL     1      -3.464  -6.594   1.753  0.00  0.00    -0.174 NA
ATOM      5  C   UNL     1      -3.570  -5.158   2.053  0.00  0.00    +0.125 C 
ATOM      6  C   UNL     1      -2.350  -4.445   1.461  0.00  0.00    +0.105 C 
ENDROOT
BRANCH   1  13
ATOM      7  C   UNL     1      -0.018   1.503   0.010  0.00  0.00    +0.044 C 
ATOM      8  C   UNL     1       0.002  -0.004   0.002  0.00  0.00    -0.048 A 
ATOM      9  C   UNL     1       0.005  -0.672  -1.235  0.00  0.00    +0.005 A 
ATOM     10  C   UNL     1       0.022  -2.017  -1.335  0.00  0.00    +0.028 A 
ATOM     11  C   UNL     1       0.040  -2.834  -0.114  0.00  0.00    +0.061 A 
ATOM     12  N   UNL     1       0.057  -4.120   0.090  0.00  0.00    -0.351 N 
ATOM     13  C   UNL     1       0.067  -4.335   1.542  0.00  0.00    +0.252 C 
ATOM     14  N   UNL     1       0.053  -3.002   2.159  0.00  0.00    -0.351 N 
ATOM     15  C   UNL     1       0.037  -2.127   1.195  0.00  0.00    +0.061 A 
ATOM     16  C   UNL     1       0.022  -0.657   1.181  0.00  0.00    +0.030 A 
ATOM     17  H   UNL     1       0.062  -4.809  -0.593  0.00  0.00    +0.163 HD
ATOM     18  H   UNL     1       0.055  -2.810   3.109  0.00  0.00    +0.163 HD
ENDBRANCH   1  13
BRANCH   4  19
ATOM     19  S   UNL     1      -4.724  -7.413   1.057  0.00  0.00    +0.067 S 
ATOM     20  O   UNL     1      -5.506  -6.446   0.369  0.00  0.00    -0.152 OA
ATOM     21  O   UNL     1      -4.162  -8.543   0.404  0.00  0.00    -0.152 OA
BRANCH  19  22
ATOM     22  C   UNL     1      -5.727  -8.034   2.365  0.00  0.00    +0.143 A 
ATOM     23  C   UNL     1      -6.785  -7.451   2.981  0.00  0.00    +0.036 A 
ATOM     24  C   UNL     1      -7.430  -8.134   3.995  0.00  0.00    +0.010 A 
ATOM     25  C   UNL     1      -6.986  -9.366   4.344  0.00  0.00    +0.047 A 
ATOM     26  S   UNL     1      -5.620  -9.599   3.219  0.00  0.00    -0.077 S 
ENDBRANCH  19  22
ENDBRANCH   4  19
TORSDOF 3
