REMARK  Name = ZINC19553987
REMARK  6 active torsions:
REMARK  status: ('A' for Active; 'I' for Inactive)
REMARK    1  A    between atoms: C_1  and  O_2
REMARK    2  A    between atoms: O_2  and  C_3
REMARK    3  A    between atoms: C_6  and  C_9
REMARK    4  A    between atoms: C_20  and  C_22
REMARK    5  A    between atoms: C_29  and  O_33
REMARK    6  A    between atoms: O_33  and  C_34
REMARK                            x       y       z     vdW  Elec       q    Type
REMARK                         _______ _______ _______ _____ _____    ______ ____
ROOT
ATOM      1  C   UNL     1       3.559   1.979   1.104  0.00  0.00    +0.157 C 
ATOM      2  C   UNL     1       3.606   2.345   2.569  0.00  0.00    +0.087 A 
ATOM      3  C   UNL     1       2.657   1.987   3.461  0.00  0.00    +0.042 A 
ATOM      4  N   UNL     1       3.039   2.488   4.669  0.00  0.00    -0.348 N 
ATOM      5  H   UNL     1       2.414   2.317   5.558  0.00  0.00    +0.166 HD
ATOM      6  C   UNL     1       4.209   3.139   4.476  0.00  0.00    +0.197 A 
ATOM      7  N   UNL     1       4.539   3.048   3.214  0.00  0.00    -0.238 NA
ATOM      8  C   UNL     1       1.423   1.189   3.132  0.00  0.00    +0.074 C 
ATOM      9  C   UNL     1       1.630   0.492   1.787  0.00  0.00    +0.115 C 
ATOM     10  N   UNL     1       2.213   1.444   0.829  0.00  0.00    -0.288 N 
ATOM     11  C   UNL     1       1.532   1.822  -0.270  0.00  0.00    +0.223 C 
ATOM     12  O   UNL     1       2.059   2.538  -1.095  0.00  0.00    -0.275 OA
ENDROOT
BRANCH  11  13
ATOM     13  C   UNL     1       0.114   1.354  -0.475  0.00  0.00    +0.117 C 
ATOM     14  C   UNL     1      -0.241   1.419  -1.963  0.00  0.00    +0.055 C 
ATOM     15  C   UNL     1      -1.729   1.239  -2.138  0.00  0.00    -0.001 A 
ATOM     16  C   UNL     1      -2.215   0.894  -3.390  0.00  0.00    +0.007 A 
ATOM     17  C   UNL     1      -3.571   0.725  -3.590  0.00  0.00    +0.004 A 
ATOM     18  C   UNL     1      -4.453   0.899  -2.540  0.00  0.00    +0.049 A 
ATOM     19  C   UNL     1      -3.974   1.242  -1.287  0.00  0.00    +0.162 A 
ATOM     20  C   UNL     1      -2.604   1.412  -1.083  0.00  0.00    +0.165 A 
ATOM     21  O   UNL     1      -2.170   1.744   0.162  0.00  0.00    -0.487 OA
ATOM     22  C   UNL     1      -0.849   2.271   0.290  0.00  0.00    +0.242 C 
BRANCH  19  23
ATOM     23  O   UNL     1      -4.841   1.413  -0.253  0.00  0.00    -0.491 OA
ATOM     24  C   UNL     1      -6.230   1.224  -0.533  0.00  0.00    +0.277 C 
ENDBRANCH  19  23
ENDBRANCH  11  13
BRANCH   1  28
ATOM     25  C   UNL     1       6.509  -0.991   0.248  0.00  0.00    +0.120 A 
ATOM     26  C   UNL     1       6.470   0.182  -0.491  0.00  0.00    +0.046 A 
ATOM     27  C   UNL     1       5.515   1.141  -0.213  0.00  0.00    +0.009 A 
ATOM     28  C   UNL     1       4.599   0.932   0.802  0.00  0.00    -0.021 A 
ATOM     29  C   UNL     1       4.640  -0.234   1.544  0.00  0.00    +0.009 A 
ATOM     30  C   UNL     1       5.589  -1.199   1.265  0.00  0.00    +0.046 A 
BRANCH  25  32
ATOM     31  C   UNL     1       7.429  -3.118   0.777  0.00  0.00    +0.277 C 
ATOM     32  O   UNL     1       7.448  -1.935  -0.024  0.00  0.00    -0.495 OA
ENDBRANCH  25  32
ENDBRANCH   1  28
TORSDOF 4
