REMARK  Name = ZINC63654901
REMARK  8 active torsions:
REMARK  status: ('A' for Active; 'I' for Inactive)
REMARK    1  A    between atoms: C_1  and  O_2
REMARK    2  A    between atoms: O_2  and  C_3
REMARK    3  A    between atoms: C_6  and  C_9
REMARK    4  A    between atoms: C_11  and  S_19
REMARK    5  A    between atoms: S_19  and  C_20
REMARK    6  A    between atoms: C_20  and  C_21
REMARK    7  A    between atoms: C_21  and  N_22
REMARK    8  A    between atoms: C_23  and  C_25
REMARK                            x       y       z     vdW  Elec       q    Type
REMARK                         _______ _______ _______ _____ _____    ______ ____
ROOT
ATOM      1  C   UNL     1      -5.774  -3.391  -4.045  0.00  0.00    +0.093 C 
ENDROOT
BRANCH   1   2
ATOM      2  S   UNL     1      -5.533  -2.179  -2.716  0.00  0.00    -0.125 S 
BRANCH   2   4
ATOM      3  C   UNL     1      -4.947  -2.629   0.028  0.00  0.00    +0.147 C 
ATOM      4  C   UNL     1      -5.305  -3.110  -1.361  0.00  0.00    +0.021 C 
ATOM      5  C   UNL     1      -5.405  -4.494  -1.265  0.00  0.00    +0.010 A 
ATOM      6  C   UNL     1      -5.709  -5.495  -2.214  0.00  0.00    +0.011 A 
ATOM      7  C   UNL     1      -5.736  -6.798  -1.833  0.00  0.00    +0.001 A 
ATOM      8  C   UNL     1      -5.471  -7.180  -0.517  0.00  0.00    +0.002 A 
ATOM      9  C   UNL     1      -5.172  -6.272   0.445  0.00  0.00    +0.026 A 
ATOM     10  C   UNL     1      -5.124  -4.893   0.122  0.00  0.00    +0.044 A 
ATOM     11  N   UNL     1      -4.862  -3.830   0.864  0.00  0.00    -0.373 N 
ATOM     12  H   UNL     1      -4.649  -3.843   1.810  0.00  0.00    +0.161 HD
BRANCH   3  16
ATOM     13  C   UNL     1      -1.178  -0.616  -0.039  0.00  0.00    +0.120 A 
ATOM     14  C   UNL     1      -2.356   0.116  -0.015  0.00  0.00    +0.046 A 
ATOM     15  C   UNL     1      -3.573  -0.537   0.006  0.00  0.00    +0.009 A 
ATOM     16  C   UNL     1      -3.617  -1.919   0.004  0.00  0.00    -0.020 A 
ATOM     17  C   UNL     1      -2.444  -2.651  -0.019  0.00  0.00    +0.009 A 
ATOM     18  C   UNL     1      -1.225  -2.002  -0.047  0.00  0.00    +0.046 A 
BRANCH  13  20
ATOM     19  C   UNL     1      -0.007   1.453  -0.050  0.00  0.00    +0.277 C 
ATOM     20  O   UNL     1       0.021   0.025  -0.060  0.00  0.00    -0.495 OA
ENDBRANCH  13  20
ENDBRANCH   3  16
ENDBRANCH   2   4
ENDBRANCH   1   2
BRANCH   1  21
ATOM     21  C   UNL     1      -5.855  -2.664  -5.389  0.00  0.00    +0.115 C 
BRANCH  21  22
ATOM     22  N   UNL     1      -6.050  -3.643  -6.462  0.00  0.00    -0.314 N 
ATOM     23  C   UNL     1      -6.150  -3.229  -7.741  0.00  0.00    +0.221 C 
ATOM     24  O   UNL     1      -6.078  -2.048  -8.004  0.00  0.00    -0.275 OA
ATOM     25  H   UNL     1      -6.108  -4.588  -6.252  0.00  0.00    +0.149 HD
BRANCH  23  26
ATOM     26  C   UNL     1      -6.351  -4.236  -8.844  0.00  0.00    +0.119 C 
ATOM     27  C   UNL     1      -5.189  -5.199  -8.866  0.00  0.00    +0.007 A 
ATOM     28  C   UNL     1      -5.151  -6.216  -7.927  0.00  0.00    +0.008 A 
ATOM     29  C   UNL     1      -4.104  -7.117  -7.916  0.00  0.00    +0.001 A 
ATOM     30  C   UNL     1      -3.087  -7.005  -8.847  0.00  0.00    +0.004 A 
ATOM     31  C   UNL     1      -3.119  -5.994  -9.785  0.00  0.00    +0.046 A 
ATOM     32  C   UNL     1      -4.173  -5.085  -9.799  0.00  0.00    +0.125 A 
ATOM     33  O   UNL     1      -4.170  -4.106 -10.743  0.00  0.00    -0.484 OA
ATOM     34  C   UNL     1      -5.023  -2.983 -10.519  0.00  0.00    +0.204 C 
ATOM     35  C   UNL     1      -6.428  -3.511 -10.190  0.00  0.00    +0.073 C 
ATOM     36  C   UNL     1      -7.387  -2.355 -10.110  0.00  0.00    -0.018 C 
ATOM     37  C   UNL     1      -7.248  -1.329 -10.946  0.00  0.00    -0.004 C 
ATOM     38  C   UNL     1      -6.165  -1.342 -11.944  0.00  0.00    -0.001 C 
ATOM     39  C   UNL     1      -5.088  -2.115 -11.747  0.00  0.00    +0.017 C 
ENDBRANCH  23  26
ENDBRANCH  21  22
ENDBRANCH   1  21
TORSDOF 7
