REMARK  Name = ZINC39674631
REMARK  10 active torsions:
REMARK  status: ('A' for Active; 'I' for Inactive)
REMARK    1  A    between atoms: C_1  and  C_2
REMARK    2  A    between atoms: C_4  and  C_14
REMARK    3  A    between atoms: C_7  and  C_12
REMARK    4  A    between atoms: C_14  and  C_15
REMARK    5  A    between atoms: C_15  and  N_16
REMARK    6  A    between atoms: C_17  and  C_19
REMARK    7  A    between atoms: C_30  and  C_32
REMARK    8  A    between atoms: C_37  and  O_38
REMARK    9  A    between atoms: O_38  and  C_39
REMARK   10  A    between atoms: C_39  and  C_41
REMARK                            x       y       z     vdW  Elec       q    Type
REMARK                         _______ _______ _______ _____ _____    ______ ____
ROOT
ATOM      1  C   UNL     1       1.800  -1.149  -7.148  0.00  0.00    +0.100 C 
ATOM      2  C   UNL     1       1.543   0.340  -7.474  0.00  0.00    +0.121 C 
ATOM      3  N   UNL     1       2.764   0.783  -8.187  0.00  0.00    -0.296 N 
ATOM      4  C   UNL     1       3.122  -0.365  -9.054  0.00  0.00    +0.115 C 
ATOM      5  C   UNL     1       2.835  -1.608  -8.189  0.00  0.00    -0.004 C 
ATOM      6  C   UNL     1       4.111  -2.074  -7.496  0.00  0.00    -0.010 C 
ATOM      7  C   UNL     1       5.103  -2.579  -8.548  0.00  0.00    -0.082 C 
ATOM      8  N   UNL     1       4.499  -3.685  -9.301  0.00  0.00    +0.379 N 
ATOM      9  C   UNL     1       3.324  -3.207 -10.039  0.00  0.00    -0.082 C 
ATOM     10  C   UNL     1       2.258  -2.728  -9.050  0.00  0.00    -0.010 C 
ATOM     11  C   UNL     1       3.405   1.964  -8.073  0.00  0.00    +0.250 C 
ATOM     12  O   UNL     1       4.346   2.217  -8.799  0.00  0.00    -0.270 OA
ATOM     13  H   UNL     1       5.175  -4.056  -9.952  0.00  0.00    -0.086 HD
ATOM     14  H   UNL     1       4.219  -4.413  -8.660  0.00  0.00    -0.086 HD
ENDROOT
BRANCH  11  15
ATOM     15  C   UNL     1       2.963   2.948  -7.066  0.00  0.00    +0.079 A 
ATOM     16  C   UNL     1       1.606   3.078  -6.759  0.00  0.00    +0.017 A 
ATOM     17  C   UNL     1       1.200   4.000  -5.818  0.00  0.00    +0.001 A 
ATOM     18  C   UNL     1       2.131   4.798  -5.175  0.00  0.00    +0.004 A 
ATOM     19  C   UNL     1       3.475   4.680  -5.469  0.00  0.00    +0.047 A 
ATOM     20  C   UNL     1       3.902   3.755  -6.410  0.00  0.00    +0.144 A 
BRANCH  20  21
ATOM     21  O   UNL     1       5.223   3.634  -6.696  0.00  0.00    -0.425 OA
BRANCH  21  22
ATOM     22  C   UNL     1       5.931   2.709  -6.028  0.00  0.00    +0.309 C 
ATOM     23  O   UNL     1       5.373   1.955  -5.266  0.00  0.00    -0.251 OA
ATOM     24  C   UNL     1       7.422   2.611  -6.228  0.00  0.00    +0.136 C 
ENDBRANCH  21  22
ENDBRANCH  20  21
ENDBRANCH  11  15
BRANCH   1  26
ATOM     25  N   UNL     1       2.115  -2.411  -5.044  0.00  0.00    -0.315 N 
ATOM     26  C   UNL     1       2.358  -1.292  -5.755  0.00  0.00    +0.218 C 
ATOM     27  O   UNL     1       3.026  -0.401  -5.275  0.00  0.00    -0.275 OA
ATOM     28  H   UNL     1       1.581  -3.123  -5.428  0.00  0.00    +0.149 HD
BRANCH  25  29
ATOM     29  C   UNL     1       2.658  -2.550  -3.690  0.00  0.00    +0.108 C 
BRANCH  29  30
ATOM     30  C   UNL     1       2.238  -3.901  -3.109  0.00  0.00    +0.052 C 
BRANCH  30  33
ATOM     31  C   UNL     1       1.140  -5.435  -0.474  0.00  0.00    +0.035 C 
ATOM     32  C   UNL     1       2.623  -5.222  -0.784  0.00  0.00    +0.103 C 
ATOM     33  C   UNL     1       2.796  -4.045  -1.716  0.00  0.00    -0.037 C 
ATOM     34  C   UNL     1       3.556  -3.142  -1.045  0.00  0.00    +0.000 A 
ATOM     35  C   UNL     1       4.042  -1.858  -1.405  0.00  0.00    +0.028 A 
ATOM     36  C   UNL     1       4.807  -1.136  -0.519  0.00  0.00    +0.052 A 
ATOM     37  C   UNL     1       5.138  -1.663   0.800  0.00  0.00    +0.021 A 
ATOM     38  C   UNL     1       4.704  -2.877   1.198  0.00  0.00    +0.027 A 
ATOM     39  C   UNL     1       3.884  -3.688   0.291  0.00  0.00    +0.043 A 
ATOM     40  N   UNL     1       3.352  -4.878   0.441  0.00  0.00    -0.378 N 
ATOM     41  H   UNL     1       3.427  -5.438   1.230  0.00  0.00    +0.160 HD
BRANCH  36  42
ATOM     42  C   UNL     1       5.289   0.158  -0.900  0.00  0.00    +0.099 C 
ATOM     43  N   UNL     1       5.671   1.184  -1.202  0.00  0.00    -0.191 NA
ENDBRANCH  36  42
ENDBRANCH  30  33
ENDBRANCH  29  30
ENDBRANCH  25  29
ENDBRANCH   1  26
TORSDOF 8
