REMARK  Name = ZINC09189939
REMARK  8 active torsions:
REMARK  status: ('A' for Active; 'I' for Inactive)
REMARK    1  A    between atoms: C_1  and  C_2
REMARK    2  A    between atoms: N_8  and  C_9
REMARK    3  A    between atoms: N_17  and  C_20
REMARK    4  A    between atoms: C_20  and  C_21
REMARK    5  A    between atoms: C_27  and  C_31
REMARK    6  A    between atoms: C_28  and  N_30
REMARK    7  A    between atoms: C_31  and  O_33
REMARK    8  A    between atoms: O_33  and  C_34
REMARK                            x       y       z     vdW  Elec       q    Type
REMARK                         _______ _______ _______ _____ _____    ______ ____
ROOT
ATOM      1  C   UNL     1      -0.880  -0.770   8.393  0.00  0.00    +0.064 C 
ATOM      2  C   UNL     1      -1.366  -0.136   7.115  0.00  0.00    +0.022 A 
ATOM      3  C   UNL     1      -2.471   0.639   7.135  0.00  0.00    +0.068 A 
ATOM      4  C   UNL     1      -2.930   1.235   5.943  0.00  0.00    +0.142 A 
ATOM      5  C   UNL     1      -2.234   1.012   4.773  0.00  0.00    +0.083 A 
ATOM      6  C   UNL     1      -1.093   0.200   4.801  0.00  0.00    +0.260 A 
ATOM      7  O   UNL     1      -0.467  -0.007   3.773  0.00  0.00    -0.267 OA
ATOM      8  N   UNL     1      -0.686  -0.352   5.959  0.00  0.00    -0.315 N 
ATOM      9  C   UNL     1       0.509  -1.200   5.973  0.00  0.00    +0.152 C 
ATOM     10  C   UNL     1      -2.691   1.631   3.483  0.00  0.00    +0.144 C 
ATOM     11  C   UNL     1      -1.778   2.745   3.073  0.00  0.00    -0.002 A 
ATOM     12  C   UNL     1      -1.462   3.937   3.687  0.00  0.00    +0.007 A 
ATOM     13  C   UNL     1      -0.560   4.766   3.027  0.00  0.00    +0.000 A 
ATOM     14  C   UNL     1      -0.011   4.408   1.812  0.00  0.00    +0.002 A 
ATOM     15  C   UNL     1      -0.326   3.211   1.189  0.00  0.00    +0.024 A 
ATOM     16  C   UNL     1      -1.229   2.369   1.841  0.00  0.00    +0.041 A 
ATOM     17  N   UNL     1      -1.714   1.133   1.455  0.00  0.00    -0.265 N 
ATOM     18  C   UNL     1      -2.583   0.626   2.355  0.00  0.00    +0.240 C 
ATOM     19  O   UNL     1      -3.165  -0.435   2.276  0.00  0.00    -0.274 OA
ATOM     20  C   UNL     1      -4.108   2.114   3.601  0.00  0.00    +0.117 C 
ATOM     21  C   UNL     1      -4.692   2.273   4.816  0.00  0.00    +0.196 C 
ATOM     22  O   UNL     1      -4.036   2.010   5.958  0.00  0.00    -0.441 OA
ENDROOT
BRANCH  21  23
ATOM     23  N   UNL     1      -5.987   2.714   4.880  0.00  0.00    -0.329 N 
ATOM     24  H   UNL     1      -6.277   3.449   4.317  0.00  0.00    +0.145 HD
ATOM     25  H   UNL     1      -6.614   2.292   5.487  0.00  0.00    +0.145 HD
ENDBRANCH  21  23
BRANCH  20  26
ATOM     26  C   UNL     1      -4.838   2.404   2.438  0.00  0.00    +0.341 C 
ATOM     27  O   UNL     1      -6.019   2.690   2.517  0.00  0.00    -0.245 OA
BRANCH  26  28
ATOM     28  O   UNL     1      -4.231   2.366   1.232  0.00  0.00    -0.465 OA
ATOM     29  C   UNL     1      -5.035   2.672   0.092  0.00  0.00    +0.280 C 
ENDBRANCH  26  28
ENDBRANCH  20  26
BRANCH  17  30
ATOM     30  C   UNL     1      -1.335   0.456   0.212  0.00  0.00    +0.148 C 
BRANCH  30  31
ATOM     31  C   UNL     1      -0.127  -0.410   0.460  0.00  0.00    -0.030 A 
ATOM     32  C   UNL     1       1.143   0.109   0.287  0.00  0.00    +0.005 A 
ATOM     33  C   UNL     1       2.251  -0.688   0.507  0.00  0.00    +0.000 A 
ATOM     34  C   UNL     1       2.089  -2.002   0.903  0.00  0.00    +0.000 A 
ATOM     35  C   UNL     1       0.820  -2.521   1.077  0.00  0.00    +0.000 A 
ATOM     36  C   UNL     1      -0.289  -1.725   0.855  0.00  0.00    +0.005 A 
ENDBRANCH  30  31
ENDBRANCH  17  30
TORSDOF 5
