REMARK  Name = ZINC12201204
REMARK  8 active torsions:
REMARK  status: ('A' for Active; 'I' for Inactive)
REMARK    1  A    between atoms: C_1  and  C_2
REMARK    2  A    between atoms: C_7  and  C_8
REMARK    3  A    between atoms: C_10  and  C_13
REMARK    4  A    between atoms: C_13  and  C_15
REMARK    5  A    between atoms: C_13  and  N_16
REMARK    6  A    between atoms: C_17  and  C_19
REMARK    7  A    between atoms: N_24  and  S_25
REMARK    8  A    between atoms: S_25  and  C_28
REMARK                            x       y       z     vdW  Elec       q    Type
REMARK                         _______ _______ _______ _____ _____    ______ ____
ROOT
ATOM      1  C   UNL     1      -1.230   2.441   0.193  0.00  0.00    +0.159 C 
ATOM      2  C   UNL     1      -1.410   3.309  -1.055  0.00  0.00    +0.038 C 
ENDROOT
BRANCH   1   5
ATOM      3  C   UNL     1      -4.305   0.844   1.147  0.00  0.00    +0.202 A 
ATOM      4  N   UNL     1      -3.390   1.824   1.325  0.00  0.00    -0.190 NA
ATOM      5  C   UNL     1      -2.472   1.617   0.415  0.00  0.00    +0.248 A 
ATOM      6  O   UNL     1      -2.845   0.540  -0.284  0.00  0.00    -0.336 OA
ATOM      7  N   UNL     1      -3.892   0.107   0.150  0.00  0.00    -0.056 NA
BRANCH   3  14
ATOM      8  C   UNL     1      -6.066  -1.362   0.514  0.00  0.00    +0.044 C 
ATOM      9  C   UNL     1      -6.400  -0.416   1.640  0.00  0.00    -0.040 A 
ATOM     10  C   UNL     1      -7.552  -0.599   2.378  0.00  0.00    +0.004 A 
ATOM     11  C   UNL     1      -7.859   0.267   3.411  0.00  0.00    +0.000 A 
ATOM     12  C   UNL     1      -7.014   1.321   3.711  0.00  0.00    +0.001 A 
ATOM     13  C   UNL     1      -5.857   1.510   2.983  0.00  0.00    +0.012 A 
ATOM     14  C   UNL     1      -5.546   0.643   1.937  0.00  0.00    +0.025 A 
ENDBRANCH   3  14
ENDBRANCH   1   5
BRANCH   1  15
ATOM     15  N   UNL     1      -0.080   1.552   0.007  0.00  0.00    -0.302 N 
ATOM     16  C   UNL     1       1.163   1.992   0.285  0.00  0.00    +0.236 C 
ATOM     17  O   UNL     1       1.330   3.122   0.693  0.00  0.00    -0.274 OA
ATOM     18  H   UNL     1      -0.214   0.649  -0.319  0.00  0.00    +0.150 HD
BRANCH  16  19
ATOM     19  C   UNL     1       2.346   1.080   0.088  0.00  0.00    +0.188 C 
ATOM     20  C   UNL     1       2.569   0.254   1.328  0.00  0.00    -0.000 C 
ATOM     21  C   UNL     1       3.751   0.496   1.822  0.00  0.00    -0.012 C 
ATOM     22  C   UNL     1       4.468   1.514   0.974  0.00  0.00    +0.137 C 
ATOM     23  N   UNL     1       3.563   1.877  -0.125  0.00  0.00    -0.162 NA
BRANCH  23  24
ATOM     24  S   UNL     1       3.853   2.955  -1.348  0.00  0.00    +0.030 S 
ATOM     25  O   UNL     1       2.565   3.300  -1.840  0.00  0.00    -0.158 OA
ATOM     26  O   UNL     1       4.695   3.942  -0.769  0.00  0.00    -0.158 OA
ATOM     27  C   UNL     1       4.766   2.009  -2.597  0.00  0.00    +0.215 C 
ENDBRANCH  23  24
ENDBRANCH  16  19
ENDBRANCH   1  15
TORSDOF 5
