REMARK  Name = ZINC14545877
REMARK  6 active torsions:
REMARK  status: ('A' for Active; 'I' for Inactive)
REMARK    1  A    between atoms: C_1  and  O_2
REMARK    2  A    between atoms: O_2  and  C_3
REMARK    3  A    between atoms: C_8  and  C_9
REMARK    4  A    between atoms: C_20  and  S_25
REMARK    5  A    between atoms: S_25  and  N_28
REMARK    6  A    between atoms: N_28  and  C_29
REMARK                            x       y       z     vdW  Elec       q    Type
REMARK                         _______ _______ _______ _____ _____    ______ ____
ROOT
ATOM      1  C   UNL     1      -0.013   1.086   0.008  0.00  0.00    +0.108 C 
ATOM      2  C   UNL     1       1.371   1.736  -0.079  0.00  0.00    +0.029 C 
ATOM      3  C   UNL     1       2.023   1.630   1.331  0.00  0.00    +0.033 C 
ATOM      4  C   UNL     1       1.424   2.803   2.083  0.00  0.00    -0.030 C 
ATOM      5  C   UNL     1       0.987   3.711   1.245  0.00  0.00    -0.023 C 
ATOM      6  C   UNL     1       1.227   3.267  -0.178  0.00  0.00    +0.049 C 
ATOM      7  C   UNL     1       0.111   3.692  -1.079  0.00  0.00    -0.018 A 
ATOM      8  C   UNL     1       0.030   5.025  -1.458  0.00  0.00    +0.034 A 
ATOM      9  C   UNL     1      -0.983   5.458  -2.288  0.00  0.00    +0.106 A 
ATOM     10  C   UNL     1      -1.933   4.567  -2.754  0.00  0.00    +0.030 A 
ATOM     11  C   UNL     1      -1.863   3.238  -2.385  0.00  0.00    +0.025 A 
ATOM     12  C   UNL     1      -0.843   2.802  -1.549  0.00  0.00    +0.031 A 
ATOM     13  N   UNL     1      -0.787   1.453  -1.182  0.00  0.00    -0.336 N 
ATOM     14  H   UNL     1      -1.249   0.777  -1.702  0.00  0.00    +0.147 HD
ENDROOT
BRANCH   1  20
ATOM     15  C   UNL     1      -0.593   0.880   2.439  0.00  0.00    +0.125 A 
ATOM     16  C   UNL     1      -1.248   1.333   3.575  0.00  0.00    +0.046 A 
ATOM     17  C   UNL     1      -2.026   2.472   3.515  0.00  0.00    +0.004 A 
ATOM     18  C   UNL     1      -2.154   3.162   2.324  0.00  0.00    +0.001 A 
ATOM     19  C   UNL     1      -1.498   2.716   1.191  0.00  0.00    +0.009 A 
ATOM     20  C   UNL     1      -0.723   1.574   1.244  0.00  0.00    +0.015 A 
BRANCH  15  22
ATOM     21  C   UNL     1       0.260  -0.904   3.758  0.00  0.00    +0.277 C 
ATOM     22  O   UNL     1       0.173  -0.241   2.495  0.00  0.00    -0.495 OA
ENDBRANCH  15  22
ENDBRANCH   1  20
BRANCH   9  23
ATOM     23  S   UNL     1      -1.068   7.154  -2.757  0.00  0.00    +0.059 S 
ATOM     24  O   UNL     1      -2.423   7.414  -3.100  0.00  0.00    -0.153 OA
ATOM     25  O   UNL     1      -0.384   7.888  -1.751  0.00  0.00    -0.153 OA
BRANCH  23  26
ATOM     26  N   UNL     1      -0.187   7.323  -4.149  0.00  0.00    -0.187 NA
ATOM     27  H   UNL     1       0.618   7.864  -4.151  0.00  0.00    +0.148 HD
BRANCH  26  28
ATOM     28  C   UNL     1      -0.623   6.654  -5.377  0.00  0.00    +0.077 C 
ATOM     29  C   UNL     1       0.101   5.314  -5.513  0.00  0.00    +0.020 C 
ATOM     30  C   UNL     1      -0.354   4.616  -6.797  0.00  0.00    +0.002 C 
ATOM     31  C   UNL     1      -0.025   5.498  -8.002  0.00  0.00    +0.000 C 
ATOM     32  C   UNL     1      -0.749   6.839  -7.866  0.00  0.00    +0.002 C 
ATOM     33  C   UNL     1      -0.294   7.537  -6.583  0.00  0.00    +0.020 C 
ENDBRANCH  26  28
ENDBRANCH  23  26
ENDBRANCH   9  23
TORSDOF 5
