REMARK  Name = ZINC19826880
REMARK  4 active torsions:
REMARK  status: ('A' for Active; 'I' for Inactive)
REMARK    1  A    between atoms: C_4  and  C_7
REMARK    2  A    between atoms: C_9  and  C_13
REMARK    3  A    between atoms: N_17  and  N_18
REMARK    4  A    between atoms: C_19  and  C_20
REMARK                            x       y       z     vdW  Elec       q    Type
REMARK                         _______ _______ _______ _____ _____    ______ ____
ROOT
ATOM      1  C   UNL     1       3.607   0.723  -0.027  0.00  0.00    +0.203 A 
ATOM      2  N   UNL     1       4.407  -0.281  -0.313  0.00  0.00    -0.125 NA
ATOM      3  N   UNL     1       5.633   0.095  -0.228  0.00  0.00    -0.119 NA
ATOM      4  C   UNL     1       5.696   1.361   0.119  0.00  0.00    +0.223 A 
ATOM      5  N   UNL     1       4.409   1.810   0.253  0.00  0.00    -0.185 N 
ATOM      6  S   UNL     1       7.163   2.308   0.357  0.00  0.00    -0.007 SA
ENDROOT
BRANCH   1   9
ATOM      7  C   UNL     1       0.002  -0.004   0.003  0.00  0.00    +0.093 A 
ATOM      8  C   UNL     1       1.340  -0.430  -0.012  0.00  0.00    +0.061 A 
ATOM      9  C   UNL     1       2.135   0.695  -0.014  0.00  0.00    +0.105 A 
ATOM     10  N   UNL     1       1.304   1.779  -0.002  0.00  0.00    -0.273 N 
ATOM     11  H   UNL     1       1.726   2.795  -0.002  0.00  0.00    +0.189 HD
ATOM     12  N   UNL     1      -0.016   1.312   0.009  0.00  0.00    -0.173 NA
BRANCH   7  16
ATOM     13  C   UNL     1      -3.414  -2.537   0.023  0.00  0.00    +0.000 A 
ATOM     14  C   UNL     1      -3.575  -1.164   0.032  0.00  0.00    +0.001 A 
ATOM     15  C   UNL     1      -2.470  -0.337   0.026  0.00  0.00    +0.010 A 
ATOM     16  C   UNL     1      -1.190  -0.888   0.010  0.00  0.00    +0.002 A 
ATOM     17  C   UNL     1      -1.034  -2.273  -0.004  0.00  0.00    +0.010 A 
ATOM     18  C   UNL     1      -2.146  -3.090   0.008  0.00  0.00    +0.001 A 
ENDBRANCH   7  16
ENDBRANCH   1   9
BRANCH   5  19
ATOM     19  N   UNL     1       3.995   3.101   0.605  0.00  0.00    -0.170 NA
ATOM     20  C   UNL     1       3.817   3.409   1.853  0.00  0.00    +0.141 C 
BRANCH  20  21
ATOM     21  C   UNL     1       3.381   4.768   2.223  0.00  0.00    -0.005 A 
ATOM     22  C   UNL     1       3.163   5.728   1.232  0.00  0.00    +0.012 A 
ATOM     23  C   UNL     1       2.750   6.996   1.583  0.00  0.00    +0.039 A 
ATOM     24  C   UNL     1       2.561   7.321   2.917  0.00  0.00    +0.123 A 
ATOM     25  C   UNL     1       2.780   6.374   3.905  0.00  0.00    +0.039 A 
ATOM     26  C   UNL     1       3.188   5.101   3.566  0.00  0.00    +0.012 A 
ATOM     27  F   UNL     1       2.161   8.566   3.256  0.00  0.00    -0.205 F 
ENDBRANCH  20  21
ENDBRANCH   5  19
TORSDOF 4
