REMARK  Name = ZINC09337950
REMARK  7 active torsions:
REMARK  status: ('A' for Active; 'I' for Inactive)
REMARK    1  A    between atoms: C_1  and  C_2
REMARK    2  A    between atoms: C_2  and  C_3
REMARK    3  A    between atoms: C_3  and  C_29
REMARK    4  A    between atoms: N_6  and  N_10
REMARK    5  A    between atoms: C_11  and  C_13
REMARK    6  A    between atoms: C_20  and  C_28
REMARK    7  A    between atoms: N_21  and  C_22
REMARK                            x       y       z     vdW  Elec       q    Type
REMARK                         _______ _______ _______ _____ _____    ______ ____
ROOT
ATOM      1  N   UNL     1      -4.687   3.794   6.514  0.00  0.00    -0.220 N 
ATOM      2  C   UNL     1      -4.709   3.408   5.223  0.00  0.00    +0.261 C 
ATOM      3  O   UNL     1      -5.759   3.392   4.611  0.00  0.00    -0.269 OA
ATOM      4  H   UNL     1      -3.849   3.807   7.002  0.00  0.00    +0.174 HD
ENDROOT
BRANCH   2   5
ATOM      5  C   UNL     1      -3.457   3.005   4.551  0.00  0.00    +0.040 A 
ATOM      6  C   UNL     1      -2.247   3.025   5.257  0.00  0.00    +0.015 A 
ATOM      7  C   UNL     1      -1.084   2.655   4.648  0.00  0.00    +0.029 A 
ATOM      8  C   UNL     1      -1.090   2.255   3.316  0.00  0.00    +0.074 A 
ATOM      9  C   UNL     1      -2.296   2.229   2.591  0.00  0.00    +0.090 A 
ATOM     10  C   UNL     1      -3.482   2.608   3.217  0.00  0.00    +0.043 A 
ATOM     11  N   UNL     1      -1.994   1.808   1.335  0.00  0.00    -0.232 NA
ATOM     12  C   UNL     1      -0.718   1.572   1.248  0.00  0.00    +0.112 A 
ATOM     13  N   UNL     1      -0.111   1.834   2.440  0.00  0.00    -0.296 N 
ATOM     14  C   UNL     1      -0.013   1.086   0.008  0.00  0.00    +0.086 C 
BRANCH  13  15
ATOM     15  C   UNL     1       1.255   1.700   2.723  0.00  0.00    +0.048 A 
ATOM     16  C   UNL     1       1.684   0.764   3.654  0.00  0.00    +0.026 A 
ATOM     17  C   UNL     1       3.032   0.631   3.927  0.00  0.00    +0.002 A 
ATOM     18  C   UNL     1       3.952   1.437   3.282  0.00  0.00    +0.000 A 
ATOM     19  C   UNL     1       3.527   2.374   2.359  0.00  0.00    +0.002 A 
ATOM     20  C   UNL     1       2.182   2.508   2.077  0.00  0.00    +0.026 A 
ENDBRANCH  13  15
ENDBRANCH   2   5
BRANCH   1  24
ATOM     21  C   UNL     1      -7.744   4.223   8.463  0.00  0.00    +0.139 C 
ATOM     22  C   UNL     1      -6.532   3.413   8.046  0.00  0.00    +0.268 C 
ATOM     23  O   UNL     1      -6.221   2.308   8.437  0.00  0.00    -0.271 OA
ATOM     24  N   UNL     1      -5.874   4.176   7.151  0.00  0.00    -0.137 N 
ATOM     25  C   UNL     1      -6.492   5.345   6.951  0.00  0.00    +0.327 C 
ATOM     26  O   UNL     1      -6.086   6.202   6.191  0.00  0.00    -0.251 OA
ATOM     27  N   UNL     1      -7.615   5.465   7.682  0.00  0.00    -0.280 N 
ATOM     28  H   UNL     1      -8.221   6.223   7.694  0.00  0.00    +0.152 HD
BRANCH  21  29
ATOM     29  C   UNL     1      -7.702   4.516   9.941  0.00  0.00    -0.015 A 
ATOM     30  C   UNL     1      -8.303   3.649  10.835  0.00  0.00    +0.006 A 
ATOM     31  C   UNL     1      -8.260   3.916  12.191  0.00  0.00    +0.000 A 
ATOM     32  C   UNL     1      -7.626   5.054  12.652  0.00  0.00    +0.000 A 
ATOM     33  C   UNL     1      -7.030   5.924  11.758  0.00  0.00    +0.000 A 
ATOM     34  C   UNL     1      -7.068   5.655  10.402  0.00  0.00    +0.006 A 
ENDBRANCH  21  29
BRANCH  21  36
ATOM     35  C   UNL     1      -9.076   3.251   6.587  0.00  0.00    +0.007 C 
ATOM     36  C   UNL     1      -9.035   3.488   8.098  0.00  0.00    +0.037 C 
ENDBRANCH  21  36
ENDBRANCH   1  24
TORSDOF 5
