REMARK  Name = ZINC39199895
REMARK  4 active torsions:
REMARK  status: ('A' for Active; 'I' for Inactive)
REMARK    1  A    between atoms: C_1  and  C_2
REMARK    2  A    between atoms: N_13  and  C_19
REMARK    3  A    between atoms: C_19  and  C_20
REMARK    4  A    between atoms: N_22  and  C_23
REMARK                            x       y       z     vdW  Elec       q    Type
REMARK                         _______ _______ _______ _____ _____    ______ ____
ROOT
ATOM      1  C   UNL     1      -0.018   1.503   0.014  0.00  0.00    +0.044 C 
ATOM      2  C   UNL     1       0.002  -0.004   0.006  0.00  0.00    -0.050 A 
ATOM      3  C   UNL     1      -0.004  -0.668  -1.210  0.00  0.00    +0.005 A 
ATOM      4  C   UNL     1       0.014  -2.049  -1.294  0.00  0.00    +0.026 A 
ATOM      5  C   UNL     1       0.038  -2.761  -0.097  0.00  0.00    +0.049 A 
ATOM      6  C   UNL     1       0.042  -2.072   1.153  0.00  0.00    +0.003 A 
ATOM      7  C   UNL     1       0.030  -0.674   1.203  0.00  0.00    +0.013 A 
ATOM      8  C   UNL     1       0.064  -3.090   2.168  0.00  0.00    -0.020 A 
ATOM      9  C   UNL     1       0.053  -4.274   1.524  0.00  0.00    +0.009 A 
ATOM     10  N   UNL     1       0.064  -4.096   0.168  0.00  0.00    -0.347 N 
ATOM     11  C   UNL     1       0.113  -5.248  -0.746  0.00  0.00    +0.103 C 
ATOM     12  C   UNL     1      -0.258  -6.501   0.057  0.00  0.00    -0.055 C 
ATOM     13  N   UNL     1       0.533  -6.598   1.291  0.00  0.00    +0.392 N 
ATOM     14  C   UNL     1       0.062  -5.592   2.264  0.00  0.00    -0.020 C 
ATOM     15  C   UNL     1       1.036  -5.478   3.426  0.00  0.00    -0.009 C 
ATOM     16  C   UNL     1       1.059  -4.159   4.156  0.00  0.00    +0.003 C 
ATOM     17  C   UNL     1       0.103  -3.080   3.671  0.00  0.00    +0.037 C 
ATOM     18  H   UNL     1       1.506  -6.432   1.081  0.00  0.00    -0.080 HD
ENDROOT
BRANCH  13  19
ATOM     19  C   UNL     1       0.380  -7.942   1.865  0.00  0.00    +0.020 C 
BRANCH  19  20
ATOM     20  C   UNL     1       0.977  -8.960   0.928  0.00  0.00    +0.201 C 
ATOM     21  O   UNL     1       1.480  -8.601  -0.116  0.00  0.00    -0.278 OA
ATOM     22  N   UNL     1       0.952 -10.268   1.249  0.00  0.00    -0.287 N 
ATOM     23  H   UNL     1       0.611 -10.549   2.112  0.00  0.00    +0.155 HD
BRANCH  22  24
ATOM     24  C   UNL     1       1.418 -11.223   0.336  0.00  0.00    +0.037 A 
ATOM     25  C   UNL     1       2.498 -10.928  -0.486  0.00  0.00    +0.027 A 
ATOM     26  C   UNL     1       2.957 -11.869  -1.388  0.00  0.00    +0.051 A 
ATOM     27  C   UNL     1       2.343 -13.110  -1.474  0.00  0.00    +0.162 A 
ATOM     28  C   UNL     1       1.264 -13.408  -0.651  0.00  0.00    +0.164 A 
ATOM     29  C   UNL     1       0.805 -12.465   0.256  0.00  0.00    +0.072 A 
ATOM     30  O   UNL     1       0.654 -14.623  -0.716  0.00  0.00    -0.485 OA
ATOM     31  C   UNL     1       0.903 -15.407  -1.887  0.00  0.00    +0.270 C 
ATOM     32  C   UNL     1       2.412 -15.383  -2.169  0.00  0.00    +0.270 C 
ATOM     33  O   UNL     1       2.808 -14.023  -2.371  0.00  0.00    -0.485 OA
ENDBRANCH  22  24
ENDBRANCH  19  20
ENDBRANCH  13  19
TORSDOF 3
