REMARK  Name = ZINC08789207
REMARK  13 active torsions:
REMARK  status: ('A' for Active; 'I' for Inactive)
REMARK    1  A    between atoms: C_1  and  N_61
REMARK    2  A    between atoms: C_2  and  C_3
REMARK    3  A    between atoms: C_2  and  N_61
REMARK    4  A    between atoms: C_9  and  C_10
REMARK    5  A    between atoms: C_9  and  N_61
REMARK    6  A    between atoms: C_11  and  O_33
REMARK    7  A    between atoms: C_18  and  C_19
REMARK    8  A    between atoms: C_21  and  O_29
REMARK    9  A    between atoms: C_22  and  O_27
REMARK   10  A    between atoms: C_24  and  O_25
REMARK   11  A    between atoms: O_25  and  C_26
REMARK   12  A    between atoms: O_27  and  C_28
REMARK   13  A    between atoms: O_29  and  C_30
REMARK                            x       y       z     vdW  Elec       q    Type
REMARK                         _______ _______ _______ _____ _____    ______ ____
ROOT
ATOM      1  C   UNL     1      -3.755   7.377   5.943  0.00  0.00    +0.020 A 
ATOM      2  C   UNL     1      -4.324   8.398   6.687  0.00  0.00    +0.122 A 
ATOM      3  C   UNL     1      -4.191   9.725   6.288  0.00  0.00    +0.046 A 
ATOM      4  C   UNL     1      -3.494  10.034   5.154  0.00  0.00    +0.019 A 
ATOM      5  C   UNL     1      -2.915   9.016   4.394  0.00  0.00    +0.068 A 
ATOM      6  C   UNL     1      -3.043   7.674   4.787  0.00  0.00    +0.144 A 
ATOM      7  O   UNL     1      -2.410   6.878   3.899  0.00  0.00    -0.451 OA
ATOM      8  C   UNL     1      -1.833   7.594   2.904  0.00  0.00    +0.176 C 
ATOM      9  C   UNL     1      -1.121   7.090   1.861  0.00  0.00    +0.062 C 
ATOM     10  C   UNL     1      -2.121   9.011   3.152  0.00  0.00    +0.231 C 
ATOM     11  O   UNL     1      -1.780   9.971   2.481  0.00  0.00    -0.283 OA
ENDROOT
BRANCH   9  12
ATOM     12  C   UNL     1      -1.041   5.641   1.661  0.00  0.00    +0.024 A 
ATOM     13  C   UNL     1      -1.950   4.790   2.306  0.00  0.00    +0.061 A 
ATOM     14  C   UNL     1      -1.872   3.428   2.109  0.00  0.00    +0.162 A 
ATOM     15  C   UNL     1      -0.884   2.893   1.280  0.00  0.00    +0.165 A 
ATOM     16  C   UNL     1       0.018   3.728   0.638  0.00  0.00    +0.095 A 
ATOM     17  C   UNL     1      -0.052   5.098   0.822  0.00  0.00    +0.131 A 
BRANCH  17  18
ATOM     18  O   UNL     1       0.832   5.915   0.195  0.00  0.00    -0.494 OA
ATOM     19  C   UNL     1       1.810   5.292  -0.642  0.00  0.00    +0.277 C 
ENDBRANCH  17  18
BRANCH  15  20
ATOM     20  O   UNL     1      -0.811   1.550   1.095  0.00  0.00    -0.491 OA
ATOM     21  C   UNL     1       0.220   1.069   0.229  0.00  0.00    +0.277 C 
ENDBRANCH  15  20
BRANCH  14  22
ATOM     22  O   UNL     1      -2.757   2.601   2.730  0.00  0.00    -0.491 OA
ATOM     23  C   UNL     1      -3.742   3.214   3.565  0.00  0.00    +0.277 C 
ENDBRANCH  14  22
ENDBRANCH   9  12
BRANCH   2  24
ATOM     24  O   UNL     1      -5.018   8.102   7.815  0.00  0.00    -0.506 OA
ATOM     25  H   UNL     1      -4.477   8.084   8.617  0.00  0.00    +0.292 HD
ENDBRANCH   2  24
BRANCH   1  26
ATOM     26  C   UNL     1      -3.908   5.945   6.387  0.00  0.00    -0.035 C 
BRANCH  26  28
ATOM     27  C   UNL     1      -2.854   6.350   8.529  0.00  0.00    -0.095 C 
ATOM     28  N   UNL     1      -2.770   5.594   7.262  0.00  0.00    +0.383 N 
ATOM     29  H   UNL     1      -1.894   5.839   6.785  0.00  0.00    -0.081 HD
BRANCH  28  30
ATOM     30  C   UNL     1      -2.775   4.142   7.539  0.00  0.00    -0.043 C 
BRANCH  30  31
ATOM     31  C   UNL     1      -1.494   3.776   8.243  0.00  0.00    -0.064 A 
ATOM     32  C   UNL     1      -0.380   3.417   7.507  0.00  0.00    +0.002 A 
ATOM     33  C   UNL     1       0.797   3.086   8.153  0.00  0.00    +0.000 A 
ATOM     34  C   UNL     1       0.857   3.105   9.534  0.00  0.00    +0.000 A 
ATOM     35  C   UNL     1      -0.258   3.460  10.269  0.00  0.00    +0.000 A 
ATOM     36  C   UNL     1      -1.434   3.795   9.623  0.00  0.00    +0.002 A 
ENDBRANCH  30  31
ENDBRANCH  28  30
ENDBRANCH  26  28
ENDBRANCH   1  26
TORSDOF 9
