REMARK  Name = ZINC33339614
REMARK  7 active torsions:
REMARK  status: ('A' for Active; 'I' for Inactive)
REMARK    1  A    between atoms: C_1  and  C_2
REMARK    2  A    between atoms: C_2  and  C_3
REMARK    3  A    between atoms: C_2  and  C_4
REMARK    4  A    between atoms: C_4  and  N_5
REMARK    5  A    between atoms: C_9  and  C_10
REMARK    6  A    between atoms: C_11  and  N_21
REMARK    7  A    between atoms: N_24  and  C_27
REMARK                            x       y       z     vdW  Elec       q    Type
REMARK                         _______ _______ _______ _____ _____    ______ ____
ROOT
ATOM      1  C   UNL     1      -0.055   0.084  -0.260  0.00  0.00    +0.081 A 
ATOM      2  C   UNL     1       1.243  -0.406   0.017  0.00  0.00    +0.136 A 
ATOM      3  N   UNL     1       2.255   0.443   0.112  0.00  0.00    -0.214 NA
ATOM      4  C   UNL     1       2.085   1.755  -0.048  0.00  0.00    +0.142 A 
ATOM      5  C   UNL     1       3.198   2.608   0.064  0.00  0.00    +0.047 A 
ATOM      6  C   UNL     1       3.034   3.952  -0.098  0.00  0.00    +0.005 A 
ATOM      7  C   UNL     1       1.759   4.465  -0.374  0.00  0.00    +0.018 A 
ATOM      8  C   UNL     1       0.700   3.630  -0.478  0.00  0.00    +0.096 A 
ATOM      9  N   UNL     1       0.854   2.285  -0.318  0.00  0.00    -0.268 N 
ATOM     10  C   UNL     1      -0.224   1.479  -0.428  0.00  0.00    +0.267 A 
ATOM     11  O   UNL     1      -1.324   1.945  -0.673  0.00  0.00    -0.267 OA
ENDROOT
BRANCH   1  16
ATOM     12  N   UNL     1      -3.329  -0.132   2.506  0.00  0.00    -0.255 N 
ATOM     13  C   UNL     1      -2.257   0.024   1.748  0.00  0.00    +0.258 C 
ATOM     14  O   UNL     1      -1.388   0.822   2.049  0.00  0.00    -0.269 OA
ATOM     15  C   UNL     1      -2.148  -0.769   0.570  0.00  0.00    +0.077 C 
ATOM     16  C   UNL     1      -1.156  -0.798  -0.368  0.00  0.00    +0.037 C 
ATOM     17  S   UNL     1      -3.666  -1.709   0.648  0.00  0.00    -0.061 S 
ATOM     18  C   UNL     1      -4.293  -1.019   2.172  0.00  0.00    +0.121 C 
ATOM     19  S   UNL     1      -5.749  -1.383   2.996  0.00  0.00    -0.027 S 
BRANCH  12  20
ATOM     20  C   UNL     1      -3.474   0.667   3.725  0.00  0.00    +0.118 C 
BRANCH  20  22
ATOM     21  C   UNL     1      -4.467   2.747   4.688  0.00  0.00    +0.009 C 
ATOM     22  C   UNL     1      -4.205   1.970   3.396  0.00  0.00    +0.001 C 
ATOM     23  C   UNL     1      -3.344   2.816   2.458  0.00  0.00    +0.009 C 
ENDBRANCH  20  22
ENDBRANCH  12  20
ENDBRANCH   1  16
BRANCH   2  24
ATOM     24  N   UNL     1       1.452  -1.758   0.188  0.00  0.00    -0.312 N 
ATOM     25  C   UNL     1       0.755  -2.252   1.383  0.00  0.00    +0.125 C 
ATOM     26  C   UNL     1       0.946  -3.767   1.492  0.00  0.00    +0.124 C 
ATOM     27  N   UNL     1       2.382  -4.073   1.559  0.00  0.00    -0.325 N 
ATOM     28  C   UNL     1       3.079  -3.578   0.363  0.00  0.00    +0.124 C 
ATOM     29  C   UNL     1       2.888  -2.064   0.254  0.00  0.00    +0.125 C 
BRANCH  27  30
ATOM     30  C   UNL     1       2.594  -5.444   1.731  0.00  0.00    +0.065 A 
ATOM     31  C   UNL     1       3.883  -5.933   1.898  0.00  0.00    +0.026 A 
ATOM     32  C   UNL     1       4.090  -7.288   2.068  0.00  0.00    +0.002 A 
ATOM     33  C   UNL     1       3.015  -8.159   2.073  0.00  0.00    +0.003 A 
ATOM     34  C   UNL     1       1.730  -7.677   1.908  0.00  0.00    +0.040 A 
ATOM     35  C   UNL     1       1.515  -6.321   1.742  0.00  0.00    +0.144 A 
ATOM     36  F   UNL     1       0.258  -5.849   1.587  0.00  0.00    -0.204 F 
ENDBRANCH  27  30
ENDBRANCH   2  24
TORSDOF 5
