REMARK  Name = ZINC38546574
REMARK  7 active torsions:
REMARK  status: ('A' for Active; 'I' for Inactive)
REMARK    1  A    between atoms: C_1  and  C_2
REMARK    2  A    between atoms: C_2  and  N_3
REMARK    3  A    between atoms: N_6  and  C_9
REMARK    4  A    between atoms: C_9  and  C_11
REMARK    5  A    between atoms: C_9  and  C_18
REMARK    6  A    between atoms: C_22  and  N_23
REMARK    7  A    between atoms: C_24  and  C_26
REMARK                            x       y       z     vdW  Elec       q    Type
REMARK                         _______ _______ _______ _____ _____    ______ ____
ROOT
ATOM      1  C   UNL     1       3.612  -3.964  -3.675  0.00  0.00    +0.006 A 
ATOM      2  C   UNL     1       4.870  -4.562  -3.750  0.00  0.00    -0.030 A 
ATOM      3  C   UNL     1       4.904  -5.920  -3.682  0.00  0.00    -0.005 A 
ATOM      4  S   UNL     1       3.201  -6.381  -3.511  0.00  0.00    -0.078 S 
ATOM      5  C   UNL     1       2.502  -4.737  -3.533  0.00  0.00    +0.078 A 
ATOM      6  C   UNL     1       6.107  -6.805  -3.740  0.00  0.00    +0.043 C 
ATOM      7  C   UNL     1       7.292  -5.976  -4.259  0.00  0.00    +0.005 C 
ATOM      8  C   UNL     1       7.339  -4.652  -3.490  0.00  0.00    +0.005 C 
ATOM      9  C   UNL     1       6.163  -3.766  -3.902  0.00  0.00    +0.036 C 
ENDROOT
BRANCH   5  10
ATOM     10  N   UNL     1       1.165  -4.347  -3.433  0.00  0.00    -0.273 N 
ATOM     11  C   UNL     1       0.192  -5.279  -3.414  0.00  0.00    +0.284 C 
ATOM     12  O   UNL     1       0.478  -6.460  -3.483  0.00  0.00    -0.266 OA
ATOM     13  H   UNL     1       0.937  -3.406  -3.378  0.00  0.00    +0.156 HD
BRANCH  11  14
ATOM     14  C   UNL     1      -1.213  -4.870  -3.309  0.00  0.00    +0.189 A 
ATOM     15  C   UNL     1      -2.292  -5.707  -3.274  0.00  0.00    +0.054 A 
ATOM     16  C   UNL     1      -3.430  -4.892  -3.169  0.00  0.00    +0.042 A 
ATOM     17  C   UNL     1      -3.002  -3.611  -3.146  0.00  0.00    +0.196 A 
ATOM     18  O   UNL     1      -1.665  -3.602  -3.226  0.00  0.00    -0.458 OA
ENDBRANCH  11  14
ENDBRANCH   5  10
BRANCH   1  19
ATOM     19  C   UNL     1       3.483  -2.464  -3.743  0.00  0.00    +0.120 C 
BRANCH  19  23
ATOM     20  N   UNL     1       1.751  -0.572  -0.383  0.00  0.00    +0.381 N 
ATOM     21  C   UNL     1       1.852  -2.037  -0.374  0.00  0.00    -0.063 C 
ATOM     22  C   UNL     1       2.906  -2.482  -1.391  0.00  0.00    +0.067 C 
ATOM     23  N   UNL     1       2.524  -2.008  -2.728  0.00  0.00    -0.295 NA
ATOM     24  C   UNL     1       2.394  -0.544  -2.746  0.00  0.00    +0.067 C 
ATOM     25  C   UNL     1       1.344  -0.115  -1.718  0.00  0.00    -0.063 C 
ATOM     26  H   UNL     1       2.647  -0.172  -0.149  0.00  0.00    -0.082 HD
BRANCH  20  28
ATOM     27  C   UNL     1       1.236  -0.510   2.010  0.00  0.00    -0.017 C 
ATOM     28  C   UNL     1       0.752  -0.144   0.606  0.00  0.00    -0.082 C 
ENDBRANCH  20  28
ENDBRANCH  19  23
BRANCH  19  29
ATOM     29  C   UNL     1       2.996  -2.063  -5.111  0.00  0.00    -0.026 A 
ATOM     30  C   UNL     1       1.639  -1.998  -5.370  0.00  0.00    +0.007 A 
ATOM     31  C   UNL     1       1.192  -1.631  -6.625  0.00  0.00    +0.020 A 
ATOM     32  C   UNL     1       2.102  -1.328  -7.622  0.00  0.00    +0.041 A 
ATOM     33  C   UNL     1       3.459  -1.393  -7.363  0.00  0.00    +0.020 A 
ATOM     34  C   UNL     1       3.905  -1.754  -6.106  0.00  0.00    +0.007 A 
ATOM     35 CL   UNL     1       1.540  -0.867  -9.199  0.00  0.00    -0.084 Cl
ENDBRANCH  19  29
ENDBRANCH   1  19
TORSDOF 6
