REMARK  Name = ZINC21923326
REMARK  8 active torsions:
REMARK  status: ('A' for Active; 'I' for Inactive)
REMARK    1  A    between atoms: C_1  and  C_2
REMARK    2  A    between atoms: C_5  and  C_9
REMARK    3  A    between atoms: C_7  and  C_8
REMARK    4  A    between atoms: N_17  and  C_21
REMARK    5  A    between atoms: C_21  and  C_22
REMARK    6  A    between atoms: N_24  and  C_25
REMARK    7  A    between atoms: C_25  and  C_26
REMARK    8  A    between atoms: C_26  and  C_27
REMARK                            x       y       z     vdW  Elec       q    Type
REMARK                         _______ _______ _______ _____ _____    ______ ____
ROOT
ATOM      1  C   UNL     1      -0.713   6.016   0.708  0.00  0.00    +0.044 C 
ATOM      2  N   UNL     1      -0.016   5.217  -0.015  0.00  0.00    -0.312 N 
ATOM      3  C   UNL     1      -0.089   3.861  -0.016  0.00  0.00    +0.053 A 
ATOM      4  C   UNL     1       1.127   3.159  -0.078  0.00  0.00    +0.025 A 
ATOM      5  C   UNL     1       1.141   1.784  -0.090  0.00  0.00    +0.002 A 
ATOM      6  C   UNL     1      -0.049   1.078  -0.044  0.00  0.00    +0.002 A 
ATOM      7  C   UNL     1      -1.250   1.753   0.012  0.00  0.00    +0.025 A 
ATOM      8  C   UNL     1      -1.285   3.148   0.035  0.00  0.00    +0.058 A 
ATOM      9  N   UNL     1      -2.536   3.746   0.106  0.00  0.00    -0.257 N 
ATOM     10  C   UNL     1      -2.833   4.814   0.848  0.00  0.00    +0.246 C 
ATOM     11  O   UNL     1      -3.972   5.230   0.872  0.00  0.00    -0.270 OA
ATOM     12  C   UNL     1      -1.767   5.509   1.657  0.00  0.00    +0.091 C 
ATOM     13  H   UNL     1       0.727   5.620  -0.720  0.00  0.00    +0.152 HD
ENDROOT
BRANCH   1  18
ATOM     14  C   UNL     1       0.216  11.677   0.322  0.00  0.00    +0.044 C 
ATOM     15  C   UNL     1      -0.028  10.193   0.423  0.00  0.00    -0.048 A 
ATOM     16  C   UNL     1      -1.089   9.719   1.175  0.00  0.00    +0.004 A 
ATOM     17  C   UNL     1      -1.317   8.363   1.273  0.00  0.00    +0.010 A 
ATOM     18  C   UNL     1      -0.475   7.466   0.609  0.00  0.00    -0.003 A 
ATOM     19  C   UNL     1       0.597   7.952  -0.145  0.00  0.00    +0.013 A 
ATOM     20  C   UNL     1       0.810   9.311  -0.236  0.00  0.00    -0.047 A 
ATOM     21  C   UNL     1       1.963   9.838  -1.053  0.00  0.00    +0.044 C 
ENDBRANCH   1  18
BRANCH   9  22
ATOM     22  C   UNL     1      -3.613   3.159  -0.696  0.00  0.00    +0.209 C 
BRANCH  22  23
ATOM     23  C   UNL     1      -3.637   3.807  -2.056  0.00  0.00    +0.231 C 
ATOM     24  O   UNL     1      -2.834   4.675  -2.329  0.00  0.00    -0.274 OA
ATOM     25  N   UNL     1      -4.551   3.424  -2.969  0.00  0.00    -0.314 N 
ATOM     26  H   UNL     1      -5.279   2.637  -2.722  0.00  0.00    +0.149 HD
BRANCH  25  27
ATOM     27  C   UNL     1      -4.575   4.054  -4.292  0.00  0.00    +0.109 C 
BRANCH  27  28
ATOM     28  C   UNL     1      -5.699   3.441  -5.129  0.00  0.00    +0.054 C 
BRANCH  28  29
ATOM     29  C   UNL     1      -5.724   4.090  -6.489  0.00  0.00    -0.046 A 
ATOM     30  C   UNL     1      -6.497   5.215  -6.704  0.00  0.00    +0.004 A 
ATOM     31  C   UNL     1      -6.516   5.813  -7.950  0.00  0.00    +0.000 A 
ATOM     32  C   UNL     1      -5.769   5.279  -8.984  0.00  0.00    +0.000 A 
ATOM     33  C   UNL     1      -4.999   4.151  -8.770  0.00  0.00    +0.000 A 
ATOM     34  C   UNL     1      -4.977   3.556  -7.522  0.00  0.00    +0.004 A 
ENDBRANCH  28  29
ENDBRANCH  27  28
ENDBRANCH  25  27
ENDBRANCH  22  23
ENDBRANCH   9  22
TORSDOF 6
