REMARK  Name = ZINC02433578
REMARK  9 active torsions:
REMARK  status: ('A' for Active; 'I' for Inactive)
REMARK    1  A    between atoms: C_1  and  C_2
REMARK    2  A    between atoms: N_8  and  C_9
REMARK    3  A    between atoms: C_9  and  C_10
REMARK    4  A    between atoms: C_10  and  C_11
REMARK    5  A    between atoms: C_14  and  O_18
REMARK    6  A    between atoms: C_15  and  O_17
REMARK    7  A    between atoms: C_19  and  C_27
REMARK    8  A    between atoms: C_21  and  C_25
REMARK    9  A    between atoms: C_22  and  N_24
REMARK                            x       y       z     vdW  Elec       q    Type
REMARK                         _______ _______ _______ _____ _____    ______ ____
ROOT
ATOM      1  C   UNL     1      -5.446   2.871   4.831  0.00  0.00    +0.064 C 
ATOM      2  C   UNL     1      -4.692   2.557   3.564  0.00  0.00    +0.022 A 
ATOM      3  C   UNL     1      -5.089   3.110   2.398  0.00  0.00    +0.068 A 
ATOM      4  C   UNL     1      -4.388   2.820   1.210  0.00  0.00    +0.141 A 
ATOM      5  C   UNL     1      -3.301   1.972   1.266  0.00  0.00    +0.072 A 
ATOM      6  C   UNL     1      -2.926   1.421   2.498  0.00  0.00    +0.259 A 
ATOM      7  O   UNL     1      -1.968   0.668   2.562  0.00  0.00    -0.267 OA
ATOM      8  N   UNL     1      -3.622   1.721   3.611  0.00  0.00    -0.312 N 
ATOM      9  C   UNL     1      -2.524   1.637   0.023  0.00  0.00    +0.105 C 
ATOM     10  C   UNL     1      -3.321   1.997  -1.199  0.00  0.00    +0.098 C 
ATOM     11  C   UNL     1      -4.386   2.829  -1.123  0.00  0.00    +0.199 C 
ATOM     12  O   UNL     1      -4.784   3.370   0.043  0.00  0.00    -0.441 OA
ENDROOT
BRANCH   9  13
ATOM     13  C   UNL     1      -1.228   2.407   0.021  0.00  0.00    -0.016 A 
ATOM     14  C   UNL     1      -1.247   3.789   0.034  0.00  0.00    +0.006 A 
ATOM     15  C   UNL     1      -0.059   4.497   0.026  0.00  0.00    +0.000 A 
ATOM     16  C   UNL     1       1.148   3.822   0.011  0.00  0.00    +0.001 A 
ATOM     17  C   UNL     1       1.167   2.440   0.004  0.00  0.00    +0.020 A 
ATOM     18  C   UNL     1      -0.021   1.732   0.012  0.00  0.00    +0.045 A 
ATOM     19 CL   UNL     1       0.002  -0.004   0.002  0.00  0.00    -0.083 Cl
ENDBRANCH   9  13
BRANCH  11  20
ATOM     20  N   UNL     1      -5.082   3.129  -2.268  0.00  0.00    -0.328 N 
ATOM     21  H   UNL     1      -4.807   2.746  -3.116  0.00  0.00    +0.145 HD
ATOM     22  H   UNL     1      -5.847   3.723  -2.229  0.00  0.00    +0.145 HD
ENDBRANCH  11  20
BRANCH  10  23
ATOM     23  C   UNL     1      -2.945   1.452  -2.469  0.00  0.00    +0.101 C 
ATOM     24  N   UNL     1      -2.647   1.019  -3.476  0.00  0.00    -0.191 NA
ENDBRANCH  10  23
BRANCH   8  25
ATOM     25  C   UNL     1      -3.218   1.137   4.892  0.00  0.00    +0.130 C 
BRANCH  25  26
ATOM     26  C   UNL     1      -3.947  -0.192   5.099  0.00  0.00    +0.057 C 
BRANCH  26  27
ATOM     27  C   UNL     1      -3.532  -0.792   6.418  0.00  0.00    -0.042 A 
ATOM     28  C   UNL     1      -2.448  -1.649   6.475  0.00  0.00    +0.007 A 
ATOM     29  C   UNL     1      -2.060  -2.198   7.683  0.00  0.00    +0.049 A 
ATOM     30  C   UNL     1      -2.764  -1.899   8.838  0.00  0.00    +0.158 A 
ATOM     31  C   UNL     1      -3.859  -1.042   8.780  0.00  0.00    +0.158 A 
ATOM     32  C   UNL     1      -4.239  -0.490   7.567  0.00  0.00    +0.052 A 
BRANCH  31  33
ATOM     33  O   UNL     1      -4.553  -0.745   9.911  0.00  0.00    -0.503 OA
ATOM     34  H   UNL     1      -5.287  -1.349  10.091  0.00  0.00    +0.292 HD
ENDBRANCH  31  33
BRANCH  30  35
ATOM     35  O   UNL     1      -2.387  -2.443  10.026  0.00  0.00    -0.503 OA
ATOM     36  H   UNL     1      -2.811  -3.290  10.223  0.00  0.00    +0.292 HD
ENDBRANCH  30  35
ENDBRANCH  26  27
ENDBRANCH  25  26
ENDBRANCH   8  25
TORSDOF 8
