REMARK  Name = ZINC30889021
REMARK  5 active torsions:
REMARK  status: ('A' for Active; 'I' for Inactive)
REMARK    1  A    between atoms: C_1  and  C_2
REMARK    2  A    between atoms: C_6  and  N_12
REMARK    3  A    between atoms: C_13  and  C_15
REMARK    4  A    between atoms: C_15  and  C_17
REMARK    5  A    between atoms: C_18  and  C_27
REMARK                            x       y       z     vdW  Elec       q    Type
REMARK                         _______ _______ _______ _____ _____    ______ ____
ROOT
ATOM      1  N   UNL     1       5.885   5.048  -0.036  0.00  0.00    -0.279 N 
ATOM      2  C   UNL     1       4.575   5.197   0.246  0.00  0.00    +0.289 C 
ATOM      3  O   UNL     1       4.146   6.281   0.583  0.00  0.00    -0.266 OA
ATOM      4  H   UNL     1       6.290   4.050  -0.259  0.00  0.00    +0.155 HD
ENDROOT
BRANCH   1  10
ATOM      5  C   UNL     1      11.885   9.334   0.690  0.00  0.00    +0.063 C 
ATOM      6  C   UNL     1      10.551   8.669   0.466  0.00  0.00    +0.014 A 
ATOM      7  C   UNL     1      10.293   7.369   0.678  0.00  0.00    +0.030 A 
ATOM      8  C   UNL     1       8.886   7.150   0.336  0.00  0.00    +0.002 A 
ATOM      9  C   UNL     1       8.049   6.033   0.348  0.00  0.00    +0.033 A 
ATOM     10  C   UNL     1       6.729   6.164  -0.045  0.00  0.00    +0.034 A 
ATOM     11  C   UNL     1       6.239   7.403  -0.456  0.00  0.00    +0.025 A 
ATOM     12  C   UNL     1       7.055   8.511  -0.466  0.00  0.00    +0.028 A 
ATOM     13  C   UNL     1       8.386   8.399  -0.074  0.00  0.00    +0.047 A 
ATOM     14  N   UNL     1       9.424   9.301   0.017  0.00  0.00    -0.358 N 
ATOM     15  H   UNL     1       9.451  10.377  -0.210  0.00  0.00    +0.166 HD
ENDBRANCH   1  10
BRANCH   2  16
ATOM     16  C   UNL     1       3.654   4.029   0.144  0.00  0.00    +0.250 C 
ATOM     17  O   UNL     1       4.098   2.924  -0.097  0.00  0.00    -0.282 OA
BRANCH  16  18
ATOM     18  C   UNL     1       2.216   4.213   0.334  0.00  0.00    +0.055 A 
ATOM     19  C   UNL     1       1.270   4.433  -0.649  0.00  0.00    +0.025 A 
ATOM     20  N   UNL     1       0.054   4.554  -0.086  0.00  0.00    -0.358 N 
ATOM     21  H   UNL     1      -0.829   4.734  -0.717  0.00  0.00    +0.166 HD
ATOM     22  C   UNL     1       0.135   4.422   1.286  0.00  0.00    +0.047 A 
ATOM     23  C   UNL     1       1.483   4.204   1.615  0.00  0.00    +0.011 A 
ATOM     24  C   UNL     1       1.860   4.034   2.943  0.00  0.00    +0.011 A 
ATOM     25  C   UNL     1       0.904   4.081   3.936  0.00  0.00    +0.001 A 
ATOM     26  C   UNL     1      -0.428   4.291   3.613  0.00  0.00    +0.002 A 
ATOM     27  C   UNL     1      -0.814   4.467   2.302  0.00  0.00    +0.026 A 
ATOM     28  C   UNL     1       1.556   4.523  -2.126  0.00  0.00    +0.064 C 
ENDBRANCH  16  18
ENDBRANCH   2  16
TORSDOF 3
