REMARK  Name = ZINC14001144
REMARK  3 active torsions:
REMARK  status: ('A' for Active; 'I' for Inactive)
REMARK    1  A    between atoms: N_14  and  C_17
REMARK    2  A    between atoms: C_17  and  C_18
REMARK    3  A    between atoms: N_20  and  C_21
REMARK                            x       y       z     vdW  Elec       q    Type
REMARK                         _______ _______ _______ _____ _____    ______ ____
ROOT
ATOM      1  C   UNL     1       8.576   6.312  -1.335  0.00  0.00    +0.017 A 
ATOM      2  C   UNL     1       7.738   5.587  -2.154  0.00  0.00    +0.027 A 
ATOM      3  C   UNL     1       6.783   4.740  -1.598  0.00  0.00    +0.049 A 
ATOM      4  C   UNL     1       6.685   4.634  -0.200  0.00  0.00    +0.027 A 
ATOM      5  C   UNL     1       7.541   5.375   0.616  0.00  0.00    +0.027 A 
ATOM      6  C   UNL     1       8.479   6.207   0.046  0.00  0.00    +0.019 A 
ATOM      7 BR   UNL     1       9.640   7.213   1.149  0.00  0.00    -0.050 Br
ATOM      8  C   UNL     1       5.603   3.679   0.071  0.00  0.00    +0.103 A 
ATOM      9  C   UNL     1       5.118   3.269  -1.168  0.00  0.00    +0.131 A 
ATOM     10  N   UNL     1       5.833   3.912  -2.160  0.00  0.00    -0.349 N 
ATOM     11  H   UNL     1       5.689   3.798  -3.112  0.00  0.00    +0.166 HD
ATOM     12  C   UNL     1       4.059   2.332  -1.196  0.00  0.00    +0.278 A 
ATOM     13  O   UNL     1       3.602   1.938  -2.256  0.00  0.00    -0.265 OA
ATOM     14  N   UNL     1       3.562   1.887  -0.022  0.00  0.00    -0.289 N 
ATOM     15  C   UNL     1       4.080   2.326   1.153  0.00  0.00    +0.203 A 
ATOM     16  N   UNL     1       5.058   3.185   1.198  0.00  0.00    -0.235 NA
ENDROOT
BRANCH  14  17
ATOM     17  C   UNL     1       2.462   0.920  -0.017  0.00  0.00    +0.222 C 
BRANCH  17  18
ATOM     18  C   UNL     1       1.147   1.655   0.000  0.00  0.00    +0.233 C 
ATOM     19  O   UNL     1       1.130   2.868   0.007  0.00  0.00    -0.274 OA
ATOM     20  N   UNL     1      -0.011   0.966   0.007  0.00  0.00    -0.311 N 
ATOM     21  H   UNL     1       0.002  -0.004   0.002  0.00  0.00    +0.149 HD
BRANCH  20  22
ATOM     22  C   UNL     1      -1.290   1.681   0.017  0.00  0.00    +0.073 C 
ATOM     23  C   UNL     1      -1.717   1.979   1.469  0.00  0.00    +0.022 C 
ATOM     24  C   UNL     1      -3.256   1.800   1.456  0.00  0.00    +0.002 C 
ATOM     25  C   UNL     1      -3.451   0.590   0.509  0.00  0.00    +0.002 C 
ATOM     26  C   UNL     1      -2.392   0.798  -0.593  0.00  0.00    +0.022 C 
ENDBRANCH  20  22
ENDBRANCH  17  18
ENDBRANCH  14  17
TORSDOF 3
