REMARK  Name = ZINC12974390
REMARK  9 active torsions:
REMARK  status: ('A' for Active; 'I' for Inactive)
REMARK    1  A    between atoms: C_1  and  C_2
REMARK    2  A    between atoms: C_4  and  C_31
REMARK    3  A    between atoms: C_6  and  N_13
REMARK    4  A    between atoms: C_14  and  C_16
REMARK    5  A    between atoms: C_16  and  S_17
REMARK    6  A    between atoms: S_17  and  C_18
REMARK    7  A    between atoms: C_21  and  C_24
REMARK    8  A    between atoms: N_22  and  C_23
REMARK    9  A    between atoms: C_24  and  C_25
REMARK                            x       y       z     vdW  Elec       q    Type
REMARK                         _______ _______ _______ _____ _____    ______ ____
ROOT
ATOM      1  N   UNL     1      -0.242   1.246   2.466  0.00  0.00    -0.255 N 
ATOM      2  C   UNL     1      -0.718   1.572   1.248  0.00  0.00    +0.230 C 
ATOM      3  O   UNL     1      -1.714   2.256   1.150  0.00  0.00    -0.274 OA
ATOM      4  H   UNL     1       0.555   0.699   2.544  0.00  0.00    +0.158 HD
ENDROOT
BRANCH   1  10
ATOM      5  C   UNL     1      -2.344   2.697   8.122  0.00  0.00    +0.068 C 
ATOM      6  C   UNL     1      -1.358   2.019   7.206  0.00  0.00    +0.070 A 
ATOM      7  C   UNL     1      -1.513   2.124   5.752  0.00  0.00    +0.053 A 
ATOM      8  C   UNL     1      -2.375   2.715   4.899  0.00  0.00    +0.114 A 
ATOM      9  O   UNL     1      -1.992   2.457   3.635  0.00  0.00    -0.445 OA
ATOM     10  C   UNL     1      -0.890   1.692   3.605  0.00  0.00    +0.206 A 
ATOM     11  C   UNL     1      -0.512   1.434   4.900  0.00  0.00    +0.110 A 
ATOM     12  C   UNL     1       0.556   0.701   5.572  0.00  0.00    +0.277 A 
ATOM     13  O   UNL     1       1.407   0.115   4.928  0.00  0.00    -0.266 OA
ATOM     14  N   UNL     1       0.581   0.685   6.921  0.00  0.00    -0.242 N 
ATOM     15  H   UNL     1       1.292   0.197   7.367  0.00  0.00    +0.192 HD
ATOM     16  N   UNL     1      -0.369   1.339   7.700  0.00  0.00    -0.175 NA
ATOM     17  C   UNL     1      -3.572   3.539   5.298  0.00  0.00    +0.087 C 
ENDBRANCH   1  10
BRANCH   2  18
ATOM     18  C   UNL     1      -0.013   1.086   0.008  0.00  0.00    +0.173 C 
BRANCH  18  19
ATOM     19  S   UNL     1      -0.888   1.685  -1.458  0.00  0.00    -0.077 S 
BRANCH  19  20
ATOM     20  C   UNL     1       0.122   0.990  -2.724  0.00  0.00    +0.192 A 
ATOM     21  N   UNL     1       1.194   0.253  -2.549  0.00  0.00    -0.122 NA
ATOM     22  N   UNL     1       1.683  -0.084  -3.689  0.00  0.00    -0.133 NA
ATOM     23  C   UNL     1       0.958   0.414  -4.651  0.00  0.00    +0.138 A 
ATOM     24  N   UNL     1      -0.066   1.111  -4.071  0.00  0.00    -0.309 N 
ATOM     25  C   UNL     1      -1.139   1.839  -4.752  0.00  0.00    +0.152 C 
BRANCH  23  26
ATOM     26  C   UNL     1       1.199   0.247  -6.129  0.00  0.00    +0.111 C 
BRANCH  26  27
ATOM     27  C   UNL     1       0.474  -0.979  -6.621  0.00  0.00    -0.040 A 
ATOM     28  C   UNL     1       1.111  -2.206  -6.619  0.00  0.00    +0.004 A 
ATOM     29  C   UNL     1       0.444  -3.332  -7.066  0.00  0.00    +0.000 A 
ATOM     30  C   UNL     1      -0.856  -3.229  -7.524  0.00  0.00    +0.000 A 
ATOM     31  C   UNL     1      -1.491  -2.001  -7.531  0.00  0.00    +0.000 A 
ATOM     32  C   UNL     1      -0.826  -0.876  -7.080  0.00  0.00    +0.004 A 
ENDBRANCH  26  27
ENDBRANCH  23  26
ENDBRANCH  19  20
ENDBRANCH  18  19
ENDBRANCH   2  18
TORSDOF 6
