REMARK  Name = ZINC32732004
REMARK  5 active torsions:
REMARK  status: ('A' for Active; 'I' for Inactive)
REMARK    1  A    between atoms: C_1  and  C_2
REMARK    2  A    between atoms: C_3  and  C_14
REMARK    3  A    between atoms: N_5  and  C_7
REMARK    4  A    between atoms: N_16  and  N_17
REMARK    5  A    between atoms: C_18  and  C_20
REMARK                            x       y       z     vdW  Elec       q    Type
REMARK                         _______ _______ _______ _____ _____    ______ ____
ROOT
ATOM      1  C   UNL     1       2.361   6.800   0.878  0.00  0.00    +0.265 C 
ATOM      2  O   UNL     1       2.048   7.287   1.948  0.00  0.00    -0.268 OA
ATOM      3  N   UNL     1       3.335   7.367   0.139  0.00  0.00    -0.230 N 
ATOM      4  H   UNL     1       3.619   6.927  -0.828  0.00  0.00    +0.173 HD
ENDROOT
BRANCH   1   7
ATOM      5  C   UNL     1      -0.254   6.743  -0.918  0.00  0.00    +0.068 C 
ATOM      6  C   UNL     1       0.512   5.549  -0.408  0.00  0.00    +0.074 A 
ATOM      7  C   UNL     1       1.677   5.590   0.392  0.00  0.00    +0.098 A 
ATOM      8  C   UNL     1       2.050   4.281   0.636  0.00  0.00    +0.145 A 
ATOM      9  N   UNL     1       1.161   3.487   0.009  0.00  0.00    -0.220 N 
ATOM     10  N   UNL     1       0.216   4.298  -0.629  0.00  0.00    -0.170 NA
ATOM     11 CL   UNL     1       3.414   3.758   1.574  0.00  0.00    -0.061 Cl
BRANCH   9  12
ATOM     12  C   UNL     1       1.177   2.086   0.002  0.00  0.00    +0.067 A 
ATOM     13  C   UNL     1      -0.017   1.377   0.010  0.00  0.00    +0.028 A 
ATOM     14  C   UNL     1       0.002  -0.004   0.002  0.00  0.00    +0.002 A 
ATOM     15  C   UNL     1       1.208  -0.680  -0.014  0.00  0.00    +0.000 A 
ATOM     16  C   UNL     1       2.398   0.023  -0.021  0.00  0.00    +0.002 A 
ATOM     17  C   UNL     1       2.386   1.404  -0.012  0.00  0.00    +0.028 A 
ENDBRANCH   9  12
ENDBRANCH   1   7
BRANCH   3  18
ATOM     18  N   UNL     1       3.986   8.518   0.602  0.00  0.00    -0.230 N 
ATOM     19  C   UNL     1       4.960   9.085  -0.138  0.00  0.00    +0.267 C 
ATOM     20  O   UNL     1       5.273   8.598  -1.208  0.00  0.00    -0.268 OA
ATOM     21  H   UNL     1       3.703   8.959   1.569  0.00  0.00    +0.173 HD
BRANCH  19  22
ATOM     22  C   UNL     1       5.641  10.290   0.347  0.00  0.00    +0.076 A 
ATOM     23  C   UNL     1       6.653  11.018  -0.249  0.00  0.00    +0.024 A 
ATOM     24  C   UNL     1       7.136  12.133   0.416  0.00  0.00    -0.036 A 
ATOM     25  C   UNL     1       6.566  12.424   1.623  0.00  0.00    -0.006 A 
ATOM     26  S   UNL     1       5.375  11.203   1.858  0.00  0.00    -0.088 S 
ATOM     27  C   UNL     1       6.908  13.564   2.532  0.00  0.00    +0.043 C 
ATOM     28  C   UNL     1       8.254  14.153   2.085  0.00  0.00    +0.005 C 
ATOM     29  C   UNL     1       8.220  14.364   0.569  0.00  0.00    +0.005 C 
ATOM     30  C   UNL     1       8.250  13.012  -0.146  0.00  0.00    +0.036 C 
ENDBRANCH  19  22
ENDBRANCH   3  18
TORSDOF 4
