REMARK  Name = ZINC13764911
REMARK  5 active torsions:
REMARK  status: ('A' for Active; 'I' for Inactive)
REMARK    1  A    between atoms: C_4  and  C_7
REMARK    2  A    between atoms: C_9  and  C_22
REMARK    3  A    between atoms: C_13  and  N_21
REMARK    4  A    between atoms: C_14  and  C_16
REMARK    5  A    between atoms: N_17  and  C_18
REMARK                            x       y       z     vdW  Elec       q    Type
REMARK                         _______ _______ _______ _____ _____    ______ ____
ROOT
ATOM      1  C   UNL     1       4.561  -0.224   0.201  0.00  0.00    -0.004 A 
ATOM      2  C   UNL     1       5.805   0.179  -0.256  0.00  0.00    +0.037 A 
ATOM      3  C   UNL     1       6.952  -0.507   0.141  0.00  0.00    +0.073 A 
ATOM      4  N   UNL     1       6.862  -1.550   0.958  0.00  0.00    -0.239 NA
ATOM      5  C   UNL     1       5.704  -1.968   1.417  0.00  0.00    +0.112 A 
ATOM      6  C   UNL     1       4.480  -1.344   1.084  0.00  0.00    +0.037 A 
ATOM      7  C   UNL     1       3.300  -1.936   1.686  0.00  0.00    +0.052 A 
ATOM      8  C   UNL     1       3.465  -3.027   2.517  0.00  0.00    +0.076 A 
ATOM      9  S   UNL     1       5.227  -3.295   2.498  0.00  0.00    -0.064 S 
ENDROOT
BRANCH   1  13
ATOM     10  C   UNL     1       1.046   1.848  -0.993  0.00  0.00    +0.000 A 
ATOM     11  C   UNL     1       2.088   2.541  -0.402  0.00  0.00    +0.001 A 
ATOM     12  C   UNL     1       3.231   1.874  -0.012  0.00  0.00    +0.008 A 
ATOM     13  C   UNL     1       3.336   0.498  -0.215  0.00  0.00    -0.017 A 
ATOM     14  C   UNL     1       2.283  -0.195  -0.811  0.00  0.00    +0.008 A 
ATOM     15  C   UNL     1       1.145   0.483  -1.197  0.00  0.00    +0.001 A 
ENDBRANCH   1  13
BRANCH   3  16
ATOM     16  C   UNL     1       8.281  -0.070  -0.352  0.00  0.00    +0.000 A 
ATOM     17  C   UNL     1       8.384   1.027  -1.206  0.00  0.00    +0.010 A 
ATOM     18  C   UNL     1       9.623   1.429  -1.661  0.00  0.00    +0.001 A 
ATOM     19  C   UNL     1      10.761   0.746  -1.273  0.00  0.00    +0.000 A 
ATOM     20  C   UNL     1      10.665  -0.344  -0.425  0.00  0.00    +0.001 A 
ATOM     21  C   UNL     1       9.432  -0.751   0.041  0.00  0.00    +0.010 A 
ENDBRANCH   3  16
BRANCH   8  22
ATOM     22  C   UNL     1       2.473  -3.761   3.208  0.00  0.00    +0.144 C 
ATOM     23  N   UNL     1       2.800  -4.875   3.853  0.00  0.00    -0.157 NA
ATOM     24  N   UNL     1       1.170  -3.322   3.212  0.00  0.00    -0.342 N 
ATOM     25  H   UNL     1       0.931  -2.508   2.741  0.00  0.00    +0.144 HD
ATOM     26  H   UNL     1       0.490  -3.826   3.686  0.00  0.00    +0.144 HD
BRANCH  23  27
ATOM     27  C   UNL     1       4.047  -5.390   3.724  0.00  0.00    +0.207 C 
ATOM     28  N   UNL     1       5.092  -5.822   3.617  0.00  0.00    -0.169 NA
ENDBRANCH  23  27
ENDBRANCH   8  22
BRANCH   7  29
ATOM     29  N   UNL     1       2.036  -1.418   1.434  0.00  0.00    -0.356 N 
ATOM     30  H   UNL     1       1.270  -2.011   1.382  0.00  0.00    +0.142 HD
ATOM     31  H   UNL     1       1.919  -0.463   1.310  0.00  0.00    +0.142 HD
ENDBRANCH   7  29
TORSDOF 5
