REMARK  Name = ZINC22041674
REMARK  15 active torsions:
REMARK  status: ('A' for Active; 'I' for Inactive)
REMARK    1  A    between atoms: C_1  and  C_2
REMARK    2  A    between atoms: C_2  and  C_35
REMARK    3  A    between atoms: C_7  and  C_11
REMARK    4  A    between atoms: C_11  and  O_12
REMARK    5  A    between atoms: O_12  and  C_13
REMARK    6  A    between atoms: C_13  and  C_14
REMARK    7  A    between atoms: C_14  and  C_16
REMARK    8  A    between atoms: C_14  and  O_34
REMARK    9  A    between atoms: C_16  and  N_17
REMARK   10  A    between atoms: N_17  and  C_18
REMARK   11  A    between atoms: C_18  and  C_19
REMARK   12  A    between atoms: C_19  and  C_21
REMARK   13  A    between atoms: C_19  and  N_29
REMARK   14  A    between atoms: C_24  and  O_27
REMARK   15  A    between atoms: O_27  and  C_28
REMARK                            x       y       z     vdW  Elec       q    Type
REMARK                         _______ _______ _______ _____ _____    ______ ____
ROOT
ATOM      1  N   UNL     1      -0.865  -8.694   4.059  0.00  0.00    +0.380 N 
ATOM      2  H   UNL     1      -1.527  -8.920   3.332  0.00  0.00    -0.086 HD
ATOM      3  H   UNL     1       0.066  -8.935   3.752  0.00  0.00    -0.086 HD
ENDROOT
BRANCH   1   4
ATOM      4  C   UNL     1      -0.927  -7.255   4.348  0.00  0.00    -0.049 C 
BRANCH   4   5
ATOM      5  C   UNL     1      -0.586  -6.465   3.083  0.00  0.00    +0.123 C 
BRANCH   5   6
ATOM      6  O   UNL     1      -1.590  -6.695   2.093  0.00  0.00    -0.391 OA
ATOM      7  H   UNL     1      -2.479  -6.429   2.364  0.00  0.00    +0.210 HD
ENDBRANCH   5   6
BRANCH   5   8
ATOM      8  C   UNL     1      -0.529  -4.972   3.414  0.00  0.00    +0.189 C 
BRANCH   8   9
ATOM      9  O   UNL     1      -0.097  -4.245   2.262  0.00  0.00    -0.373 OA
BRANCH   9  10
ATOM     10  C   UNL     1      -0.009  -2.833   2.465  0.00  0.00    +0.190 C 
BRANCH  10  16
ATOM     11  C   UNL     1      -0.052   1.424  -0.244  0.00  0.00    +0.012 C 
ATOM     12  C   UNL     1       0.048  -0.102  -0.196  0.00  0.00    -0.025 C 
ATOM     13  C   UNL     1       1.315  -0.667  -0.870  0.00  0.00    -0.000 C 
ATOM     14  C   UNL     1       1.163  -2.169  -1.144  0.00  0.00    +0.031 C 
ATOM     15  C   UNL     1       0.711  -2.873   0.113  0.00  0.00    -0.025 C 
ATOM     16  C   UNL     1       0.453  -2.171   1.193  0.00  0.00    -0.045 C 
ATOM     17  C   UNL     1       0.650  -0.646   1.113  0.00  0.00    +0.023 C 
ATOM     18  C   UNL     1       2.022  -0.351   0.459  0.00  0.00    +0.013 C 
ATOM     19  C   UNL     1      -1.246  -0.800  -0.619  0.00  0.00    +0.012 C 
ENDBRANCH  10  16
ENDBRANCH   9  10
ENDBRANCH   8   9
ENDBRANCH   5   8
ENDBRANCH   4   5
ENDBRANCH   1   4
BRANCH   1  20
ATOM     20  C   UNL     1      -1.192  -9.452   5.274  0.00  0.00    -0.094 C 
BRANCH  20  21
ATOM     21  C   UNL     1      -1.261 -10.944   4.940  0.00  0.00    -0.055 C 
BRANCH  21  22
ATOM     22  C   UNL     1       0.106 -11.431   4.535  0.00  0.00    -0.062 A 
ATOM     23  C   UNL     1       1.047 -11.731   5.503  0.00  0.00    +0.005 A 
ATOM     24  C   UNL     1       2.301 -12.178   5.134  0.00  0.00    +0.046 A 
ATOM     25  C   UNL     1       2.616 -12.326   3.791  0.00  0.00    +0.120 A 
ATOM     26  C   UNL     1       1.670 -12.025   2.821  0.00  0.00    +0.046 A 
ATOM     27  C   UNL     1       0.416 -11.584   3.196  0.00  0.00    +0.005 A 
BRANCH  25  28
ATOM     28  O   UNL     1       3.849 -12.765   3.425  0.00  0.00    -0.495 OA
ATOM     29  C   UNL     1       4.103 -12.894   2.025  0.00  0.00    +0.277 C 
ENDBRANCH  25  28
ENDBRANCH  21  22
BRANCH  21  30
ATOM     30  N   UNL     1      -1.716 -11.689   6.122  0.00  0.00    +0.383 N 
ATOM     31  C   UNL     1      -3.102 -11.290   6.476  0.00  0.00    -0.078 C 
ATOM     32  C   UNL     1      -3.615 -12.492   7.308  0.00  0.00    -0.020 C 
ATOM     33  C   UNL     1      -2.986 -13.706   6.585  0.00  0.00    -0.020 C 
ATOM     34  C   UNL     1      -1.778 -13.136   5.819  0.00  0.00    -0.078 C 
ATOM     35  H   UNL     1      -1.095 -11.523   6.899  0.00  0.00    -0.081 HD
ENDBRANCH  21  30
ENDBRANCH  20  21
ENDBRANCH   1  20
TORSDOF 12
