REMARK  Name = ZINC00914919
REMARK  7 active torsions:
REMARK  status: ('A' for Active; 'I' for Inactive)
REMARK    1  A    between atoms: C_1  and  C_2
REMARK    2  A    between atoms: C_2  and  C_3
REMARK    3  A    between atoms: C_3  and  C_5
REMARK    4  A    between atoms: C_3  and  N_9
REMARK    5  A    between atoms: C_5  and  O_7
REMARK    6  A    between atoms: O_7  and  C_8
REMARK    7  A    between atoms: C_20  and  C_24
REMARK                            x       y       z     vdW  Elec       q    Type
REMARK                         _______ _______ _______ _____ _____    ______ ____
ROOT
ATOM      1  N   UNL     1       2.733   0.374   5.921  0.00  0.00    -0.285 N 
ATOM      2  C   UNL     1       4.047   0.570   5.658  0.00  0.00    +0.204 A 
ATOM      3  N   UNL     1       4.499   0.893   4.466  0.00  0.00    -0.230 NA
ATOM      4  C   UNL     1       3.606   1.029   3.490  0.00  0.00    +0.116 A 
ATOM      5  C   UNL     1       2.216   0.847   3.665  0.00  0.00    +0.076 A 
ATOM      6  C   UNL     1       1.765   0.494   4.981  0.00  0.00    +0.263 A 
ATOM      7  O   UNL     1       0.587   0.314   5.237  0.00  0.00    -0.267 OA
ATOM      8  C   UNL     1       1.392   1.037   2.485  0.00  0.00    -0.023 A 
ATOM      9  C   UNL     1       2.036   1.370   1.342  0.00  0.00    -0.004 A 
ATOM     10  S   UNL     1       3.755   1.443   1.781  0.00  0.00    -0.073 S 
ATOM     11  C   UNL     1       1.426   1.621  -0.003  0.00  0.00    +0.046 C 
ATOM     12  C   UNL     1      -0.013   1.086   0.008  0.00  0.00    -0.009 C 
ATOM     13  C   UNL     1      -0.711   1.583   1.277  0.00  0.00    +0.008 C 
ATOM     14  C   UNL     1      -0.126   0.879   2.501  0.00  0.00    +0.037 C 
ATOM     15  C   UNL     1      -0.759   1.596  -1.226  0.00  0.00    +0.008 C 
ENDROOT
BRANCH   1  16
ATOM     16  C   UNL     1       2.340   0.016   7.286  0.00  0.00    +0.199 C 
BRANCH  16  18
ATOM     17  C   UNL     1       1.997   2.406   7.928  0.00  0.00    +0.006 C 
ATOM     18  C   UNL     1       2.770   1.125   8.248  0.00  0.00    +0.033 C 
ENDBRANCH  16  18
BRANCH  16  19
ATOM     19  C   UNL     1       3.008  -1.276   7.678  0.00  0.00    +0.330 C 
ATOM     20  O   UNL     1       3.738  -1.840   6.898  0.00  0.00    -0.249 OA
BRANCH  19  21
ATOM     21  O   UNL     1       2.793  -1.801   8.895  0.00  0.00    -0.466 OA
ATOM     22  C   UNL     1       3.470  -3.048   9.204  0.00  0.00    +0.280 C 
ENDBRANCH  19  21
ENDBRANCH  16  19
ENDBRANCH   1  16
TORSDOF 4
