REMARK  Name = ZINC39674234
REMARK  9 active torsions:
REMARK  status: ('A' for Active; 'I' for Inactive)
REMARK    1  A    between atoms: C_1  and  C_2
REMARK    2  A    between atoms: C_2  and  C_3
REMARK    3  A    between atoms: C_6  and  C_9
REMARK    4  A    between atoms: C_13  and  C_22
REMARK    5  A    between atoms: N_24  and  C_25
REMARK    6  A    between atoms: C_25  and  C_27
REMARK    7  A    between atoms: C_25  and  C_28
REMARK    8  A    between atoms: C_29  and  C_35
REMARK    9  A    between atoms: C_32  and  C_34
REMARK                            x       y       z     vdW  Elec       q    Type
REMARK                         _______ _______ _______ _____ _____    ______ ____
ROOT
ATOM      1  C   UNL     1      -7.053  -1.731   0.190  0.00  0.00    +0.247 C 
ATOM      2  O   UNL     1      -7.773  -1.985   1.135  0.00  0.00    -0.270 OA
ATOM      3  N   UNL     1      -7.503  -1.912  -1.068  0.00  0.00    -0.296 N 
ATOM      4  C   UNL     1      -6.743  -1.778  -2.333  0.00  0.00    +0.121 C 
ATOM      5  C   UNL     1      -7.253  -2.936  -3.220  0.00  0.00    +0.100 C 
ATOM      6  C   UNL     1      -8.650  -3.266  -2.668  0.00  0.00    -0.004 C 
ATOM      7  C   UNL     1      -8.869  -2.297  -1.498  0.00  0.00    +0.115 C 
ATOM      8  C   UNL     1      -8.693  -4.707  -2.167  0.00  0.00    -0.010 C 
ATOM      9  C   UNL     1     -10.107  -5.029  -1.676  0.00  0.00    -0.082 C 
ATOM     10  N   UNL     1     -11.063  -4.844  -2.775  0.00  0.00    +0.379 N 
ATOM     11  C   UNL     1     -11.082  -3.436  -3.189  0.00  0.00    -0.082 C 
ATOM     12  C   UNL     1      -9.710  -3.045  -3.743  0.00  0.00    -0.010 C 
ATOM     13  H   UNL     1     -10.790  -5.419  -3.557  0.00  0.00    -0.086 HD
ATOM     14  H   UNL     1     -11.984  -5.115  -2.467  0.00  0.00    -0.086 HD
ENDROOT
BRANCH   1  18
ATOM     15  C   UNL     1      -3.118  -0.273   0.847  0.00  0.00    -0.048 A 
ATOM     16  C   UNL     1      -3.751  -1.013   1.829  0.00  0.00    +0.004 A 
ATOM     17  C   UNL     1      -5.029  -1.489   1.622  0.00  0.00    +0.013 A 
ATOM     18  C   UNL     1      -5.684  -1.223   0.418  0.00  0.00    +0.037 A 
ATOM     19  C   UNL     1      -5.039  -0.476  -0.569  0.00  0.00    +0.013 A 
ATOM     20  C   UNL     1      -3.763  -0.001  -0.347  0.00  0.00    +0.004 A 
BRANCH  15  22
ATOM     21  C   UNL     1      -1.792   1.629   1.728  0.00  0.00    +0.009 C 
ATOM     22  C   UNL     1      -1.722   0.244   1.080  0.00  0.00    +0.032 C 
ENDBRANCH  15  22
ENDBRANCH   1  18
BRANCH   5  23
ATOM     23  C   UNL     1      -7.346  -2.494  -4.658  0.00  0.00    +0.219 C 
ATOM     24  O   UNL     1      -7.490  -1.319  -4.923  0.00  0.00    -0.275 OA
ATOM     25  N   UNL     1      -7.268  -3.404  -5.649  0.00  0.00    -0.309 N 
ATOM     26  H   UNL     1      -7.152  -4.343  -5.436  0.00  0.00    +0.149 HD
BRANCH  25  27
ATOM     27  C   UNL     1      -7.357  -2.975  -7.046  0.00  0.00    +0.100 C 
ATOM     28  C   UNL     1      -6.010  -2.402  -7.491  0.00  0.00    +0.033 C 
BRANCH  27  29
ATOM     29  C   UNL     1      -7.712  -4.156  -7.913  0.00  0.00    -0.001 C 
ATOM     30  C   UNL     1      -8.783  -4.310  -8.695  0.00  0.00    +0.063 C 
ATOM     31  N   UNL     1      -8.753  -5.508  -9.319  0.00  0.00    -0.159 NA
ATOM     32  N   UNL     1      -7.769  -6.201  -9.049  0.00  0.00    -0.180 NA
ATOM     33  C   UNL     1      -6.931  -5.444  -8.104  0.00  0.00    +0.154 C 
ATOM     34  C   UNL     1      -6.798  -6.198  -6.779  0.00  0.00    +0.039 C 
ATOM     35  C   UNL     1      -9.877  -3.286  -8.859  0.00  0.00    +0.067 C 
ENDBRANCH  27  29
ENDBRANCH  25  27
ENDBRANCH   5  23
TORSDOF 5
