REMARK  Name = ZINC29554838
REMARK  6 active torsions:
REMARK  status: ('A' for Active; 'I' for Inactive)
REMARK    1  A    between atoms: C_1  and  C_2
REMARK    2  A    between atoms: C_9  and  C_12
REMARK    3  A    between atoms: N_18  and  S_21
REMARK    4  A    between atoms: S_21  and  C_24
REMARK    5  A    between atoms: C_25  and  C_30
REMARK    6  A    between atoms: C_28  and  C_29
REMARK                            x       y       z     vdW  Elec       q    Type
REMARK                         _______ _______ _______ _____ _____    ______ ____
ROOT
ATOM      1  C   UNL     1       1.687   3.248   0.003  0.00  0.00    +0.263 C 
ATOM      2  O   UNL     1       1.352   2.083  -0.100  0.00  0.00    -0.268 OA
ATOM      3  N   UNL     1       0.751   4.210   0.118  0.00  0.00    -0.295 N 
ATOM      4  C   UNL     1      -0.680   3.841   0.236  0.00  0.00    +0.109 C 
ATOM      5  C   UNL     1      -1.120   3.963   1.639  0.00  0.00    +0.036 C 
ATOM      6  C   UNL     1      -0.920   5.389   2.180  0.00  0.00    +0.111 C 
ATOM      7  N   UNL     1       0.468   5.547   2.508  0.00  0.00    -0.175 NA
ATOM      8  C   UNL     1       1.449   6.119   1.545  0.00  0.00    +0.128 C 
ATOM      9  C   UNL     1       1.139   5.593   0.121  0.00  0.00    +0.125 C 
ENDROOT
BRANCH   1  18
ATOM     10  C   UNL     1       9.110   3.728  -0.320  0.00  0.00    +0.044 C 
ATOM     11  C   UNL     1       7.659   4.099  -0.152  0.00  0.00    -0.050 A 
ATOM     12  C   UNL     1       7.315   5.408   0.162  0.00  0.00    +0.005 A 
ATOM     13  C   UNL     1       5.996   5.768   0.319  0.00  0.00    +0.026 A 
ATOM     14  C   UNL     1       4.994   4.814   0.163  0.00  0.00    +0.047 A 
ATOM     15  C   UNL     1       5.346   3.487  -0.155  0.00  0.00    +0.001 A 
ATOM     16  C   UNL     1       6.696   3.146  -0.310  0.00  0.00    +0.013 A 
ATOM     17  C   UNL     1       4.140   2.752  -0.250  0.00  0.00    +0.040 A 
ATOM     18  C   UNL     1       3.113   3.606   0.000  0.00  0.00    +0.103 A 
ATOM     19  N   UNL     1       3.623   4.865   0.253  0.00  0.00    -0.351 N 
ATOM     20  H   UNL     1       3.123   5.814   0.495  0.00  0.00    +0.166 HD
ENDBRANCH   1  18
BRANCH   7  21
ATOM     21  S   UNL     1       0.996   5.078   4.006  0.00  0.00    +0.066 S 
ATOM     22  O   UNL     1       0.071   4.106   4.476  0.00  0.00    -0.153 OA
ATOM     23  O   UNL     1       2.385   4.809   3.881  0.00  0.00    -0.153 OA
BRANCH  21  24
ATOM     24  C   UNL     1       0.847   6.473   5.071  0.00  0.00    +0.170 A 
ATOM     25  C   UNL     1      -0.262   6.848   5.864  0.00  0.00    +0.107 A 
ATOM     26  N   UNL     1       0.081   7.941   6.482  0.00  0.00    -0.081 NA
ATOM     27  O   UNL     1       1.205   8.281   6.194  0.00  0.00    -0.358 OA
ATOM     28  C   UNL     1       1.770   7.431   5.325  0.00  0.00    +0.161 A 
ATOM     29  C   UNL     1       3.157   7.523   4.745  0.00  0.00    +0.091 C 
ATOM     30  C   UNL     1      -1.581   6.126   5.972  0.00  0.00    +0.071 C 
ENDBRANCH  21  24
ENDBRANCH   7  21
TORSDOF 3
