REMARK  Name = ZINC11450105
REMARK  6 active torsions:
REMARK  status: ('A' for Active; 'I' for Inactive)
REMARK    1  A    between atoms: C_1  and  C_2
REMARK    2  A    between atoms: N_11  and  C_15
REMARK    3  A    between atoms: C_15  and  C_16
REMARK    4  A    between atoms: C_21  and  N_24
REMARK    5  A    between atoms: N_24  and  S_25
REMARK    6  A    between atoms: S_25  and  C_28
REMARK                            x       y       z     vdW  Elec       q    Type
REMARK                         _______ _______ _______ _____ _____    ______ ____
ROOT
ATOM      1  C   UNL     1       3.149  -0.645   1.467  0.00  0.00    +0.234 C 
ATOM      2  O   UNL     1       3.053  -1.853   1.528  0.00  0.00    -0.274 OA
ATOM      3  N   UNL     1       2.043   0.113   1.334  0.00  0.00    -0.300 N 
ATOM      4  C   UNL     1       0.714  -0.508   1.262  0.00  0.00    +0.109 C 
ATOM      5  C   UNL     1       0.002  -0.004   0.002  0.00  0.00    +0.039 C 
ATOM      6  C   UNL     1      -0.019   1.526   0.010  0.00  0.00    +0.080 C 
ATOM      7  C   UNL     1       1.417   2.058  -0.000  0.00  0.00    +0.039 C 
ATOM      8  C   UNL     1       2.144   1.577   1.259  0.00  0.00    +0.109 C 
ENDROOT
BRANCH   6   9
ATOM      9  N   UNL     1      -0.728   2.011  -1.176  0.00  0.00    -0.186 NA
ATOM     10  H   UNL     1      -0.655   1.530  -2.015  0.00  0.00    +0.148 HD
BRANCH   9  11
ATOM     11  S   UNL     1      -1.653   3.382  -1.086  0.00  0.00    +0.065 S 
ATOM     12  O   UNL     1      -2.180   3.603  -2.387  0.00  0.00    -0.153 OA
ATOM     13  O   UNL     1      -2.483   3.236   0.058  0.00  0.00    -0.153 OA
BRANCH  11  14
ATOM     14  C   UNL     1      -0.563   4.725  -0.749  0.00  0.00    +0.142 A 
ATOM     15  C   UNL     1       0.094   5.530  -1.620  0.00  0.00    +0.036 A 
ATOM     16  C   UNL     1       0.906   6.532  -1.124  0.00  0.00    +0.010 A 
ATOM     17  C   UNL     1       1.022   6.681   0.219  0.00  0.00    +0.047 A 
ATOM     18  S   UNL     1      -0.042   5.382   0.827  0.00  0.00    -0.077 S 
ENDBRANCH  11  14
ENDBRANCH   9  11
ENDBRANCH   6   9
BRANCH   1  19
ATOM     19  C   UNL     1       4.506   0.006   1.540  0.00  0.00    +0.213 C 
BRANCH  19  29
ATOM     20  C   UNL     1       5.359  -4.361   1.271  0.00  0.00    +0.010 C 
ATOM     21  C   UNL     1       6.789  -4.027   0.841  0.00  0.00    +0.018 C 
ATOM     22  C   UNL     1       7.762  -5.006   1.502  0.00  0.00    +0.006 C 
ATOM     23  C   UNL     1       9.193  -4.659   1.088  0.00  0.00    +0.000 C 
ATOM     24  C   UNL     1       9.527  -3.237   1.545  0.00  0.00    +0.003 C 
ATOM     25  C   UNL     1       8.561  -2.251   0.883  0.00  0.00    +0.035 C 
ATOM     26  C   UNL     1       7.128  -2.603   1.267  0.00  0.00    +0.115 C 
ATOM     27  C   UNL     1       6.160  -1.622   0.646  0.00  0.00    +0.247 C 
ATOM     28  O   UNL     1       5.982  -1.416  -0.536  0.00  0.00    -0.273 OA
ATOM     29  N   UNL     1       5.537  -1.025   1.682  0.00  0.00    -0.215 N 
ATOM     30  C   UNL     1       5.981  -1.488   2.857  0.00  0.00    +0.310 C 
ATOM     31  O   UNL     1       5.574  -1.098   3.934  0.00  0.00    -0.252 OA
ATOM     32  N   UNL     1       6.926  -2.436   2.712  0.00  0.00    -0.285 N 
ATOM     33  H   UNL     1       7.386  -2.911   3.422  0.00  0.00    +0.151 HD
ENDBRANCH  19  29
ENDBRANCH   1  19
TORSDOF 5
