REMARK  Name = ZINC22620032
REMARK  11 active torsions:
REMARK  status: ('A' for Active; 'I' for Inactive)
REMARK    1  A    between atoms: C_1  and  C_2
REMARK    2  A    between atoms: C_3  and  C_36
REMARK    3  A    between atoms: C_11  and  C_13
REMARK    4  A    between atoms: C_13  and  C_15
REMARK    5  A    between atoms: C_13  and  O_16
REMARK    6  A    between atoms: O_16  and  C_17
REMARK    7  A    between atoms: C_17  and  C_19
REMARK    8  A    between atoms: C_19  and  N_20
REMARK    9  A    between atoms: C_25  and  C_32
REMARK   10  A    between atoms: C_28  and  C_30
REMARK   11  A    between atoms: C_28  and  C_31
REMARK                            x       y       z     vdW  Elec       q    Type
REMARK                         _______ _______ _______ _____ _____    ______ ____
ROOT
ATOM      1  C   UNL     1      -1.257  -3.733   6.465  0.00  0.00    +0.326 C 
ATOM      2  O   UNL     1      -0.236  -3.908   7.088  0.00  0.00    -0.249 OA
ENDROOT
BRANCH   1   3
ATOM      3  O   UNL     1      -1.206  -3.481   5.148  0.00  0.00    -0.453 OA
BRANCH   3   4
ATOM      4  C   UNL     1       0.090  -3.432   4.547  0.00  0.00    +0.239 C 
ATOM      5  C   UNL     1       0.478  -4.829   4.058  0.00  0.00    +0.060 C 
BRANCH   4  16
ATOM      6  C   UNL     1      -0.018   1.503   0.010  0.00  0.00    +0.045 C 
ATOM      7  C   UNL     1       0.002  -0.004   0.002  0.00  0.00    -0.026 A 
ATOM      8  C   UNL     1       0.006  -0.677  -1.160  0.00  0.00    -0.008 A 
ATOM      9  S   UNL     1       0.032  -2.385  -0.648  0.00  0.00    -0.073 S 
ATOM     10  C   UNL     1       0.037  -2.144   1.110  0.00  0.00    +0.116 A 
ATOM     11  C   UNL     1       0.024  -0.745   1.250  0.00  0.00    +0.075 A 
ATOM     12  C   UNL     1       0.029  -0.257   2.597  0.00  0.00    +0.260 A 
ATOM     13  O   UNL     1       0.014   0.942   2.821  0.00  0.00    -0.267 OA
ATOM     14  N   UNL     1       0.051  -1.142   3.611  0.00  0.00    -0.307 N 
ATOM     15  H   UNL     1       0.054  -0.817   4.525  0.00  0.00    +0.170 HD
ATOM     16  C   UNL     1       0.067  -2.480   3.380  0.00  0.00    +0.152 A 
ATOM     17  N   UNL     1       0.053  -2.956   2.163  0.00  0.00    -0.223 NA
ATOM     18  C   UNL     1      -0.009  -0.122  -2.561  0.00  0.00    +0.052 C 
ENDBRANCH   4  16
ENDBRANCH   3   4
ENDBRANCH   1   3
BRANCH   1  19
ATOM     19  C   UNL     1      -2.589  -3.800   7.168  0.00  0.00    +0.238 C 
BRANCH  19  20
ATOM     20  N   UNL     1      -2.377  -4.087   8.588  0.00  0.00    -0.213 N 
ATOM     21  C   UNL     1      -2.352  -5.329   9.119  0.00  0.00    +0.247 C 
ATOM     22  O   UNL     1      -2.666  -6.356   8.559  0.00  0.00    -0.273 OA
ATOM     23  C   UNL     1      -1.860  -5.150  10.535  0.00  0.00    +0.113 C 
ATOM     24  C   UNL     1      -2.775  -5.858  11.522  0.00  0.00    +0.038 C 
ATOM     25  C   UNL     1      -2.576  -7.371  11.427  0.00  0.00    -0.011 C 
ATOM     26  C   UNL     1      -1.133  -7.698  11.806  0.00  0.00    +0.009 C 
ATOM     27  C   UNL     1      -0.152  -7.037  10.845  0.00  0.00    -0.032 C 
ATOM     28  C   UNL     1      -0.405  -5.548  10.685  0.00  0.00    +0.041 C 
ATOM     29  C   UNL     1      -0.190  -7.743   9.487  0.00  0.00    +0.011 C 
ATOM     30  C   UNL     1       1.268  -7.222  11.423  0.00  0.00    +0.011 C 
ATOM     31  C   UNL     1      -3.528  -8.069  12.404  0.00  0.00    +0.007 C 
ATOM     32  N   UNL     1      -1.974  -3.688  10.742  0.00  0.00    -0.285 N 
ATOM     33  C   UNL     1      -2.211  -3.152   9.532  0.00  0.00    +0.310 C 
ATOM     34  O   UNL     1      -2.267  -1.958   9.318  0.00  0.00    -0.252 OA
ATOM     35  H   UNL     1      -1.891  -3.225  11.588  0.00  0.00    +0.151 HD
ENDBRANCH  19  20
ENDBRANCH   1  19
TORSDOF 5
