REMARK  Name = ZINC10292384
REMARK  6 active torsions:
REMARK  status: ('A' for Active; 'I' for Inactive)
REMARK    1  A    between atoms: C_3  and  C_6
REMARK    2  A    between atoms: C_6  and  C_8
REMARK    3  A    between atoms: C_6  and  N_15
REMARK    4  A    between atoms: C_16  and  C_18
REMARK    5  A    between atoms: C_18  and  N_19
REMARK    6  A    between atoms: C_20  and  C_26
REMARK                            x       y       z     vdW  Elec       q    Type
REMARK                         _______ _______ _______ _____ _____    ______ ____
ROOT
ATOM      1  N   UNL     1       4.628   5.141   0.075  0.00  0.00    -0.303 N 
ATOM      2  C   UNL     1       4.361   3.835   0.274  0.00  0.00    +0.234 C 
ATOM      3  O   UNL     1       4.478   3.354   1.381  0.00  0.00    -0.274 OA
ATOM      4  H   UNL     1       4.534   5.526  -0.810  0.00  0.00    +0.150 HD
ENDROOT
BRANCH   1   5
ATOM      5  C   UNL     1       5.060   5.980   1.197  0.00  0.00    +0.140 C 
BRANCH   5   6
ATOM      6  C   UNL     1       5.856   7.147   0.673  0.00  0.00    -0.022 A 
ATOM      7  C   UNL     1       5.462   7.787  -0.487  0.00  0.00    +0.008 A 
ATOM      8  C   UNL     1       6.189   8.861  -0.965  0.00  0.00    +0.038 A 
ATOM      9  C   UNL     1       7.317   9.290  -0.287  0.00  0.00    +0.123 A 
ATOM     10  C   UNL     1       7.714   8.644   0.872  0.00  0.00    +0.038 A 
ATOM     11  C   UNL     1       6.983   7.574   1.351  0.00  0.00    +0.008 A 
ATOM     12  F   UNL     1       8.032  10.336  -0.757  0.00  0.00    -0.205 F 
ENDBRANCH   5   6
BRANCH   5  15
ATOM     13  C   UNL     1       2.458   7.118   3.735  0.00  0.00    +0.008 A 
ATOM     14  C   UNL     1       3.662   6.620   3.274  0.00  0.00    +0.013 A 
ATOM     15  C   UNL     1       3.851   6.488   1.938  0.00  0.00    +0.014 A 
ATOM     16  S   UNL     1       2.293   7.067   1.286  0.00  0.00    -0.099 S 
ATOM     17  C   UNL     1       1.498   7.452   2.838  0.00  0.00    +0.045 A 
ENDBRANCH   5  15
ENDBRANCH   1   5
BRANCH   2  18
ATOM     18  C   UNL     1       3.917   2.973  -0.879  0.00  0.00    +0.221 C 
BRANCH  18  19
ATOM     19  N   UNL     1       3.692   1.605  -0.407  0.00  0.00    -0.294 N 
ATOM     20  C   UNL     1       2.484   1.081   0.010  0.00  0.00    +0.163 A 
ATOM     21  N   UNL     1       2.670  -0.161   0.361  0.00  0.00    -0.153 NA
ATOM     22  N   UNL     1       4.023  -0.470   0.164  0.00  0.00    -0.254 N 
ATOM     23  H   UNL     1       4.447  -1.324   0.338  0.00  0.00    +0.191 HD
ATOM     24  C   UNL     1       4.628   0.640  -0.307  0.00  0.00    +0.176 A 
ATOM     25  S   UNL     1       6.285   0.795  -0.707  0.00  0.00    -0.011 S 
BRANCH  20  26
ATOM     26  C   UNL     1       1.197   1.809   0.058  0.00  0.00    +0.019 A 
ATOM     27  C   UNL     1      -0.007   1.104   0.055  0.00  0.00    +0.013 A 
ATOM     28  C   UNL     1      -1.204   1.788   0.095  0.00  0.00    +0.021 A 
ATOM     29  C   UNL     1      -1.212   3.172   0.149  0.00  0.00    +0.041 A 
ATOM     30  C   UNL     1      -0.021   3.877   0.153  0.00  0.00    +0.021 A 
ATOM     31  C   UNL     1       1.183   3.203   0.108  0.00  0.00    +0.013 A 
ATOM     32 CL   UNL     1      -2.723   4.026   0.205  0.00  0.00    -0.084 Cl
ENDBRANCH  20  26
ENDBRANCH  18  19
ENDBRANCH   2  18
TORSDOF 6
