REMARK  Name = ZINC16137832
REMARK  6 active torsions:
REMARK  status: ('A' for Active; 'I' for Inactive)
REMARK    1  A    between atoms: C_4  and  N_7
REMARK    2  A    between atoms: N_10  and  C_11
REMARK    3  A    between atoms: C_11  and  C_12
REMARK    4  A    between atoms: C_17  and  C_20
REMARK    5  A    between atoms: C_20  and  N_21
REMARK    6  A    between atoms: N_24  and  C_25
REMARK                            x       y       z     vdW  Elec       q    Type
REMARK                         _______ _______ _______ _____ _____    ______ ____
ROOT
ATOM      1  C   UNL     1       6.817   5.381  -2.195  0.00  0.00    +0.006 C 
ATOM      2  C   UNL     1       7.223   5.438  -0.721  0.00  0.00    +0.005 C 
ATOM      3  C   UNL     1       6.444   6.552  -0.019  0.00  0.00    +0.001 C 
ATOM      4  C   UNL     1       6.759   7.893  -0.687  0.00  0.00    +0.005 C 
ATOM      5  C   UNL     1       6.353   7.836  -2.161  0.00  0.00    +0.006 C 
ATOM      6  C   UNL     1       7.132   6.722  -2.862  0.00  0.00    +0.010 C 
ENDROOT
BRANCH   1   7
ATOM      7  C   UNL     1       5.317   5.099  -2.300  0.00  0.00    +0.109 C 
BRANCH   7  11
ATOM      8  N   UNL     1       3.507   2.069  -1.270  0.00  0.00    -0.297 N 
ATOM      9  C   UNL     1       3.769   3.297  -1.759  0.00  0.00    +0.300 C 
ATOM     10  O   UNL     1       2.864   3.985  -2.192  0.00  0.00    -0.253 OA
ATOM     11  N   UNL     1       5.033   3.764  -1.768  0.00  0.00    -0.299 N 
ATOM     12  H   UNL     1       4.229   1.521  -0.924  0.00  0.00    +0.151 HD
ATOM     13  H   UNL     1       5.755   3.216  -1.423  0.00  0.00    +0.150 HD
BRANCH   8  17
ATOM     14  C   UNL     1       0.002  -0.004   0.002  0.00  0.00    +0.000 C 
ATOM     15  C   UNL     1      -0.019   1.526   0.010  0.00  0.00    +0.002 C 
ATOM     16  C   UNL     1       1.417   2.055  -0.000  0.00  0.00    +0.022 C 
ATOM     17  C   UNL     1       2.133   1.562  -1.259  0.00  0.00    +0.074 C 
ATOM     18  C   UNL     1       2.154   0.032  -1.268  0.00  0.00    +0.022 C 
ATOM     19  C   UNL     1       0.718  -0.497  -1.257  0.00  0.00    +0.002 C 
ENDBRANCH   8  17
ENDBRANCH   7  11
ENDBRANCH   1   7
BRANCH   5  20
ATOM     20  C   UNL     1       6.668   9.176  -2.829  0.00  0.00    +0.109 C 
BRANCH  20  21
ATOM     21  N   UNL     1       5.833  10.225  -2.237  0.00  0.00    -0.299 N 
ATOM     22  C   UNL     1       5.939  11.496  -2.671  0.00  0.00    +0.300 C 
ATOM     23  O   UNL     1       6.727  11.773  -3.554  0.00  0.00    -0.253 OA
ATOM     24  N   UNL     1       5.171  12.460  -2.127  0.00  0.00    -0.297 N 
ATOM     25  H   UNL     1       5.204  10.004  -1.532  0.00  0.00    +0.150 HD
ATOM     26  H   UNL     1       4.542  12.240  -1.422  0.00  0.00    +0.151 HD
BRANCH  24  27
ATOM     27  C   UNL     1       5.286  13.842  -2.599  0.00  0.00    +0.074 C 
ATOM     28  C   UNL     1       6.430  14.540  -1.860  0.00  0.00    +0.022 C 
ATOM     29  C   UNL     1       6.550  15.984  -2.354  0.00  0.00    +0.002 C 
ATOM     30  C   UNL     1       5.240  16.726  -2.083  0.00  0.00    +0.000 C 
ATOM     31  C   UNL     1       4.096  16.028  -2.821  0.00  0.00    +0.002 C 
ATOM     32  C   UNL     1       3.976  14.585  -2.328  0.00  0.00    +0.022 C 
ENDBRANCH  24  27
ENDBRANCH  20  21
ENDBRANCH   5  20
TORSDOF 6
