REMARK  Name = ZINC38042143
REMARK  9 active torsions:
REMARK  status: ('A' for Active; 'I' for Inactive)
REMARK    1  A    between atoms: C_1  and  C_2
REMARK    2  A    between atoms: C_3  and  N_20
REMARK    3  A    between atoms: C_4  and  N_8
REMARK    4  A    between atoms: N_5  and  C_7
REMARK    5  A    between atoms: N_8  and  C_9
REMARK    6  A    between atoms: C_9  and  C_10
REMARK    7  A    between atoms: C_10  and  C_12
REMARK    8  A    between atoms: C_10  and  C_13
REMARK    9  A    between atoms: C_13  and  N_14
REMARK                            x       y       z     vdW  Elec       q    Type
REMARK                         _______ _______ _______ _____ _____    ______ ____
ROOT
ATOM      1  N   UNL     1       0.645  -3.001  -1.451  0.00  0.00    -0.327 N 
ATOM      2  H   UNL     1       0.860  -2.784  -2.371  0.00  0.00    +0.148 HD
ENDROOT
BRANCH   1   6
ATOM      3  C   UNL     1      -0.568   1.463   0.417  0.00  0.00    +0.070 C 
ATOM      4  C   UNL     1      -0.305  -0.016   0.288  0.00  0.00    +0.092 A 
ATOM      5  C   UNL     1       0.123  -0.673  -0.868  0.00  0.00    +0.188 A 
ATOM      6  C   UNL     1       0.243  -1.998  -0.574  0.00  0.00    +0.148 A 
ATOM      7  N   UNL     1      -0.099  -2.160   0.724  0.00  0.00    -0.251 N 
ATOM      8  N   UNL     1      -0.434  -0.902   1.242  0.00  0.00    -0.173 NA
ATOM      9  C   UNL     1      -0.114  -3.427   1.459  0.00  0.00    +0.174 C 
BRANCH   5  10
ATOM     10  N   UNL     1       0.397  -0.043  -2.179  0.00  0.00    +0.062 N 
ATOM     11  O   UNL     1       1.506   0.368  -2.432  0.00  0.00    -0.126 OA
ATOM     12  O   UNL     1      -0.487   0.063  -2.996  0.00  0.00    -0.126 OA
ENDBRANCH   5  10
ENDBRANCH   1   6
BRANCH   1  13
ATOM     13  C   UNL     1       0.744  -4.386  -0.983  0.00  0.00    +0.104 C 
BRANCH  13  14
ATOM     14  C   UNL     1       1.320  -5.261  -2.098  0.00  0.00    -0.014 C 
ATOM     15  C   UNL     1       0.341  -5.300  -3.273  0.00  0.00    +0.007 C 
BRANCH  14  16
ATOM     16  C   UNL     1       1.540  -6.681  -1.570  0.00  0.00    -0.074 C 
BRANCH  16  17
ATOM     17  N   UNL     1       2.169  -7.500  -2.615  0.00  0.00    +0.380 N 
ATOM     18  C   UNL     1       2.239  -8.895  -2.165  0.00  0.00    -0.079 C 
ATOM     19  C   UNL     1       2.819  -9.766  -3.281  0.00  0.00    -0.019 C 
ATOM     20  C   UNL     1       4.225  -9.270  -3.630  0.00  0.00    -0.004 C 
ATOM     21  C   UNL     1       4.150  -7.793  -4.026  0.00  0.00    -0.019 C 
ATOM     22  C   UNL     1       3.521  -6.994  -2.883  0.00  0.00    -0.079 C 
ATOM     23  H   UNL     1       1.618  -7.448  -3.459  0.00  0.00    -0.082 HD
ENDBRANCH  16  17
ENDBRANCH  14  16
ENDBRANCH  13  14
ENDBRANCH   1  13
TORSDOF 6
