REMARK  Name = ZINC49029307
REMARK  4 active torsions:
REMARK  status: ('A' for Active; 'I' for Inactive)
REMARK    1  A    between atoms: C_1  and  C_2
REMARK    2  A    between atoms: C_3  and  C_8
REMARK    3  A    between atoms: C_5  and  C_7
REMARK    4  A    between atoms: C_14  and  C_16
REMARK                            x       y       z     vdW  Elec       q    Type
REMARK                         _______ _______ _______ _____ _____    ______ ____
ROOT
ATOM      1  C   UNL     1      -0.008  -0.245  -2.563  0.00  0.00    +0.258 A 
ATOM      2  N   UNL     1      -0.022   1.008  -2.958  0.00  0.00    -0.105 NA
ATOM      3  N   UNL     1      -0.032   1.050  -4.244  0.00  0.00    -0.092 NA
ATOM      4  C   UNL     1      -0.024  -0.171  -4.721  0.00  0.00    +0.314 A 
ATOM      5  O   UNL     1      -0.003  -1.016  -3.673  0.00  0.00    -0.404 OA
ATOM      6  N   UNL     1      -0.031  -0.526  -6.062  0.00  0.00    -0.238 N 
ATOM      7  C   UNL     1      -0.047   0.429  -7.012  0.00  0.00    +0.233 C 
ATOM      8  O   UNL     1      -0.055   1.599  -6.696  0.00  0.00    -0.274 OA
ATOM      9  H   UNL     1      -0.025  -1.463  -6.315  0.00  0.00    +0.159 HD
ENDROOT
BRANCH   7  10
ATOM     10  C   UNL     1      -0.054   0.042  -8.469  0.00  0.00    +0.142 C 
ATOM     11  C   UNL     1       1.168  -0.782  -8.771  0.00  0.00    +0.011 A 
ATOM     12  C   UNL     1       1.195  -2.116  -8.402  0.00  0.00    +0.008 A 
ATOM     13  C   UNL     1       2.308  -2.889  -8.671  0.00  0.00    +0.001 A 
ATOM     14  C   UNL     1       3.400  -2.332  -9.311  0.00  0.00    +0.004 A 
ATOM     15  C   UNL     1       3.378  -1.002  -9.681  0.00  0.00    +0.046 A 
ATOM     16  C   UNL     1       2.260  -0.221  -9.412  0.00  0.00    +0.133 A 
ATOM     17  O   UNL     1       2.257   1.081  -9.784  0.00  0.00    -0.455 OA
ATOM     18  C   UNL     1       1.084   1.743  -9.927  0.00  0.00    +0.133 A 
ATOM     19  C   UNL     1      -0.072   1.287  -9.314  0.00  0.00    +0.011 A 
ATOM     20  C   UNL     1      -1.258   1.980  -9.476  0.00  0.00    +0.008 A 
ATOM     21  C   UNL     1      -1.294   3.125 -10.249  0.00  0.00    +0.001 A 
ATOM     22  C   UNL     1      -0.143   3.583 -10.863  0.00  0.00    +0.004 A 
ATOM     23  C   UNL     1       1.044   2.895 -10.704  0.00  0.00    +0.046 A 
ENDBRANCH   7  10
BRANCH   1  26
ATOM     24  C   UNL     1      -0.018   1.503   0.010  0.00  0.00    +0.067 C 
ATOM     25  C   UNL     1       0.002  -0.004   0.002  0.00  0.00    +0.058 A 
ATOM     26  C   UNL     1       0.006  -0.721  -1.171  0.00  0.00    +0.098 A 
ATOM     27  S   UNL     1       0.033  -2.389  -0.535  0.00  0.00    -0.067 S 
ATOM     28  C   UNL     1       0.036  -2.012   1.105  0.00  0.00    +0.076 A 
ATOM     29  N   UNL     1       0.023  -0.701   1.116  0.00  0.00    -0.249 NA
ATOM     30  C   UNL     1       0.055  -2.955   2.280  0.00  0.00    +0.073 C 
ENDBRANCH   1  26
TORSDOF 2
