REMARK  Name = ZINC12321357
REMARK  10 active torsions:
REMARK  status: ('A' for Active; 'I' for Inactive)
REMARK    1  A    between atoms: C_1  and  C_2
REMARK    2  A    between atoms: C_14  and  O_34
REMARK    3  A    between atoms: C_15  and  C_16
REMARK    4  A    between atoms: C_19  and  C_22
REMARK    5  A    between atoms: C_24  and  O_32
REMARK    6  A    between atoms: C_25  and  O_30
REMARK    7  A    between atoms: C_27  and  O_28
REMARK    8  A    between atoms: O_28  and  C_29
REMARK    9  A    between atoms: O_30  and  C_31
REMARK   10  A    between atoms: O_32  and  C_33
REMARK                            x       y       z     vdW  Elec       q    Type
REMARK                         _______ _______ _______ _____ _____    ______ ____
ROOT
ATOM      1  C   UNL     1      -2.477   4.317   0.049  0.00  0.00    +0.072 C 
ATOM      2  N   UNL     1      -3.125   4.703  -0.995  0.00  0.00    -0.190 NA
ATOM      3  N   UNL     1      -4.296   5.402  -0.712  0.00  0.00    -0.261 N 
ATOM      4  C   UNL     1      -4.453   5.496   0.748  0.00  0.00    +0.129 C 
ATOM      5  C   UNL     1      -3.218   4.752   1.293  0.00  0.00    +0.086 C 
ATOM      6  H   UNL     1      -4.908   5.768  -1.370  0.00  0.00    +0.169 HD
ENDROOT
BRANCH   1  21
ATOM      7  C   UNL     1       0.026   5.750   0.034  0.00  0.00    +0.044 C 
ATOM      8  C   UNL     1       0.011   4.243   0.026  0.00  0.00    -0.035 A 
ATOM      9  C   UNL     1       1.201   3.550   0.011  0.00  0.00    +0.051 A 
ATOM     10  C   UNL     1       1.203   2.161   0.002  0.00  0.00    +0.143 A 
ATOM     11  C   UNL     1      -0.018   1.460   0.010  0.00  0.00    +0.063 A 
ATOM     12  C   UNL     1       0.002  -0.004   0.002  0.00  0.00    -0.023 A 
ATOM     13  C   UNL     1       1.204  -0.633  -0.016  0.00  0.00    +0.041 A 
ATOM     14  C   UNL     1       2.390   0.134  -0.023  0.00  0.00    +0.341 A 
ATOM     15  O   UNL     1       3.465  -0.438  -0.039  0.00  0.00    -0.245 OA
ATOM     16  O   UNL     1       2.366   1.475  -0.013  0.00  0.00    -0.422 OA
ATOM     17  C   UNL     1       1.003  -2.133  -0.023  0.00  0.00    +0.043 C 
ATOM     18  C   UNL     1      -0.458  -2.346   0.428  0.00  0.00    +0.010 C 
ATOM     19  C   UNL     1      -1.121  -1.015   0.010  0.00  0.00    +0.037 C 
ATOM     20  C   UNL     1      -1.230   2.164   0.020  0.00  0.00    +0.137 A 
ATOM     21  C   UNL     1      -1.210   3.562   0.033  0.00  0.00    +0.043 A 
BRANCH  20  22
ATOM     22  O   UNL     1      -2.410   1.495   0.022  0.00  0.00    -0.505 OA
ATOM     23  H   UNL     1      -2.748   1.296   0.905  0.00  0.00    +0.292 HD
ENDBRANCH  20  22
ENDBRANCH   1  21
BRANCH   4  24
ATOM     24  C   UNL     1      -5.718   4.808   1.191  0.00  0.00    +0.020 A 
ATOM     25  C   UNL     1      -6.279   3.819   0.403  0.00  0.00    +0.058 A 
ATOM     26  C   UNL     1      -7.441   3.186   0.808  0.00  0.00    +0.162 A 
ATOM     27  C   UNL     1      -8.046   3.544   2.009  0.00  0.00    +0.165 A 
ATOM     28  C   UNL     1      -7.484   4.535   2.797  0.00  0.00    +0.095 A 
ATOM     29  C   UNL     1      -6.316   5.163   2.391  0.00  0.00    +0.129 A 
BRANCH  29  30
ATOM     30  O   UNL     1      -5.760   6.132   3.166  0.00  0.00    -0.495 OA
ATOM     31  C   UNL     1      -6.429   6.447   4.389  0.00  0.00    +0.277 C 
ENDBRANCH  29  30
BRANCH  27  32
ATOM     32  O   UNL     1      -9.188   2.923   2.409  0.00  0.00    -0.491 OA
ATOM     33  C   UNL     1      -9.754   3.342   3.652  0.00  0.00    +0.277 C 
ENDBRANCH  27  32
BRANCH  26  34
ATOM     34  O   UNL     1      -7.992   2.212   0.033  0.00  0.00    -0.491 OA
ATOM     35  C   UNL     1      -7.317   1.895  -1.186  0.00  0.00    +0.277 C 
ENDBRANCH  26  34
ENDBRANCH   4  24
TORSDOF 6
