REMARK  Name = ZINC09151128
REMARK  8 active torsions:
REMARK  status: ('A' for Active; 'I' for Inactive)
REMARK    1  A    between atoms: C_1  and  C_2
REMARK    2  A    between atoms: C_2  and  N_57
REMARK    3  A    between atoms: C_8  and  N_23
REMARK    4  A    between atoms: C_9  and  C_10
REMARK    5  A    between atoms: C_10  and  N_11
REMARK    6  A    between atoms: N_14  and  C_15
REMARK    7  A    between atoms: C_15  and  C_16
REMARK    8  A    between atoms: C_19  and  C_22
REMARK                            x       y       z     vdW  Elec       q    Type
REMARK                         _______ _______ _______ _____ _____    ______ ____
ROOT
ATOM      1  C   UNL     1       0.147   5.383  -6.650  0.00  0.00    -0.074 C 
ATOM      2  C   UNL     1      -0.076   4.226  -5.673  0.00  0.00    +0.018 C 
ATOM      3  C   UNL     1      -1.151   3.311  -6.255  0.00  0.00    -0.034 A 
ATOM      4  C   UNL     1      -1.966   3.780  -7.240  0.00  0.00    -0.021 A 
ATOM      5  S   UNL     1      -3.025   2.408  -7.603  0.00  0.00    -0.077 S 
ATOM      6  C   UNL     1      -2.337   1.254  -6.425  0.00  0.00    +0.089 A 
ATOM      7  C   UNL     1      -1.361   1.998  -5.841  0.00  0.00    +0.004 A 
ATOM      8  C   UNL     1      -1.944   5.143  -7.849  0.00  0.00    -0.035 C 
ATOM      9  N   UNL     1      -1.148   6.024  -6.960  0.00  0.00    +0.383 N 
ATOM     10  H   UNL     1      -1.665   6.172  -6.085  0.00  0.00    -0.081 HD
ENDROOT
BRANCH   6  11
ATOM     11  N   UNL     1      -2.709  -0.071  -6.168  0.00  0.00    -0.317 N 
ATOM     12  C   UNL     1      -2.929  -1.033  -7.111  0.00  0.00    +0.092 A 
ATOM     13  C   UNL     1      -3.264  -2.176  -6.477  0.00  0.00    +0.019 A 
ATOM     14  C   UNL     1      -3.259  -1.909  -5.093  0.00  0.00    +0.019 A 
ATOM     15  C   UNL     1      -2.916  -0.614  -4.932  0.00  0.00    +0.092 A 
ENDBRANCH   6  11
BRANCH   9  17
ATOM     16  C   UNL     1      -2.258   8.070  -7.716  0.00  0.00    -0.017 C 
ATOM     17  C   UNL     1      -0.922   7.332  -7.612  0.00  0.00    -0.082 C 
ENDBRANCH   9  17
BRANCH   7  18
ATOM     18  C   UNL     1      -0.504   1.403  -4.753  0.00  0.00    +0.144 C 
BRANCH  18  19
ATOM     19  N   UNL     1      -1.054   1.764  -3.445  0.00  0.00    -0.295 N 
ATOM     20  C   UNL     1      -0.449   1.339  -2.318  0.00  0.00    +0.300 C 
ATOM     21  O   UNL     1       0.555   0.656  -2.388  0.00  0.00    -0.253 OA
ATOM     22  N   UNL     1      -0.956   1.671  -1.114  0.00  0.00    -0.295 N 
ATOM     23  H   UNL     1      -1.855   2.309  -3.389  0.00  0.00    +0.151 HD
ATOM     24  H   UNL     1      -1.756   2.216  -1.059  0.00  0.00    +0.151 HD
BRANCH  22  25
ATOM     25  C   UNL     1      -0.297   1.209   0.110  0.00  0.00    +0.141 C 
BRANCH  25  26
ATOM     26  C   UNL     1      -1.057   1.714   1.310  0.00  0.00    -0.030 A 
ATOM     27  C   UNL     1      -0.728   2.932   1.874  0.00  0.00    +0.005 A 
ATOM     28  C   UNL     1      -1.427   3.397   2.972  0.00  0.00    +0.003 A 
ATOM     29  C   UNL     1      -2.450   2.639   3.511  0.00  0.00    -0.050 A 
ATOM     30  C   UNL     1      -2.776   1.419   2.950  0.00  0.00    +0.003 A 
ATOM     31  C   UNL     1      -2.079   0.956   1.849  0.00  0.00    +0.005 A 
ATOM     32  C   UNL     1      -3.210   3.144   4.711  0.00  0.00    +0.044 C 
ENDBRANCH  25  26
ENDBRANCH  22  25
ENDBRANCH  18  19
ENDBRANCH   7  18
TORSDOF 6
