REMARK  Name = ZINC03641267
REMARK  6 active torsions:
REMARK  status: ('A' for Active; 'I' for Inactive)
REMARK    1  A    between atoms: C_1  and  C_2
REMARK    2  A    between atoms: C_5  and  N_8
REMARK    3  A    between atoms: C_17  and  C_21
REMARK    4  A    between atoms: C_17  and  N_25
REMARK    5  A    between atoms: N_25  and  S_26
REMARK    6  A    between atoms: S_26  and  C_29
REMARK                            x       y       z     vdW  Elec       q    Type
REMARK                         _______ _______ _______ _____ _____    ______ ____
ROOT
ATOM      1  N   UNL     1      -2.320   3.146  -6.024  0.00  0.00    -0.249 N 
ATOM      2  C   UNL     1      -2.449   2.960  -4.662  0.00  0.00    +0.125 A 
ATOM      3  C   UNL     1      -3.478   3.582  -4.019  0.00  0.00    +0.095 A 
ATOM      4  C   UNL     1      -4.373   4.386  -4.734  0.00  0.00    +0.262 A 
ATOM      5  O   UNL     1      -5.294   4.943  -4.161  0.00  0.00    -0.267 OA
ATOM      6  N   UNL     1      -4.207   4.539  -6.065  0.00  0.00    -0.274 N 
ATOM      7  H   UNL     1      -4.840   5.112  -6.585  0.00  0.00    +0.173 HD
ATOM      8  C   UNL     1      -3.189   3.922  -6.694  0.00  0.00    +0.335 A 
ATOM      9  O   UNL     1      -3.054   4.070  -7.893  0.00  0.00    -0.246 OA
ATOM     10  C   UNL     1      -3.368   3.201  -2.561  0.00  0.00    +0.243 C 
ATOM     11  C   UNL     1      -2.152   2.297  -2.518  0.00  0.00    +0.254 C 
ATOM     12  O   UNL     1      -1.687   1.752  -1.539  0.00  0.00    -0.273 OA
ATOM     13  N   UNL     1      -1.693   2.223  -3.783  0.00  0.00    -0.269 N 
ATOM     14  H   UNL     1      -0.915   1.706  -4.044  0.00  0.00    +0.156 HD
ENDROOT
BRANCH   1  19
ATOM     15  C   UNL     1       1.918   0.612  -8.822  0.00  0.00    +0.044 C 
ATOM     16  C   UNL     1       0.792   1.284  -8.078  0.00  0.00    -0.050 A 
ATOM     17  C   UNL     1      -0.228   0.525  -7.536  0.00  0.00    +0.005 A 
ATOM     18  C   UNL     1      -1.261   1.139  -6.855  0.00  0.00    +0.026 A 
ATOM     19  C   UNL     1      -1.274   2.520  -6.715  0.00  0.00    +0.053 A 
ATOM     20  C   UNL     1      -0.251   3.280  -7.265  0.00  0.00    +0.026 A 
ATOM     21  C   UNL     1       0.782   2.660  -7.940  0.00  0.00    +0.005 A 
ENDBRANCH   1  19
BRANCH  10  22
ATOM     22  C   UNL     1      -4.618   2.445  -2.107  0.00  0.00    +0.422 C 
ATOM     23  F   UNL     1      -5.716   3.311  -2.116  0.00  0.00    -0.168 F 
ATOM     24  F   UNL     1      -4.859   1.377  -2.978  0.00  0.00    -0.168 F 
ATOM     25  F   UNL     1      -4.421   1.954  -0.811  0.00  0.00    -0.168 F 
ENDBRANCH  10  22
BRANCH  10  26
ATOM     26  N   UNL     1      -3.157   4.390  -1.732  0.00  0.00    -0.162 NA
ATOM     27  H   UNL     1      -3.740   4.565  -0.977  0.00  0.00    +0.150 HD
BRANCH  26  28
ATOM     28  S   UNL     1      -1.923   5.436  -2.084  0.00  0.00    +0.060 S 
ATOM     29  O   UNL     1      -1.992   6.484  -1.126  0.00  0.00    -0.153 OA
ATOM     30  O   UNL     1      -1.981   5.678  -3.483  0.00  0.00    -0.153 OA
BRANCH  28  31
ATOM     31  C   UNL     1      -0.412   4.580  -1.784  0.00  0.00    +0.105 A 
ATOM     32  C   UNL     1       0.096   4.505  -0.501  0.00  0.00    +0.028 A 
ATOM     33  C   UNL     1       1.284   3.837  -0.266  0.00  0.00    +0.002 A 
ATOM     34  C   UNL     1       1.958   3.236  -1.313  0.00  0.00    +0.000 A 
ATOM     35  C   UNL     1       1.447   3.308  -2.595  0.00  0.00    +0.002 A 
ATOM     36  C   UNL     1       0.262   3.980  -2.831  0.00  0.00    +0.028 A 
ENDBRANCH  28  31
ENDBRANCH  26  28
ENDBRANCH  10  26
TORSDOF 5
