REMARK  Name = ZINC41586540
REMARK  10 active torsions:
REMARK  status: ('A' for Active; 'I' for Inactive)
REMARK    1  A    between atoms: C_1  and  C_2
REMARK    2  A    between atoms: C_2  and  O_3
REMARK    3  A    between atoms: O_3  and  C_4
REMARK    4  A    between atoms: C_4  and  C_6
REMARK    5  A    between atoms: N_11  and  C_13
REMARK    6  A    between atoms: C_13  and  C_14
REMARK    7  A    between atoms: C_15  and  O_35
REMARK    8  A    between atoms: C_22  and  C_23
REMARK    9  A    between atoms: C_28  and  O_29
REMARK   10  A    between atoms: O_29  and  C_30
REMARK                            x       y       z     vdW  Elec       q    Type
REMARK                         _______ _______ _______ _____ _____    ______ ____
ROOT
ATOM      1  C   UNL     1      -5.914  -5.736   0.140  0.00  0.00    +0.020 A 
ATOM      2  C   UNL     1      -6.549  -5.801   1.370  0.00  0.00    +0.122 A 
ATOM      3  C   UNL     1      -7.772  -6.451   1.502  0.00  0.00    +0.046 A 
ATOM      4  C   UNL     1      -8.361  -7.035   0.416  0.00  0.00    +0.019 A 
ATOM      5  C   UNL     1      -7.734  -6.977  -0.829  0.00  0.00    +0.068 A 
ATOM      6  C   UNL     1      -6.502  -6.318  -0.976  0.00  0.00    +0.144 A 
ATOM      7  O   UNL     1      -6.099  -6.389  -2.263  0.00  0.00    -0.451 OA
ATOM      8  C   UNL     1      -6.988  -7.060  -3.033  0.00  0.00    +0.176 C 
ATOM      9  C   UNL     1      -6.874  -7.301  -4.364  0.00  0.00    +0.061 C 
ATOM     10  C   UNL     1      -8.092  -7.490  -2.164  0.00  0.00    +0.231 C 
ATOM     11  O   UNL     1      -9.087  -8.120  -2.478  0.00  0.00    -0.283 OA
ENDROOT
BRANCH   9  12
ATOM     12  C   UNL     1      -5.765  -6.715  -5.125  0.00  0.00    +0.020 A 
ATOM     13  C   UNL     1      -4.639  -6.217  -4.457  0.00  0.00    +0.011 A 
ATOM     14  C   UNL     1      -3.602  -5.668  -5.178  0.00  0.00    +0.001 A 
ATOM     15  C   UNL     1      -3.666  -5.605  -6.561  0.00  0.00    +0.004 A 
ATOM     16  C   UNL     1      -4.771  -6.092  -7.233  0.00  0.00    +0.046 A 
ATOM     17  C   UNL     1      -5.823  -6.654  -6.527  0.00  0.00    +0.134 A 
BRANCH  17  18
ATOM     18  O   UNL     1      -6.905  -7.138  -7.187  0.00  0.00    -0.434 OA
BRANCH  18  19
ATOM     19  C   UNL     1      -6.893  -7.042  -8.612  0.00  0.00    +0.541 C 
ATOM     20  F   UNL     1      -6.794  -5.697  -8.988  0.00  0.00    -0.166 F 
ATOM     21  F   UNL     1      -5.797  -7.749  -9.118  0.00  0.00    -0.166 F 
ENDBRANCH  18  19
ENDBRANCH  17  18
ENDBRANCH   9  12
BRANCH   2  22
ATOM     22  O   UNL     1      -5.972  -5.225   2.456  0.00  0.00    -0.506 OA
ATOM     23  H   UNL     1      -6.226  -4.302   2.593  0.00  0.00    +0.292 HD
ENDBRANCH   2  22
BRANCH   1  24
ATOM     24  C   UNL     1      -4.590  -5.028   0.011  0.00  0.00    -0.036 C 
BRANCH  24  29
ATOM     25  C   UNL     1      -3.781  -1.406  -0.546  0.00  0.00    +0.081 C 
ATOM     26  C   UNL     1      -4.467  -1.223  -1.903  0.00  0.00    +0.011 C 
ATOM     27  C   UNL     1      -5.767  -2.033  -1.920  0.00  0.00    -0.018 C 
ATOM     28  C   UNL     1      -5.451  -3.500  -1.623  0.00  0.00    -0.078 C 
ATOM     29  N   UNL     1      -4.821  -3.611  -0.302  0.00  0.00    +0.383 N 
ATOM     30  C   UNL     1      -3.539  -2.896  -0.299  0.00  0.00    -0.064 C 
ATOM     31  H   UNL     1      -5.429  -3.209   0.395  0.00  0.00    -0.081 HD
BRANCH  25  32
ATOM     32  C   UNL     1      -2.463  -0.675  -0.546  0.00  0.00    +0.308 C 
ATOM     33  O   UNL     1      -1.435  -1.283  -0.366  0.00  0.00    -0.251 OA
BRANCH  32  34
ATOM     34  O   UNL     1      -2.432   0.652  -0.747  0.00  0.00    -0.465 OA
BRANCH  34  36
ATOM     35  C   UNL     1      -1.312   2.781  -0.979  0.00  0.00    +0.048 C 
ATOM     36  C   UNL     1      -1.148   1.280  -0.735  0.00  0.00    +0.229 C 
ENDBRANCH  34  36
ENDBRANCH  32  34
ENDBRANCH  25  32
ENDBRANCH  24  29
ENDBRANCH   1  24
TORSDOF 9
