REMARK  Name = ZINC12485046
REMARK  7 active torsions:
REMARK  status: ('A' for Active; 'I' for Inactive)
REMARK    1  A    between atoms: C_4  and  S_7
REMARK    2  A    between atoms: S_7  and  N_10
REMARK    3  A    between atoms: N_10  and  C_11
REMARK    4  A    between atoms: C_16  and  C_17
REMARK    5  A    between atoms: N_20  and  C_22
REMARK    6  A    between atoms: C_22  and  C_23
REMARK    7  A    between atoms: N_25  and  C_26
REMARK                            x       y       z     vdW  Elec       q    Type
REMARK                         _______ _______ _______ _____ _____    ______ ____
ROOT
ATOM      1  C   UNL     1       6.720   4.916  -0.961  0.00  0.00    +0.059 A 
ATOM      2  C   UNL     1       7.452   5.669  -1.868  0.00  0.00    +0.025 A 
ATOM      3  C   UNL     1       7.130   5.638  -3.211  0.00  0.00    +0.002 A 
ATOM      4  C   UNL     1       6.083   4.853  -3.661  0.00  0.00    +0.001 A 
ATOM      5  C   UNL     1       5.350   4.094  -2.771  0.00  0.00    +0.013 A 
ATOM      6  C   UNL     1       5.664   4.117  -1.415  0.00  0.00    +0.045 A 
ENDROOT
BRANCH   6   7
ATOM      7  C   UNL     1       4.880   3.303  -0.454  0.00  0.00    +0.206 A 
ATOM      8  N   UNL     1       5.067   3.226   0.871  0.00  0.00    -0.108 NA
ATOM      9  N   UNL     1       4.180   2.414   1.337  0.00  0.00    -0.045 NA
ATOM     10  N   UNL     1       3.454   1.985   0.365  0.00  0.00    -0.154 N 
ATOM     11  N   UNL     1       3.865   2.510  -0.738  0.00  0.00    -0.130 NA
BRANCH  10  12
ATOM     12  C   UNL     1       2.339   1.043   0.491  0.00  0.00    +0.263 C 
BRANCH  12  13
ATOM     13  C   UNL     1       1.061   1.806   0.724  0.00  0.00    +0.237 C 
ATOM     14  O   UNL     1       1.079   3.018   0.778  0.00  0.00    -0.274 OA
ATOM     15  N   UNL     1      -0.103   1.143   0.871  0.00  0.00    -0.311 N 
ATOM     16  H   UNL     1      -0.118   0.174   0.827  0.00  0.00    +0.149 HD
BRANCH  15  17
ATOM     17  C   UNL     1      -1.347   1.885   1.091  0.00  0.00    +0.073 C 
ATOM     18  C   UNL     1      -1.555   2.132   2.599  0.00  0.00    +0.022 C 
ATOM     19  C   UNL     1      -3.084   1.988   2.800  0.00  0.00    +0.002 C 
ATOM     20  C   UNL     1      -3.446   0.824   1.845  0.00  0.00    +0.002 C 
ATOM     21  C   UNL     1      -2.549   1.053   0.611  0.00  0.00    +0.022 C 
ENDBRANCH  15  17
ENDBRANCH  12  13
ENDBRANCH  10  12
ENDBRANCH   6   7
BRANCH   1  22
ATOM     22  N   UNL     1       7.039   4.950   0.396  0.00  0.00    -0.216 N 
ATOM     23  H   UNL     1       6.951   4.149   0.936  0.00  0.00    +0.174 HD
BRANCH  22  24
ATOM     24  S   UNL     1       7.567   6.360   1.087  0.00  0.00    +0.072 S 
ATOM     25  O   UNL     1       7.668   6.115   2.483  0.00  0.00    -0.150 OA
ATOM     26  O   UNL     1       8.670   6.804   0.310  0.00  0.00    -0.150 OA
BRANCH  24  30
ATOM     27  C   UNL     1       4.283   9.428   0.547  0.00  0.00    +0.000 A 
ATOM     28  C   UNL     1       4.303   8.629   1.675  0.00  0.00    +0.002 A 
ATOM     29  C   UNL     1       5.306   7.691   1.839  0.00  0.00    +0.029 A 
ATOM     30  C   UNL     1       6.289   7.554   0.877  0.00  0.00    +0.108 A 
ATOM     31  C   UNL     1       6.272   8.358  -0.247  0.00  0.00    +0.029 A 
ATOM     32  C   UNL     1       5.266   9.292  -0.415  0.00  0.00    +0.002 A 
ENDBRANCH  24  30
ENDBRANCH  22  24
ENDBRANCH   1  22
TORSDOF 7
