REMARK  Name = ZINC12526514
REMARK  6 active torsions:
REMARK  status: ('A' for Active; 'I' for Inactive)
REMARK    1  A    between atoms: C_1  and  C_2
REMARK    2  A    between atoms: C_9  and  N_14
REMARK    3  A    between atoms: N_14  and  C_15
REMARK    4  A    between atoms: C_15  and  C_17
REMARK    5  A    between atoms: C_15  and  C_18
REMARK    6  A    between atoms: N_23  and  C_24
REMARK                            x       y       z     vdW  Elec       q    Type
REMARK                         _______ _______ _______ _____ _____    ______ ____
ROOT
ATOM      1  N   UNL     1       0.606   2.568   8.247  0.00  0.00    -0.333 N 
ATOM      2  H   UNL     1      -0.153   1.976   8.366  0.00  0.00    +0.147 HD
ENDROOT
BRANCH   1  10
ATOM      3  C   UNL     1       2.163   6.539  14.702  0.00  0.00    +0.062 C 
ATOM      4  C   UNL     1       1.468   6.029  13.439  0.00  0.00    +0.256 C 
ATOM      5  C   UNL     1       0.559   4.880  13.795  0.00  0.00    +0.258 C 
ATOM      6  O   UNL     1       0.062   4.817  14.900  0.00  0.00    -0.271 OA
ATOM      7  N   UNL     1       0.300   3.921  12.880  0.00  0.00    -0.279 N 
ATOM      8  C   UNL     1       0.914   3.999  11.622  0.00  0.00    +0.077 A 
ATOM      9  C   UNL     1       0.449   3.241  10.560  0.00  0.00    +0.050 A 
ATOM     10  C   UNL     1       1.072   3.332   9.322  0.00  0.00    +0.030 A 
ATOM     11  C   UNL     1       2.162   4.177   9.153  0.00  0.00    +0.026 A 
ATOM     12  C   UNL     1       2.623   4.937  10.212  0.00  0.00    +0.049 A 
ATOM     13  C   UNL     1       2.005   4.849  11.447  0.00  0.00    +0.143 A 
ATOM     14  O   UNL     1       2.451   5.589  12.499  0.00  0.00    -0.478 OA
ATOM     15  H   UNL     1      -0.302   3.191  13.089  0.00  0.00    +0.155 HD
ENDBRANCH   1  10
BRANCH   1  16
ATOM     16  C   UNL     1       1.263   2.664   6.941  0.00  0.00    +0.154 C 
ATOM     17  C   UNL     1       2.463   1.716   6.904  0.00  0.00    +0.038 C 
BRANCH  16  18
ATOM     18  C   UNL     1       0.287   2.282   5.858  0.00  0.00    +0.240 C 
ATOM     19  O   UNL     1      -0.846   1.961   6.149  0.00  0.00    -0.273 OA
ATOM     20  N   UNL     1       0.673   2.296   4.567  0.00  0.00    -0.239 N 
ATOM     21  C   UNL     1      -0.200   1.954   3.599  0.00  0.00    +0.306 C 
ATOM     22  O   UNL     1      -1.335   1.633   3.890  0.00  0.00    -0.252 OA
ATOM     23  N   UNL     1       0.186   1.969   2.308  0.00  0.00    -0.296 N 
ATOM     24  H   UNL     1       1.579   2.553   4.335  0.00  0.00    +0.159 HD
ATOM     25  H   UNL     1       1.092   2.226   2.075  0.00  0.00    +0.151 HD
BRANCH  23  26
ATOM     26  C   UNL     1      -0.763   1.597   1.255  0.00  0.00    +0.074 C 
ATOM     27  C   UNL     1      -0.013   1.086   0.008  0.00  0.00    +0.022 C 
ATOM     28  C   UNL     1      -0.784   1.609  -1.216  0.00  0.00    +0.002 C 
ATOM     29  C   UNL     1      -1.978   2.421  -0.670  0.00  0.00    +0.002 C 
ATOM     30  C   UNL     1      -1.531   2.845   0.750  0.00  0.00    +0.022 C 
ENDBRANCH  23  26
ENDBRANCH  16  18
ENDBRANCH   1  16
TORSDOF 4
