REMARK  Name = ZINC39469599
REMARK  6 active torsions:
REMARK  status: ('A' for Active; 'I' for Inactive)
REMARK    1  A    between atoms: C_4  and  C_7
REMARK    2  A    between atoms: C_7  and  C_8
REMARK    3  A    between atoms: P_17  and  S_27
REMARK    4  A    between atoms: C_25  and  O_26
REMARK    5  A    between atoms: S_27  and  O_30
REMARK    6  A    between atoms: O_30  and  C_31
REMARK                            x       y       z     vdW  Elec       q    Type
REMARK                         _______ _______ _______ _____ _____    ______ ____
ROOT
ATOM      1  C   UNL     1       4.164  -0.959   1.377  0.00  0.00    -0.006 C 
ATOM      2  C   UNL     1       3.893  -2.118   1.969  0.00  0.00    -0.016 C 
ATOM      3  C   UNL     1       4.358  -2.369   3.378  0.00  0.00    +0.016 C 
ATOM      4  C   UNL     1       4.502  -3.863   3.631  0.00  0.00    -0.003 C 
ATOM      5  C   UNL     1       5.538  -4.141   4.729  0.00  0.00    -0.020 C 
ATOM      6  C   UNL     1       5.109  -5.464   5.379  0.00  0.00    +0.158 C 
ATOM      7  O   UNL     1       6.034  -5.838   6.412  0.00  0.00    -0.301 OA
ATOM      8  P   UNL     1       6.394  -4.713   7.533  0.00  0.00    +0.431 P 
ATOM      9  O   UNL     1       7.679  -5.036   8.192  0.00  0.00    -0.246 OA
ATOM     10  N   UNL     1       6.520  -3.303   6.689  0.00  0.00    -0.271 NA
ATOM     11  N   UNL     1       5.594  -3.053   5.698  0.00  0.00    +0.398 N 
ATOM     12  C   UNL     1       6.060  -1.794   5.096  0.00  0.00    -0.046 C 
ATOM     13  C   UNL     1       5.715  -1.706   3.602  0.00  0.00    +0.008 C 
ATOM     14  C   UNL     1       5.655  -0.266   3.167  0.00  0.00    +0.021 C 
ATOM     15  C   UNL     1       4.917   0.077   2.111  0.00  0.00    +0.116 C 
ATOM     16  H   UNL     1       7.224  -2.667   6.893  0.00  0.00    +0.113 HD
ATOM     17  H   UNL     1       4.680  -2.916   6.103  0.00  0.00    -0.055 HD
ENDROOT
BRANCH   8  18
ATOM     18  S   UNL     1       4.841  -4.582   8.970  0.00  0.00    +0.209 S 
ATOM     19  O   UNL     1       5.297  -3.692   9.980  0.00  0.00    -0.126 OA
ATOM     20  O   UNL     1       3.637  -4.363   8.249  0.00  0.00    -0.126 OA
BRANCH  18  21
ATOM     21  O   UNL     1       4.715  -5.952   9.622  0.00  0.00    -0.339 OA
BRANCH  21  22
ATOM     22  C   UNL     1       5.706  -6.236  10.507  0.00  0.00    +0.157 A 
ATOM     23  C   UNL     1       6.867  -6.859  10.073  0.00  0.00    +0.048 A 
ATOM     24  C   UNL     1       7.874  -7.146  10.974  0.00  0.00    +0.004 A 
ATOM     25  C   UNL     1       7.724  -6.815  12.309  0.00  0.00    +0.000 A 
ATOM     26  C   UNL     1       6.567  -6.196  12.744  0.00  0.00    +0.004 A 
ATOM     27  C   UNL     1       5.561  -5.900  11.845  0.00  0.00    +0.048 A 
ENDBRANCH  21  22
ENDBRANCH  18  21
ENDBRANCH   8  18
BRANCH  15  28
ATOM     28  O   UNL     1       4.854   1.375   1.716  0.00  0.00    -0.507 OA
ATOM     29  H   UNL     1       5.381   1.978   2.259  0.00  0.00    +0.292 HD
ENDBRANCH  15  28
BRANCH   1  30
ATOM     30  C   UNL     1       3.711  -0.707  -0.038  0.00  0.00    +0.073 C 
BRANCH  30  34
ATOM     31  C   UNL     1      -0.017   1.378   0.010  0.00  0.00    +0.000 A 
ATOM     32  C   UNL     1       1.171   2.086   0.002  0.00  0.00    +0.000 A 
ATOM     33  C   UNL     1       2.377   1.411  -0.013  0.00  0.00    +0.004 A 
ATOM     34  C   UNL     1       2.396   0.029  -0.020  0.00  0.00    -0.043 A 
ATOM     35  C   UNL     1       1.208  -0.679  -0.012  0.00  0.00    +0.004 A 
ATOM     36  C   UNL     1       0.002  -0.004   0.002  0.00  0.00    +0.000 A 
ENDBRANCH  30  34
ENDBRANCH   1  30
TORSDOF 6
