REMARK  Name = ZINC39293923
REMARK  2 active torsions:
REMARK  status: ('A' for Active; 'I' for Inactive)
REMARK    1  A    between atoms: C_4  and  N_7
REMARK    2  A    between atoms: N_11  and  O_12
REMARK                            x       y       z     vdW  Elec       q    Type
REMARK                         _______ _______ _______ _____ _____    ______ ____
ROOT
ATOM      1  N   UNL     1       3.689  -0.543  -0.066  0.00  0.00    -0.299 N 
ATOM      2  C   UNL     1       3.743  -2.000  -0.234  0.00  0.00    +0.117 C 
ATOM      3  C   UNL     1       4.653  -2.592   0.852  0.00  0.00    +0.078 C 
ATOM      4  C   UNL     1       6.013  -1.933   0.725  0.00  0.00    +0.090 C 
ATOM      5  N   UNL     1       7.104  -2.623   0.818  0.00  0.00    -0.091 NA
ATOM      6  C   UNL     1       6.045  -0.474   0.490  0.00  0.00    +0.021 A 
ATOM      7  C   UNL     1       4.868   0.181   0.091  0.00  0.00    +0.043 A 
ATOM      8  C   UNL     1       4.890   1.549  -0.138  0.00  0.00    +0.024 A 
ATOM      9  C   UNL     1       6.066   2.257   0.022  0.00  0.00    +0.002 A 
ATOM     10  C   UNL     1       7.228   1.612   0.412  0.00  0.00    +0.001 A 
ATOM     11  C   UNL     1       7.224   0.248   0.655  0.00  0.00    +0.011 A 
ENDROOT
BRANCH   1  15
ATOM     12  C   UNL     1       0.018   1.423  -0.074  0.00  0.00    +0.000 A 
ATOM     13  C   UNL     1       0.480   0.818  -1.229  0.00  0.00    +0.002 A 
ATOM     14  C   UNL     1       1.697   0.165  -1.230  0.00  0.00    +0.023 A 
ATOM     15  C   UNL     1       2.458   0.117  -0.069  0.00  0.00    +0.034 A 
ATOM     16  C   UNL     1       1.992   0.726   1.090  0.00  0.00    +0.023 A 
ATOM     17  C   UNL     1       0.774   1.377   1.083  0.00  0.00    +0.002 A 
ENDBRANCH   1  15
BRANCH   5  18
ATOM     18  O   UNL     1       8.352  -2.015   0.539  0.00  0.00    -0.409 OA
ATOM     19  H   UNL     1       9.110  -2.608   0.635  0.00  0.00    +0.328 HD
ENDBRANCH   5  18
TORSDOF 2
