REMARK  Name = ZINC09106798
REMARK  10 active torsions:
REMARK  status: ('A' for Active; 'I' for Inactive)
REMARK    1  A    between atoms: C_1  and  C_2
REMARK    2  A    between atoms: C_5  and  C_33
REMARK    3  A    between atoms: C_6  and  S_8
REMARK    4  A    between atoms: S_8  and  C_11
REMARK    5  A    between atoms: C_11  and  C_13
REMARK    6  A    between atoms: C_11  and  C_28
REMARK    7  A    between atoms: C_13  and  N_14
REMARK    8  A    between atoms: C_15  and  C_17
REMARK    9  A    between atoms: N_19  and  N_20
REMARK   10  A    between atoms: C_21  and  C_23
REMARK                            x       y       z     vdW  Elec       q    Type
REMARK                         _______ _______ _______ _____ _____    ______ ____
ROOT
ATOM      1  C   UNL     1      -4.705   4.621  -1.781  0.00  0.00    +0.136 C 
ENDROOT
BRANCH   1   2
ATOM      2  N   UNL     1      -5.703   4.319  -0.752  0.00  0.00    -0.305 N 
ATOM      3  C   UNL     1      -6.867   4.998  -0.721  0.00  0.00    +0.301 C 
ATOM      4  O   UNL     1      -7.088   5.861  -1.545  0.00  0.00    -0.265 OA
ATOM      5  H   UNL     1      -5.527   3.629  -0.092  0.00  0.00    +0.149 HD
BRANCH   3   6
ATOM      6  C   UNL     1      -7.885   4.690   0.329  0.00  0.00    +0.315 C 
ATOM      7  O   UNL     1      -7.664   3.827   1.154  0.00  0.00    -0.264 OA
ATOM      8  N   UNL     1      -9.048   5.369   0.360  0.00  0.00    -0.226 N 
ATOM      9  H   UNL     1      -9.225   6.059  -0.299  0.00  0.00    +0.173 HD
BRANCH   8  10
ATOM     10  N   UNL     1     -10.002   5.080   1.344  0.00  0.00    -0.227 N 
ATOM     11  C   UNL     1     -11.166   5.760   1.375  0.00  0.00    +0.295 C 
ATOM     12  O   UNL     1     -11.387   6.625   0.548  0.00  0.00    -0.265 OA
ATOM     13  H   UNL     1      -9.826   4.391   2.003  0.00  0.00    +0.173 HD
BRANCH  11  14
ATOM     14  C   UNL     1     -12.165   5.457   2.405  0.00  0.00    +0.190 A 
ATOM     15  C   UNL     1     -13.378   6.066   2.550  0.00  0.00    +0.054 A 
ATOM     16  C   UNL     1     -14.001   5.468   3.656  0.00  0.00    +0.042 A 
ATOM     17  C   UNL     1     -13.151   4.531   4.132  0.00  0.00    +0.196 A 
ATOM     18  O   UNL     1     -12.049   4.523   3.372  0.00  0.00    -0.458 OA
ENDBRANCH  11  14
ENDBRANCH   8  10
ENDBRANCH   3   6
ENDBRANCH   1   2
BRANCH   1  19
ATOM     19  C   UNL     1      -3.487   3.714  -1.592  0.00  0.00    +0.189 C 
BRANCH  19  20
ATOM     20  C   UNL     1      -2.461   4.026  -2.651  0.00  0.00    +0.016 A 
ATOM     21  C   UNL     1      -1.935   3.209  -3.596  0.00  0.00    +0.013 A 
ATOM     22  C   UNL     1      -0.998   3.718  -4.476  0.00  0.00    +0.008 A 
ATOM     23  C   UNL     1      -0.624   5.015  -4.360  0.00  0.00    +0.045 A 
ATOM     24  S   UNL     1      -1.615   5.563  -2.979  0.00  0.00    -0.100 S 
ENDBRANCH  19  20
BRANCH  19  25
ATOM     25  S   UNL     1      -2.769   4.000   0.049  0.00  0.00    +0.006 S 
ATOM     26  O   UNL     1      -3.598   3.429   1.052  0.00  0.00    -0.169 OA
ATOM     27  O   UNL     1      -2.320   5.344   0.160  0.00  0.00    -0.169 OA
BRANCH  25  33
ATOM     28  C   UNL     1       2.439   3.564   0.102  0.00  0.00    +0.044 C 
ATOM     29  C   UNL     1       1.092   2.889   0.098  0.00  0.00    -0.049 A 
ATOM     30  C   UNL     1       1.010   1.509   0.114  0.00  0.00    +0.004 A 
ATOM     31  C   UNL     1      -0.226   0.890   0.110  0.00  0.00    +0.005 A 
ATOM     32  C   UNL     1      -1.380   1.651   0.085  0.00  0.00    -0.026 A 
ATOM     33  C   UNL     1      -1.298   3.030   0.075  0.00  0.00    +0.092 A 
ATOM     34  C   UNL     1      -0.062   3.650   0.079  0.00  0.00    +0.030 A 
ATOM     35  C   UNL     1      -2.728   0.976   0.075  0.00  0.00    +0.046 C 
ENDBRANCH  25  33
ENDBRANCH  19  25
ENDBRANCH   1  19
TORSDOF 8
