REMARK  Name = ZINC20556416
REMARK  4 active torsions:
REMARK  status: ('A' for Active; 'I' for Inactive)
REMARK    1  A    between atoms: C_6  and  C_7
REMARK    2  A    between atoms: C_7  and  C_9
REMARK    3  A    between atoms: C_7  and  N_19
REMARK    4  A    between atoms: C_11  and  N_16
REMARK                            x       y       z     vdW  Elec       q    Type
REMARK                         _______ _______ _______ _____ _____    ______ ____
ROOT
ATOM      1  C   UNL     1       1.150   3.593   0.010  0.00  0.00    -0.013 C 
ENDROOT
BRANCH   1   7
ATOM      2  C   UNL     1       2.378   1.412  -0.013  0.00  0.00    +0.004 A 
ATOM      3  C   UNL     1       2.398   0.030  -0.021  0.00  0.00    +0.021 A 
ATOM      4  C   UNL     1       1.211  -0.679  -0.013  0.00  0.00    +0.059 A 
ATOM      5  C   UNL     1       0.002  -0.004   0.002  0.00  0.00    +0.059 A 
ATOM      6  C   UNL     1      -0.017   1.379   0.010  0.00  0.00    +0.023 A 
ATOM      7  C   UNL     1       1.171   2.086   0.002  0.00  0.00    -0.056 A 
ATOM      8 CL   UNL     1      -1.489  -0.893   0.012  0.00  0.00    -0.082 Cl
ATOM      9 CL   UNL     1       1.236  -2.415  -0.023  0.00  0.00    -0.082 Cl
ENDBRANCH   1   7
BRANCH   1  10
ATOM     10  C   UNL     1       1.403   4.091   1.410  0.00  0.00    -0.054 A 
ATOM     11  C   UNL     1       0.345   4.504   2.199  0.00  0.00    +0.035 A 
ATOM     12  C   UNL     1       0.576   4.957   3.484  0.00  0.00    +0.128 A 
ATOM     13  C   UNL     1       1.866   5.007   3.978  0.00  0.00    +0.052 A 
ATOM     14  C   UNL     1       2.925   4.599   3.188  0.00  0.00    +0.043 A 
ATOM     15  C   UNL     1       2.693   4.141   1.903  0.00  0.00    +0.022 A 
ATOM     16 CL   UNL     1       4.546   4.662   3.808  0.00  0.00    -0.083 Cl
BRANCH  12  17
ATOM     17  N   UNL     1      -0.558   5.394   4.329  0.00  0.00    +0.056 N 
ATOM     18  O   UNL     1      -0.354   5.797   5.460  0.00  0.00    -0.126 OA
ATOM     19  O   UNL     1      -1.694   5.350   3.894  0.00  0.00    -0.126 OA
ENDBRANCH  12  17
ENDBRANCH   1  10
BRANCH   1  20
ATOM     20  N   UNL     1       2.196   4.102  -0.887  0.00  0.00    +0.385 N 
ATOM     21  H   UNL     1       2.180   5.202  -0.881  0.00  0.00    -0.089 HD
ATOM     22  H   UNL     1       2.011   3.739  -1.909  0.00  0.00    -0.089 HD
ATOM     23  H   UNL     1       3.179   3.747  -0.544  0.00  0.00    -0.089 HD
ENDBRANCH   1  20
TORSDOF 4
