REMARK  Name = ZINC03510297
REMARK  9 active torsions:
REMARK  status: ('A' for Active; 'I' for Inactive)
REMARK    1  A    between atoms: C_1  and  C_2
REMARK    2  A    between atoms: C_4  and  C_13
REMARK    3  A    between atoms: C_5  and  C_12
REMARK    4  A    between atoms: N_6  and  C_7
REMARK    5  A    between atoms: C_7  and  C_8
REMARK    6  A    between atoms: C_13  and  C_15
REMARK    7  A    between atoms: C_15  and  S_16
REMARK    8  A    between atoms: S_16  and  C_17
REMARK    9  A    between atoms: C_21  and  N_23
REMARK                            x       y       z     vdW  Elec       q    Type
REMARK                         _______ _______ _______ _____ _____    ______ ____
ROOT
ATOM      1  C   UNL     1       2.451   1.619   5.104  0.00  0.00    +0.175 C 
ATOM      2  O   UNL     1       3.069   2.657   4.994  0.00  0.00    -0.291 OA
ENDROOT
BRANCH   1   6
ATOM      3  C   UNL     1      -1.341  -0.772   2.683  0.00  0.00    +0.063 C 
ATOM      4  C   UNL     1      -0.287   0.224   3.091  0.00  0.00    +0.017 A 
ATOM      5  C   UNL     1       0.548   0.090   4.135  0.00  0.00    +0.034 A 
ATOM      6  C   UNL     1       1.389   1.295   4.149  0.00  0.00    +0.039 A 
ATOM      7  C   UNL     1       0.972   2.059   3.076  0.00  0.00    +0.027 A 
ATOM      8  N   UNL     1      -0.025   1.403   2.455  0.00  0.00    -0.339 N 
ATOM      9  C   UNL     1       1.536   3.397   2.671  0.00  0.00    +0.064 C 
BRANCH   8  10
ATOM     10  C   UNL     1      -0.733   1.888   1.268  0.00  0.00    +0.234 C 
BRANCH  10  11
ATOM     11  C   UNL     1      -0.017   1.395   0.010  0.00  0.00    +0.407 C 
ATOM     12  F   UNL     1       0.002  -0.004   0.002  0.00  0.00    -0.169 F 
ATOM     13  F   UNL     1       1.296   1.879  -0.000  0.00  0.00    -0.169 F 
ATOM     14  F   UNL     1      -0.694   1.858  -1.124  0.00  0.00    -0.169 F 
ENDBRANCH  10  11
ENDBRANCH   8  10
ENDBRANCH   1   6
BRANCH   1  15
ATOM     15  C   UNL     1       2.776   0.662   6.223  0.00  0.00    +0.157 C 
BRANCH  15  16
ATOM     16  S   UNL     1       4.122   1.341   7.224  0.00  0.00    -0.078 S 
BRANCH  16  17
ATOM     17  C   UNL     1       4.290   0.058   8.420  0.00  0.00    +0.192 A 
ATOM     18  N   UNL     1       3.493  -0.998   8.350  0.00  0.00    -0.207 NA
ATOM     19  C   UNL     1       3.595  -1.989   9.233  0.00  0.00    +0.122 A 
ATOM     20  C   UNL     1       4.546  -1.899  10.245  0.00  0.00    +0.086 A 
ATOM     21  C   UNL     1       5.362  -0.772  10.290  0.00  0.00    +0.122 A 
ATOM     22  N   UNL     1       5.207   0.177   9.370  0.00  0.00    -0.207 NA
ATOM     23  N   UNL     1       2.761  -3.093   9.149  0.00  0.00    -0.343 N 
ATOM     24  H   UNL     1       2.839  -3.810   9.798  0.00  0.00    +0.144 HD
ATOM     25  H   UNL     1       2.101  -3.149   8.441  0.00  0.00    +0.144 HD
BRANCH  21  26
ATOM     26  N   UNL     1       6.323  -0.640  11.280  0.00  0.00    -0.343 N 
ATOM     27  H   UNL     1       6.888   0.148  11.305  0.00  0.00    +0.144 HD
ATOM     28  H   UNL     1       6.431  -1.336  11.947  0.00  0.00    +0.144 HD
ENDBRANCH  21  26
ENDBRANCH  16  17
ENDBRANCH  15  16
ENDBRANCH   1  15
TORSDOF 7
