REMARK  Name = ZINC25603343
REMARK  8 active torsions:
REMARK  status: ('A' for Active; 'I' for Inactive)
REMARK    1  A    between atoms: C_4  and  C_7
REMARK    2  A    between atoms: C_7  and  N_8
REMARK    3  A    between atoms: C_11  and  N_14
REMARK    4  A    between atoms: C_15  and  C_17
REMARK    5  A    between atoms: C_17  and  S_18
REMARK    6  A    between atoms: S_18  and  C_19
REMARK    7  A    between atoms: C_22  and  C_25
REMARK    8  A    between atoms: N_23  and  N_24
REMARK                            x       y       z     vdW  Elec       q    Type
REMARK                         _______ _______ _______ _____ _____    ______ ____
ROOT
ATOM      1  C   UNL     1      -6.766  -1.225   0.038  0.00  0.00    +0.173 C 
ENDROOT
BRANCH   1   3
ATOM      2  N   UNL     1      -8.783  -2.657   0.014  0.00  0.00    -0.314 N 
ATOM      3  C   UNL     1      -8.259  -1.417   0.091  0.00  0.00    +0.223 C 
ATOM      4  O   UNL     1      -8.991  -0.456   0.202  0.00  0.00    -0.275 OA
ATOM      5  H   UNL     1      -8.119  -3.529  -0.087  0.00  0.00    +0.149 HD
BRANCH   2   9
ATOM      6  N   UNL     1     -11.255  -5.016   0.436  0.00  0.00    +0.384 N 
ATOM      7  C   UNL     1     -11.799  -4.072   1.446  0.00  0.00    -0.077 C 
ATOM      8  C   UNL     1     -10.707  -2.974   1.532  0.00  0.00    +0.002 C 
ATOM      9  C   UNL     1     -10.235  -2.844   0.066  0.00  0.00    +0.055 C 
ATOM     10  C   UNL     1     -10.627  -4.173  -0.605  0.00  0.00    -0.056 C 
ATOM     11  H   UNL     1     -10.532  -5.716   0.878  0.00  0.00    -0.081 HD
BRANCH   6  12
ATOM     12  C   UNL     1     -12.322  -5.849  -0.134  0.00  0.00    -0.043 C 
BRANCH  12  16
ATOM     13  C   UNL     1     -13.591  -8.719   2.764  0.00  0.00    +0.000 A 
ATOM     14  C   UNL     1     -14.206  -7.482   2.701  0.00  0.00    +0.000 A 
ATOM     15  C   UNL     1     -13.795  -6.553   1.763  0.00  0.00    +0.002 A 
ATOM     16  C   UNL     1     -12.770  -6.861   0.888  0.00  0.00    -0.064 A 
ATOM     17  C   UNL     1     -12.159  -8.100   0.948  0.00  0.00    +0.002 A 
ATOM     18  C   UNL     1     -12.566  -9.027   1.889  0.00  0.00    +0.000 A 
ENDBRANCH  12  16
ENDBRANCH   6  12
ENDBRANCH   2   9
ENDBRANCH   1   3
BRANCH   1  19
ATOM     19  S   UNL     1      -6.379   0.539   0.163  0.00  0.00    -0.075 S 
BRANCH  19  20
ATOM     20  C   UNL     1      -4.620   0.473   0.077  0.00  0.00    +0.209 A 
ATOM     21  N   UNL     1      -3.885  -0.609  -0.045  0.00  0.00    -0.121 NA
ATOM     22  N   UNL     1      -2.640  -0.296  -0.076  0.00  0.00    -0.127 NA
ATOM     23  C   UNL     1      -2.502   1.006   0.023  0.00  0.00    +0.183 A 
ATOM     24  N   UNL     1      -3.767   1.538   0.130  0.00  0.00    -0.224 N 
BRANCH  23  25
ATOM     25  C   UNL     1      -1.230   1.758   0.027  0.00  0.00    +0.039 A 
ATOM     26  C   UNL     1      -1.004   2.749   0.983  0.00  0.00    +0.014 A 
ATOM     27  C   UNL     1       0.188   3.443   0.984  0.00  0.00    +0.021 A 
ATOM     28  C   UNL     1       1.158   3.163   0.037  0.00  0.00    +0.042 A 
ATOM     29  C   UNL     1       0.939   2.185  -0.918  0.00  0.00    +0.040 A 
ATOM     30  C   UNL     1      -0.251   1.483  -0.931  0.00  0.00    +0.053 A 
ATOM     31 CL   UNL     1      -0.525   0.257  -2.129  0.00  0.00    -0.083 Cl
ATOM     32 CL   UNL     1       2.656   4.041   0.046  0.00  0.00    -0.083 Cl
ENDBRANCH  23  25
BRANCH  24  33
ATOM     33  N   UNL     1      -4.099   2.857   0.260  0.00  0.00    -0.295 N 
ATOM     34  H   UNL     1      -3.309   3.623   0.290  0.00  0.00    +0.163 HD
ATOM     35  H   UNL     1      -5.155   3.153   0.334  0.00  0.00    +0.163 HD
ENDBRANCH  24  33
ENDBRANCH  19  20
ENDBRANCH   1  19
TORSDOF 8
