REMARK  Name = ZINC40258645
REMARK  3 active torsions:
REMARK  status: ('A' for Active; 'I' for Inactive)
REMARK    1  A    between atoms: C_7  and  C_10
REMARK    2  A    between atoms: C_10  and  C_12
REMARK    3  A    between atoms: C_10  and  O_21
REMARK                            x       y       z     vdW  Elec       q    Type
REMARK                         _______ _______ _______ _____ _____    ______ ____
ROOT
ATOM      1  C   UNL     1       0.282  -3.100  -0.017  0.00  0.00    +0.176 C 
ENDROOT
BRANCH   1   8
ATOM      2  C   UNL     1      -0.016   1.355   0.009  0.00  0.00    +0.001 A 
ATOM      3  C   UNL     1       1.157   2.097   0.002  0.00  0.00    +0.001 A 
ATOM      4  C   UNL     1       2.374   1.445  -0.013  0.00  0.00    +0.015 A 
ATOM      5  C   UNL     1       2.406   0.067  -0.020  0.00  0.00    +0.020 A 
ATOM      6  C   UNL     1       1.228  -0.711  -0.013  0.00  0.00    -0.005 A 
ATOM      7  C   UNL     1       0.002  -0.004   0.002  0.00  0.00    +0.009 A 
ATOM      8  C   UNL     1       1.451  -2.149  -0.023  0.00  0.00    -0.000 A 
ATOM      9  C   UNL     1       2.706  -2.619  -0.038  0.00  0.00    +0.053 A 
ATOM     10  S   UNL     1       3.704  -1.142  -0.039  0.00  0.00    -0.096 S 
ENDBRANCH   1   8
BRANCH   1  11
ATOM     11  C   UNL     1      -0.200  -3.314  -1.429  0.00  0.00    -0.011 A 
ATOM     12  C   UNL     1       0.399  -4.272  -2.224  0.00  0.00    +0.010 A 
ATOM     13  C   UNL     1      -0.040  -4.472  -3.520  0.00  0.00    +0.050 A 
ATOM     14  C   UNL     1      -1.081  -3.711  -4.024  0.00  0.00    +0.166 A 
ATOM     15  C   UNL     1      -1.685  -2.745  -3.223  0.00  0.00    +0.167 A 
ATOM     16  C   UNL     1      -1.244  -2.554  -1.923  0.00  0.00    +0.056 A 
ATOM     17  O   UNL     1      -2.674  -2.138  -3.941  0.00  0.00    -0.453 OA
ATOM     18  C   UNL     1      -2.400  -2.457  -5.318  0.00  0.00    +0.466 C 
ATOM     19  O   UNL     1      -1.692  -3.709  -5.245  0.00  0.00    -0.453 OA
ENDBRANCH   1  11
BRANCH   1  20
ATOM     20  O   UNL     1       0.689  -4.351   0.542  0.00  0.00    -0.382 OA
ATOM     21  H   UNL     1       1.405  -4.783   0.058  0.00  0.00    +0.211 HD
ENDBRANCH   1  20
TORSDOF 3
