REMARK  Name = ZINC11788926
REMARK  10 active torsions:
REMARK  status: ('A' for Active; 'I' for Inactive)
REMARK    1  A    between atoms: C_1  and  C_2
REMARK    2  A    between atoms: C_3  and  C_9
REMARK    3  A    between atoms: N_5  and  C_7
REMARK    4  A    between atoms: C_9  and  N_57
REMARK    5  A    between atoms: C_12  and  C_15
REMARK    6  A    between atoms: C_15  and  C_22
REMARK    7  A    between atoms: C_22  and  C_23
REMARK    8  A    between atoms: C_23  and  C_24
REMARK    9  A    between atoms: C_24  and  C_25
REMARK   10  A    between atoms: C_24  and  C_26
REMARK                            x       y       z     vdW  Elec       q    Type
REMARK                         _______ _______ _______ _____ _____    ______ ____
ROOT
ATOM      1  C   UNL     1       2.652  -1.302  -2.230  0.00  0.00    -0.078 C 
ATOM      2  C   UNL     1       2.654  -1.745  -3.695  0.00  0.00    -0.013 C 
ATOM      3  C   UNL     1       3.361  -3.099  -3.813  0.00  0.00    +0.018 C 
ATOM      4  C   UNL     1       2.650  -4.116  -2.916  0.00  0.00    -0.013 C 
ATOM      5  C   UNL     1       2.647  -3.604  -1.474  0.00  0.00    -0.078 C 
ATOM      6  N   UNL     1       1.932  -2.311  -1.425  0.00  0.00    +0.383 N 
ATOM      7  H   UNL     1       0.990  -2.437  -1.813  0.00  0.00    -0.081 HD
ENDROOT
BRANCH   3   8
ATOM      8  C   UNL     1       3.314  -3.577  -5.265  0.00  0.00    +0.115 C 
ATOM      9  C   UNL     1       1.900  -3.962  -5.655  0.00  0.00    +0.244 C 
ATOM     10  O   UNL     1       0.925  -3.242  -5.676  0.00  0.00    -0.273 OA
ATOM     11  N   UNL     1       1.953  -5.270  -5.972  0.00  0.00    -0.238 N 
ATOM     12  C   UNL     1       3.191  -5.761  -5.838  0.00  0.00    +0.307 C 
ATOM     13  O   UNL     1       3.487  -6.917  -6.066  0.00  0.00    -0.252 OA
ATOM     14  N   UNL     1       4.070  -4.831  -5.423  0.00  0.00    -0.285 N 
ATOM     15  H   UNL     1       1.188  -5.792  -6.261  0.00  0.00    +0.159 HD
ATOM     16  H   UNL     1       5.017  -4.962  -5.258  0.00  0.00    +0.151 HD
BRANCH   8  17
ATOM     17  C   UNL     1       3.860  -2.498  -6.203  0.00  0.00    +0.036 C 
BRANCH  17  18
ATOM     18  C   UNL     1       3.802  -3.001  -7.647  0.00  0.00    +0.005 C 
BRANCH  18  19
ATOM     19  C   UNL     1       4.348  -1.922  -8.585  0.00  0.00    -0.017 C 
ATOM     20  C   UNL     1       5.833  -1.697  -8.294  0.00  0.00    +0.007 C 
ATOM     21  C   UNL     1       4.175  -2.374 -10.036  0.00  0.00    +0.007 C 
ENDBRANCH  18  19
ENDBRANCH  17  18
ENDBRANCH   8  17
ENDBRANCH   3   8
BRANCH   6  22
ATOM     22  C   UNL     1       1.817  -1.851  -0.025  0.00  0.00    -0.038 C 
BRANCH  22  25
ATOM     23  C   UNL     1      -1.207  -0.904   0.009  0.00  0.00    +0.068 C 
ATOM     24  C   UNL     1       0.002  -0.004   0.002  0.00  0.00    +0.063 A 
ATOM     25  C   UNL     1       1.336  -0.423  -0.013  0.00  0.00    -0.005 A 
ATOM     26  C   UNL     1       2.120   0.682  -0.015  0.00  0.00    +0.128 A 
ATOM     27  N   UNL     1       1.309   1.761  -0.001  0.00  0.00    -0.256 N 
ATOM     28  N   UNL     1      -0.016   1.304   0.009  0.00  0.00    -0.175 NA
ATOM     29  C   UNL     1       1.738   3.161   0.002  0.00  0.00    +0.174 C 
ATOM     30 CL   UNL     1       3.856   0.706  -0.031  0.00  0.00    -0.062 Cl
ENDBRANCH  22  25
ENDBRANCH   6  22
TORSDOF 6
