REMARK  Name = ZINC10295053
REMARK  2 active torsions:
REMARK  status: ('A' for Active; 'I' for Inactive)
REMARK    1  A    between atoms: C_3  and  C_6
REMARK    2  A    between atoms: C_13  and  C_14
REMARK                            x       y       z     vdW  Elec       q    Type
REMARK                         _______ _______ _______ _____ _____    ______ ____
ROOT
ATOM      1  C   UNL     1       3.634   1.716  -0.046  0.00  0.00    +0.183 C 
ATOM      2  C   UNL     1       4.433   1.195  -1.210  0.00  0.00    +0.036 A 
ATOM      3  C   UNL     1       5.407   0.222  -1.063  0.00  0.00    +0.110 A 
ATOM      4  C   UNL     1       6.096  -0.206  -2.204  0.00  0.00    +0.310 A 
ATOM      5  N   UNL     1       5.805   0.327  -3.379  0.00  0.00    -0.104 NA
ATOM      6  N   UNL     1       4.905   1.231  -3.517  0.00  0.00    -0.145 NA
ATOM      7  C   UNL     1       4.200   1.696  -2.494  0.00  0.00    +0.101 A 
ATOM      8  O   UNL     1       7.056  -1.161  -2.105  0.00  0.00    -0.262 OA
ATOM      9  N   UNL     1       5.712  -0.324   0.188  0.00  0.00    -0.278 N 
ATOM     10  C   UNL     1       5.198   0.322   1.302  0.00  0.00    +0.240 A 
ATOM     11  N   UNL     1       4.237   1.274   1.205  0.00  0.00    -0.201 N 
ATOM     12  N   UNL     1       3.992   1.686   2.515  0.00  0.00    -0.042 NA
ATOM     13  N   UNL     1       4.775   0.989   3.274  0.00  0.00    -0.021 NA
ATOM     14  N   UNL     1       5.485   0.186   2.567  0.00  0.00    -0.092 NA
ATOM     15  H   UNL     1       6.258  -1.121   0.273  0.00  0.00    +0.155 HD
ENDROOT
BRANCH   7  16
ATOM     16  C   UNL     1       3.170   2.742  -2.712  0.00  0.00    +0.003 A 
ATOM     17  C   UNL     1       3.150   3.881  -1.909  0.00  0.00    +0.011 A 
ATOM     18  C   UNL     1       2.190   4.851  -2.116  0.00  0.00    +0.016 A 
ATOM     19  C   UNL     1       1.249   4.693  -3.118  0.00  0.00    +0.018 A 
ATOM     20  C   UNL     1       1.265   3.564  -3.918  0.00  0.00    +0.016 A 
ATOM     21  C   UNL     1       2.224   2.591  -3.723  0.00  0.00    +0.011 A 
ATOM     22 BR   UNL     1      -0.064   6.026  -3.396  0.00  0.00    -0.050 Br
ENDBRANCH   7  16
BRANCH   1  25
ATOM     23  C   UNL     1      -0.135   1.184  -0.218  0.00  0.00    +0.008 A 
ATOM     24  C   UNL     1       1.055   1.881  -0.125  0.00  0.00    +0.013 A 
ATOM     25  C   UNL     1       2.223   1.193  -0.133  0.00  0.00    +0.019 A 
ATOM     26  S   UNL     1       1.656  -0.494  -0.275  0.00  0.00    -0.099 S 
ATOM     27  C   UNL     1      -0.099  -0.167  -0.314  0.00  0.00    +0.045 A 
ENDBRANCH   1  25
TORSDOF 2
