REMARK  Name = ZINC05322025
REMARK  9 active torsions:
REMARK  status: ('A' for Active; 'I' for Inactive)
REMARK    1  A    between atoms: C_1  and  C_2
REMARK    2  A    between atoms: C_2  and  N_3
REMARK    3  A    between atoms: N_3  and  C_4
REMARK    4  A    between atoms: N_3  and  C_6
REMARK    5  A    between atoms: C_4  and  C_5
REMARK    6  A    between atoms: C_13  and  N_26
REMARK    7  A    between atoms: C_14  and  C_24
REMARK    8  A    between atoms: C_15  and  C_17
REMARK    9  A    between atoms: C_20  and  O_23
REMARK                            x       y       z     vdW  Elec       q    Type
REMARK                         _______ _______ _______ _____ _____    ______ ____
ROOT
ATOM      1  C   UNL     1      -3.307   5.692   1.226  0.00  0.00    +0.033 A 
ATOM      2  C   UNL     1      -4.549   5.070   1.248  0.00  0.00    +0.023 A 
ATOM      3  C   UNL     1      -4.666   3.750   0.859  0.00  0.00    +0.010 A 
ATOM      4  C   UNL     1      -3.551   3.042   0.448  0.00  0.00    +0.008 A 
ATOM      5  C   UNL     1      -2.308   3.657   0.424  0.00  0.00    +0.136 A 
ATOM      6  C   UNL     1      -2.187   4.984   0.814  0.00  0.00    +0.069 A 
ATOM      7  O   UNL     1      -1.204   2.979   0.029  0.00  0.00    -0.441 OA
ATOM      8  C   UNL     1      -1.209   1.636   0.017  0.00  0.00    +0.199 C 
ATOM      9  C   UNL     1      -2.360   0.923   0.018  0.00  0.00    +0.098 C 
ATOM     10  C   UNL     1      -3.700   1.604   0.028  0.00  0.00    +0.098 C 
ENDROOT
BRANCH  10  11
ATOM     11  C   UNL     1      -4.300   1.546  -1.353  0.00  0.00    -0.034 A 
ATOM     12  C   UNL     1      -3.639   2.131  -2.417  0.00  0.00    +0.008 A 
ATOM     13  C   UNL     1      -4.183   2.075  -3.685  0.00  0.00    +0.046 A 
ATOM     14  C   UNL     1      -5.401   1.441  -3.889  0.00  0.00    +0.117 A 
ATOM     15  C   UNL     1      -6.065   0.860  -2.818  0.00  0.00    +0.046 A 
ATOM     16  C   UNL     1      -5.513   0.914  -1.553  0.00  0.00    +0.008 A 
BRANCH  14  17
ATOM     17  O   UNL     1      -5.942   1.390  -5.134  0.00  0.00    -0.507 OA
ATOM     18  H   UNL     1      -6.520   2.137  -5.343  0.00  0.00    +0.292 HD
ENDBRANCH  14  17
ENDBRANCH  10  11
BRANCH   8  19
ATOM     19  N   UNL     1      -0.011   0.966   0.007  0.00  0.00    -0.328 N 
ATOM     20  H   UNL     1       0.002  -0.004   0.002  0.00  0.00    +0.145 HD
ATOM     21  H   UNL     1       0.822   1.462   0.002  0.00  0.00    +0.145 HD
ENDBRANCH   8  19
BRANCH   9  22
ATOM     22  C   UNL     1      -2.300  -0.507   0.011  0.00  0.00    +0.101 C 
ATOM     23  N   UNL     1      -2.252  -1.642   0.004  0.00  0.00    -0.191 NA
ENDBRANCH   9  22
BRANCH   1  24
ATOM     24  N   UNL     1      -3.185   7.027   1.619  0.00  0.00    -0.330 N 
BRANCH  24  26
ATOM     25  C   UNL     1      -4.546   7.610   3.566  0.00  0.00    +0.024 C 
ATOM     26  C   UNL     1      -4.369   7.772   2.055  0.00  0.00    +0.102 C 
ENDBRANCH  24  26
BRANCH  24  27
ATOM     27  C   UNL     1      -1.875   7.681   1.596  0.00  0.00    +0.102 C 
ATOM     28  C   UNL     1      -1.653   8.330   0.229  0.00  0.00    +0.024 C 
ENDBRANCH  24  27
ENDBRANCH   1  24
TORSDOF 7
