REMARK  Name = ZINC02147580
REMARK  10 active torsions:
REMARK  status: ('A' for Active; 'I' for Inactive)
REMARK    1  A    between atoms: C_1  and  C_2
REMARK    2  A    between atoms: C_2  and  C_3
REMARK    3  A    between atoms: C_2  and  C_4
REMARK    4  A    between atoms: C_7  and  N_10
REMARK    5  A    between atoms: C_11  and  C_13
REMARK    6  A    between atoms: C_13  and  C_15
REMARK    7  A    between atoms: C_13  and  N_19
REMARK    8  A    between atoms: C_15  and  C_16
REMARK    9  A    between atoms: C_16  and  S_17
REMARK   10  A    between atoms: S_17  and  C_18
REMARK                            x       y       z     vdW  Elec       q    Type
REMARK                         _______ _______ _______ _____ _____    ______ ____
ROOT
ATOM      1  C   UNL     1       0.691   0.680   4.721  0.00  0.00    +0.161 C 
ENDROOT
BRANCH   1   2
ATOM      2  N   UNL     1      -0.041   0.292   3.513  0.00  0.00    -0.288 N 
ATOM      3  C   UNL     1       0.169  -0.918   2.958  0.00  0.00    +0.303 C 
ATOM      4  O   UNL     1       0.892  -1.724   3.511  0.00  0.00    -0.253 OA
ATOM      5  N   UNL     1      -0.422  -1.234   1.788  0.00  0.00    -0.285 N 
ATOM      6  C   UNL     1      -1.386  -0.321   1.164  0.00  0.00    +0.114 C 
ATOM      7  C   UNL     1      -2.660  -1.071   0.797  0.00  0.00    +0.027 C 
ATOM      8  C   UNL     1      -2.342  -2.344   0.012  0.00  0.00    +0.018 C 
ATOM      9  C   UNL     1      -1.448  -3.235   0.878  0.00  0.00    +0.054 C 
ATOM     10  C   UNL     1      -0.115  -2.504   1.110  0.00  0.00    +0.119 C 
ATOM     11  C   UNL     1      -2.095  -3.449   2.227  0.00  0.00    +0.027 A 
ATOM     12  C   UNL     1      -1.771  -4.583   2.903  0.00  0.00    +0.022 A 
ATOM     13  C   UNL     1      -2.276  -4.814   4.187  0.00  0.00    +0.007 A 
ATOM     14  C   UNL     1      -3.074  -3.868   4.762  0.00  0.00    +0.070 A 
ATOM     15  C   UNL     1      -3.378  -2.704   4.043  0.00  0.00    +0.251 A 
ATOM     16  O   UNL     1      -4.032  -1.821   4.572  0.00  0.00    -0.268 OA
ATOM     17  N   UNL     1      -2.952  -2.550   2.764  0.00  0.00    -0.312 N 
ATOM     18  C   UNL     1      -3.492  -1.412   2.020  0.00  0.00    +0.130 C 
ATOM     19  H   UNL     1      -0.676   0.906   3.112  0.00  0.00    +0.151 HD
ENDBRANCH   1   2
BRANCH   1  21
ATOM     20  N   UNL     1       0.383   2.227   6.626  0.00  0.00    -0.284 N 
ATOM     21  C   UNL     1      -0.098   1.719   5.475  0.00  0.00    +0.238 C 
ATOM     22  O   UNL     1      -1.167   2.098   5.045  0.00  0.00    -0.273 OA
ATOM     23  H   UNL     1       1.269   1.980   6.933  0.00  0.00    +0.155 HD
BRANCH  20  27
ATOM     24  C   UNL     1      -1.936   4.861   8.872  0.00  0.00    -0.045 A 
ATOM     25  C   UNL     1      -2.543   3.845   8.157  0.00  0.00    +0.006 A 
ATOM     26  C   UNL     1      -1.777   2.970   7.412  0.00  0.00    +0.023 A 
ATOM     27  C   UNL     1      -0.396   3.112   7.380  0.00  0.00    +0.033 A 
ATOM     28  C   UNL     1       0.211   4.131   8.103  0.00  0.00    +0.023 A 
ATOM     29  C   UNL     1      -0.561   5.005   8.843  0.00  0.00    +0.006 A 
BRANCH  24  31
ATOM     30  C   UNL     1      -2.362   5.729  11.156  0.00  0.00    +0.012 C 
ATOM     31  C   UNL     1      -2.775   5.814   9.685  0.00  0.00    +0.013 C 
ATOM     32  C   UNL     1      -2.562   7.241   9.177  0.00  0.00    +0.012 C 
ENDBRANCH  24  31
ENDBRANCH  20  27
ENDBRANCH   1  21
BRANCH   1  33
ATOM     33  C   UNL     1       2.052   1.259   4.330  0.00  0.00    +0.042 C 
BRANCH  33  34
ATOM     34  C   UNL     1       2.901   0.167   3.675  0.00  0.00    +0.071 C 
BRANCH  34  35
ATOM     35  S   UNL     1       4.515   0.853   3.211  0.00  0.00    -0.164 S 
ATOM     36  C   UNL     1       5.388  -0.548   2.460  0.00  0.00    +0.084 C 
ENDBRANCH  34  35
ENDBRANCH  33  34
ENDBRANCH   1  33
TORSDOF 7
