REMARK  Name = ZINC35485247
REMARK  6 active torsions:
REMARK  status: ('A' for Active; 'I' for Inactive)
REMARK    1  A    between atoms: C_8  and  C_12
REMARK    2  A    between atoms: N_14  and  C_15
REMARK    3  A    between atoms: C_15  and  C_17
REMARK    4  A    between atoms: C_15  and  C_28
REMARK    5  A    between atoms: C_17  and  C_18
REMARK    6  A    between atoms: N_30  and  C_31
REMARK                            x       y       z     vdW  Elec       q    Type
REMARK                         _______ _______ _______ _____ _____    ______ ____
ROOT
ATOM      1  C   UNL     1       2.062  -6.524   0.762  0.00  0.00    +0.163 C 
ENDROOT
BRANCH   1   4
ATOM      2  C   UNL     1       2.586  -4.234   0.117  0.00  0.00    +0.231 C 
ATOM      3  O   UNL     1       3.121  -4.668  -0.881  0.00  0.00    -0.274 OA
ATOM      4  N   UNL     1       2.025  -5.080   1.004  0.00  0.00    -0.302 N 
ATOM      5  H   UNL     1       1.597  -4.733   1.802  0.00  0.00    +0.150 HD
BRANCH   2  13
ATOM      6  C   UNL     1      -0.017   1.376   0.010  0.00  0.00    +0.000 A 
ATOM      7  C   UNL     1       1.173   2.080   0.002  0.00  0.00    +0.000 A 
ATOM      8  C   UNL     1       2.374   1.400  -0.011  0.00  0.00    +0.005 A 
ATOM      9  C   UNL     1       2.395   0.013  -0.018  0.00  0.00    -0.030 A 
ATOM     10  C   UNL     1       1.208  -0.688  -0.014  0.00  0.00    -0.041 A 
ATOM     11  C   UNL     1       0.002  -0.004   0.002  0.00  0.00    +0.004 A 
ATOM     12  C   UNL     1       1.180  -2.195  -0.033  0.00  0.00    +0.063 C 
ATOM     13  C   UNL     1       2.548  -2.748   0.366  0.00  0.00    +0.145 C 
ATOM     14  N   UNL     1       3.577  -2.081  -0.447  0.00  0.00    -0.301 NA
ATOM     15  C   UNL     1       3.730  -0.684  -0.026  0.00  0.00    +0.117 C 
ATOM     16  H   UNL     1       4.456  -2.573  -0.393  0.00  0.00    +0.123 HD
ENDBRANCH   2  13
ENDBRANCH   1   4
BRANCH   1  17
ATOM     17  C   UNL     1       0.906  -6.915  -0.122  0.00  0.00    +0.234 C 
ATOM     18  O   UNL     1       0.128  -6.070  -0.512  0.00  0.00    -0.274 OA
ATOM     19  N   UNL     1       0.737  -8.204  -0.480  0.00  0.00    -0.311 N 
ATOM     20  H   UNL     1       1.359  -8.879  -0.168  0.00  0.00    +0.149 HD
BRANCH  19  21
ATOM     21  C   UNL     1      -0.387  -8.583  -1.340  0.00  0.00    +0.073 C 
ATOM     22  C   UNL     1      -1.633  -8.811  -0.481  0.00  0.00    +0.022 C 
ATOM     23  C   UNL     1      -2.806  -9.207  -1.379  0.00  0.00    +0.002 C 
ATOM     24  C   UNL     1      -2.461 -10.496  -2.129  0.00  0.00    +0.000 C 
ATOM     25  C   UNL     1      -1.216 -10.268  -2.988  0.00  0.00    +0.002 C 
ATOM     26  C   UNL     1      -0.042  -9.872  -2.090  0.00  0.00    +0.022 C 
ENDBRANCH  19  21
ENDBRANCH   1  17
BRANCH   1  27
ATOM     27  C   UNL     1       1.957  -7.268   2.096  0.00  0.00    +0.069 C 
BRANCH  27  28
ATOM     28  C   UNL     1       3.176  -6.972   2.932  0.00  0.00    -0.020 A 
ATOM     29  C   UNL     1       4.292  -7.714   3.007  0.00  0.00    +0.087 A 
ATOM     30  N   UNL     1       5.182  -7.133   3.868  0.00  0.00    -0.360 N 
ATOM     31  H   UNL     1       6.059  -7.485   4.084  0.00  0.00    +0.165 HD
ATOM     32  C   UNL     1       4.647  -5.973   4.381  0.00  0.00    +0.047 A 
ATOM     33  C   UNL     1       3.369  -5.818   3.813  0.00  0.00    +0.003 A 
ATOM     34  C   UNL     1       2.586  -4.713   4.150  0.00  0.00    +0.010 A 
ATOM     35  C   UNL     1       3.066  -3.784   5.029  0.00  0.00    +0.001 A 
ATOM     36  C   UNL     1       4.328  -3.929   5.590  0.00  0.00    +0.002 A 
ATOM     37  C   UNL     1       5.114  -5.017   5.278  0.00  0.00    +0.026 A 
ENDBRANCH  27  28
ENDBRANCH   1  27
TORSDOF 6
