REMARK  Name = ZINC39630599
REMARK  11 active torsions:
REMARK  status: ('A' for Active; 'I' for Inactive)
REMARK    1  A    between atoms: C_1  and  C_2
REMARK    2  A    between atoms: C_2  and  C_3
REMARK    3  A    between atoms: C_2  and  C_4
REMARK    4  A    between atoms: C_2  and  C_33
REMARK    5  A    between atoms: C_4  and  N_5
REMARK    6  A    between atoms: C_6  and  C_8
REMARK    7  A    between atoms: C_19  and  C_21
REMARK    8  A    between atoms: C_27  and  C_29
REMARK    9  A    between atoms: C_33  and  N_34
REMARK   10  A    between atoms: N_34  and  C_35
REMARK   11  A    between atoms: N_34  and  C_36
REMARK                            x       y       z     vdW  Elec       q    Type
REMARK                         _______ _______ _______ _____ _____    ______ ____
ROOT
ATOM      1  C   UNL     1      -1.943  -0.063   3.906  0.00  0.00    +0.100 C 
ATOM      2  C   UNL     1      -2.070   1.470   4.047  0.00  0.00    +0.121 C 
ATOM      3  N   UNL     1      -3.520   1.709   4.242  0.00  0.00    -0.299 N 
ATOM      4  C   UNL     1      -3.961   0.602   5.123  0.00  0.00    +0.115 C 
ATOM      5  C   UNL     1      -3.183  -0.629   4.616  0.00  0.00    -0.004 C 
ATOM      6  C   UNL     1      -4.038  -1.424   3.633  0.00  0.00    -0.010 C 
ATOM      7  C   UNL     1      -5.236  -2.024   4.375  0.00  0.00    -0.082 C 
ATOM      8  N   UNL     1      -4.757  -2.897   5.455  0.00  0.00    +0.379 N 
ATOM      9  C   UNL     1      -4.014  -2.107   6.444  0.00  0.00    -0.082 C 
ATOM     10  C   UNL     1      -2.765  -1.510   5.790  0.00  0.00    -0.010 C 
ATOM     11  C   UNL     1      -4.268   2.708   3.733  0.00  0.00    +0.236 C 
ATOM     12  O   UNL     1      -5.453   2.768   3.987  0.00  0.00    -0.274 OA
ATOM     13  H   UNL     1      -5.546  -3.338   5.903  0.00  0.00    -0.086 HD
ATOM     14  H   UNL     1      -4.152  -3.606   5.069  0.00  0.00    -0.086 HD
ENDROOT
BRANCH  11  15
ATOM     15  C   UNL     1      -3.633   3.750   2.849  0.00  0.00    +0.162 C 
ATOM     16  C   UNL     1      -2.909   4.803   3.714  0.00  0.00    +0.033 C 
ATOM     17  C   UNL     1      -3.203   6.130   2.966  0.00  0.00    +0.021 C 
ATOM     18  C   UNL     1      -4.642   5.882   2.448  0.00  0.00    +0.109 C 
ATOM     19  N   UNL     1      -4.671   4.452   2.079  0.00  0.00    -0.283 N 
ATOM     20  C   UNL     1      -5.506   3.884   1.187  0.00  0.00    +0.320 C 
ATOM     21  O   UNL     1      -5.437   2.694   0.964  0.00  0.00    -0.266 OA
BRANCH  20  22
ATOM     22  C   UNL     1      -6.527   4.728   0.467  0.00  0.00    +0.470 C 
ATOM     23  F   UNL     1      -7.271   3.921  -0.400  0.00  0.00    -0.162 F 
ATOM     24  F   UNL     1      -7.382   5.323   1.400  0.00  0.00    -0.162 F 
ATOM     25  F   UNL     1      -5.873   5.723  -0.268  0.00  0.00    -0.162 F 
ENDBRANCH  20  22
ENDBRANCH  11  15
BRANCH   1  27
ATOM     26  N   UNL     1      -1.429  -1.645   2.075  0.00  0.00    -0.315 N 
ATOM     27  C   UNL     1      -1.944  -0.458   2.452  0.00  0.00    +0.218 C 
ATOM     28  O   UNL     1      -2.410   0.292   1.620  0.00  0.00    -0.275 OA
ATOM     29  H   UNL     1      -1.056  -2.245   2.740  0.00  0.00    +0.149 HD
BRANCH  26  30
ATOM     30  C   UNL     1      -1.431  -2.029   0.661  0.00  0.00    +0.108 C 
BRANCH  30  32
ATOM     31  C   UNL     1       0.647  -3.368   1.022  0.00  0.00    +0.010 C 
ATOM     32  C   UNL     1      -0.793  -3.411   0.507  0.00  0.00    -0.034 C 
ATOM     33  C   UNL     1      -1.593  -4.434   1.315  0.00  0.00    +0.010 C 
BRANCH  32  34
ATOM     34  C   UNL     1      -0.795  -3.812  -0.969  0.00  0.00    -0.072 C 
BRANCH  34  35
ATOM     35  N   UNL     1      -0.264  -5.174  -1.107  0.00  0.00    +0.376 N 
ATOM     36  C   UNL     1      -1.353  -6.144  -0.937  0.00  0.00    -0.097 C 
ATOM     37  C   UNL     1       0.331  -5.335  -2.441  0.00  0.00    -0.097 C 
ATOM     38  H   UNL     1       0.442  -5.333  -0.404  0.00  0.00    -0.083 HD
ENDBRANCH  34  35
ENDBRANCH  32  34
ENDBRANCH  30  32
ENDBRANCH  26  30
ENDBRANCH   1  27
TORSDOF 7
