REMARK  Name = ZINC09183789
REMARK  10 active torsions:
REMARK  status: ('A' for Active; 'I' for Inactive)
REMARK    1  A    between atoms: C_1  and  C_2
REMARK    2  A    between atoms: C_6  and  O_27
REMARK    3  A    between atoms: C_7  and  C_18
REMARK    4  A    between atoms: C_12  and  C_13
REMARK    5  A    between atoms: C_13  and  C_14
REMARK    6  A    between atoms: C_14  and  O_16
REMARK    7  A    between atoms: O_16  and  C_17
REMARK    8  A    between atoms: C_18  and  N_50
REMARK    9  A    between atoms: C_19  and  C_26
REMARK   10  A    between atoms: C_19  and  N_50
REMARK                            x       y       z     vdW  Elec       q    Type
REMARK                         _______ _______ _______ _____ _____    ______ ____
ROOT
ATOM      1  C   UNL     1      -2.413   0.965   2.512  0.00  0.00    +0.045 C 
ATOM      2  C   UNL     1      -2.967   0.489   1.194  0.00  0.00    -0.029 A 
ATOM      3  C   UNL     1      -4.067  -0.477   1.146  0.00  0.00    +0.021 A 
ATOM      4  C   UNL     1      -4.632  -0.985   2.321  0.00  0.00    +0.015 A 
ATOM      5  C   UNL     1      -5.656  -1.884   2.248  0.00  0.00    +0.046 A 
ATOM      6  C   UNL     1      -6.143  -2.300   1.010  0.00  0.00    +0.122 A 
ATOM      7  C   UNL     1      -5.595  -1.807  -0.164  0.00  0.00    +0.020 A 
ATOM      8  C   UNL     1      -4.554  -0.893  -0.107  0.00  0.00    +0.144 A 
ATOM      9  O   UNL     1      -4.006  -0.401  -1.239  0.00  0.00    -0.422 OA
ATOM     10  C   UNL     1      -3.002   0.489  -1.201  0.00  0.00    +0.341 A 
ATOM     11  O   UNL     1      -2.543   0.910  -2.248  0.00  0.00    -0.245 OA
ATOM     12  C   UNL     1      -2.462   0.945   0.019  0.00  0.00    +0.051 A 
ENDROOT
BRANCH   6  13
ATOM     13  O   UNL     1      -7.162  -3.195   0.953  0.00  0.00    -0.506 OA
ATOM     14  H   UNL     1      -6.874  -4.118   0.930  0.00  0.00    +0.292 HD
ENDBRANCH   6  13
BRANCH  12  15
ATOM     15  C   UNL     1      -1.329   1.940   0.019  0.00  0.00    +0.163 C 
BRANCH  15  16
ATOM     16  C   UNL     1      -0.014   1.204   0.009  0.00  0.00    +0.311 C 
ATOM     17  O   UNL     1       0.002  -0.004   0.002  0.00  0.00    -0.250 OA
BRANCH  16  18
ATOM     18  O   UNL     1       1.139   1.891   0.001  0.00  0.00    -0.468 OA
ATOM     19  C   UNL     1       2.367   1.117  -0.015  0.00  0.00    +0.280 C 
ENDBRANCH  16  18
ENDBRANCH  15  16
ENDBRANCH  12  15
BRANCH   7  20
ATOM     20  C   UNL     1      -6.129  -2.264  -1.497  0.00  0.00    -0.038 C 
BRANCH  20  21
ATOM     21  N   UNL     1      -5.380  -3.458  -1.934  0.00  0.00    +0.387 N 
ATOM     22  H   UNL     1      -5.496  -4.204  -1.238  0.00  0.00    -0.085 HD
ATOM     23  H   UNL     1      -4.385  -3.220  -2.019  0.00  0.00    -0.085 HD
BRANCH  21  24
ATOM     24  C   UNL     1      -5.882  -3.928  -3.239  0.00  0.00    -0.050 C 
ATOM     25  C   UNL     1      -7.383  -4.189  -3.126  0.00  0.00    +0.011 C 
ATOM     26  C   UNL     1      -7.815  -5.294  -4.130  0.00  0.00    +0.164 C 
ATOM     27  S   UNL     1      -6.371  -6.435  -3.971  0.00  0.00    -0.032 S 
ATOM     28  O   UNL     1      -6.124  -7.053  -5.226  0.00  0.00    -0.174 OA
ATOM     29  O   UNL     1      -6.536  -7.240  -2.812  0.00  0.00    -0.174 OA
ATOM     30  C   UNL     1      -5.071  -5.171  -3.651  0.00  0.00    +0.153 C 
ATOM     31  C   UNL     1      -5.656  -2.828  -4.279  0.00  0.00    -0.009 C 
ENDBRANCH  21  24
ENDBRANCH  20  21
ENDBRANCH   7  20
TORSDOF 7
