REMARK  Name = ZINC24289689
REMARK  8 active torsions:
REMARK  status: ('A' for Active; 'I' for Inactive)
REMARK    1  A    between atoms: C_1  and  C_2
REMARK    2  A    between atoms: C_3  and  C_7
REMARK    3  A    between atoms: C_10  and  S_13
REMARK    4  A    between atoms: N_11  and  N_12
REMARK    5  A    between atoms: S_13  and  C_14
REMARK    6  A    between atoms: C_14  and  C_15
REMARK    7  A    between atoms: C_18  and  C_28
REMARK    8  A    between atoms: C_21  and  C_23
REMARK                            x       y       z     vdW  Elec       q    Type
REMARK                         _______ _______ _______ _____ _____    ______ ____
ROOT
ATOM      1  C   UNL     1       3.136   2.598  -2.154  0.00  0.00    +0.246 C 
ATOM      2  O   UNL     1       2.255   2.025  -2.760  0.00  0.00    -0.273 OA
ATOM      3  N   UNL     1       3.307   2.370  -0.836  0.00  0.00    -0.181 N 
ATOM      4  C   UNL     1       2.499   1.455  -0.015  0.00  0.00    +0.173 C 
ATOM      5  C   UNL     1       3.119   1.580   1.391  0.00  0.00    +0.090 C 
ATOM      6  C   UNL     1       4.240   2.579   1.208  0.00  0.00    +0.075 C 
ATOM      7  N   UNL     1       4.278   2.962  -0.025  0.00  0.00    -0.180 NA
ENDROOT
BRANCH   6   8
ATOM      8  C   UNL     1       5.143   3.042   2.266  0.00  0.00    +0.035 A 
ATOM      9  C   UNL     1       6.187   3.947   2.189  0.00  0.00    +0.017 A 
ATOM     10  C   UNL     1       6.899   4.223   3.333  0.00  0.00    +0.008 A 
ATOM     11  C   UNL     1       6.558   3.605   4.494  0.00  0.00    +0.046 A 
ATOM     12  S   UNL     1       5.177   2.591   3.994  0.00  0.00    -0.095 S 
ENDBRANCH   6   8
BRANCH   4  13
ATOM     13  C   UNL     1       1.057   1.892   0.002  0.00  0.00    +0.128 A 
ATOM     14  C   UNL     1      -0.013   1.076   0.008  0.00  0.00    +0.046 A 
ATOM     15  C   UNL     1      -1.159   1.903   0.017  0.00  0.00    +0.041 A 
ATOM     16  C   UNL     1      -0.722   3.175   0.026  0.00  0.00    +0.195 A 
ATOM     17  O   UNL     1       0.621   3.162   0.013  0.00  0.00    -0.466 OA
ENDBRANCH   4  13
BRANCH   1  18
ATOM     18  C   UNL     1       4.040   3.565  -2.874  0.00  0.00    +0.175 C 
BRANCH  18  19
ATOM     19  S   UNL     1       3.562   3.654  -4.617  0.00  0.00    -0.075 S 
BRANCH  19  23
ATOM     20  C   UNL     1       5.920   6.166  -6.460  0.00  0.00    +0.185 A 
ATOM     21  N   UNL     1       6.370   6.197  -5.227  0.00  0.00    -0.127 NA
ATOM     22  N   UNL     1       5.677   5.410  -4.486  0.00  0.00    -0.121 NA
ATOM     23  C   UNL     1       4.747   4.819  -5.201  0.00  0.00    +0.209 A 
ATOM     24  N   UNL     1       4.867   5.282  -6.482  0.00  0.00    -0.224 N 
BRANCH  20  27
ATOM     25  C   UNL     1       8.323   8.179  -6.403  0.00  0.00    +0.087 C 
ATOM     26  C   UNL     1       7.488   7.811  -7.602  0.00  0.00    +0.112 A 
ATOM     27  C   UNL     1       6.447   6.935  -7.608  0.00  0.00    +0.061 A 
ATOM     28  C   UNL     1       5.960   6.906  -8.993  0.00  0.00    +0.053 A 
ATOM     29  C   UNL     1       6.736   7.763  -9.677  0.00  0.00    +0.196 A 
ATOM     30  O   UNL     1       7.644   8.293  -8.843  0.00  0.00    -0.467 OA
ENDBRANCH  20  27
BRANCH  24  31
ATOM     31  N   UNL     1       4.100   4.939  -7.559  0.00  0.00    -0.295 N 
ATOM     32  H   UNL     1       3.281   4.214  -7.442  0.00  0.00    +0.163 HD
ATOM     33  H   UNL     1       4.301   5.388  -8.543  0.00  0.00    +0.163 HD
ENDBRANCH  24  31
ENDBRANCH  19  23
ENDBRANCH  18  19
ENDBRANCH   1  18
TORSDOF 7
