REMARK  Name = ZINC20339488
REMARK  5 active torsions:
REMARK  status: ('A' for Active; 'I' for Inactive)
REMARK    1  A    between atoms: C_1  and  C_2
REMARK    2  A    between atoms: C_2  and  C_3
REMARK    3  A    between atoms: C_3  and  N_4
REMARK    4  A    between atoms: C_8  and  N_23
REMARK    5  A    between atoms: C_13  and  C_14
REMARK                            x       y       z     vdW  Elec       q    Type
REMARK                         _______ _______ _______ _____ _____    ______ ____
ROOT
ATOM      1  N   UNL     1       4.085   2.066   0.631  0.00  0.00    -0.262 N 
ATOM      2  C   UNL     1       2.794   1.516   0.616  0.00  0.00    +0.079 A 
ATOM      3  C   UNL     1       1.694   2.324   0.865  0.00  0.00    +0.029 A 
ATOM      4  C   UNL     1       0.422   1.785   0.848  0.00  0.00    +0.025 A 
ATOM      5  C   UNL     1       0.241   0.433   0.582  0.00  0.00    +0.028 A 
ATOM      6  C   UNL     1       1.339  -0.380   0.333  0.00  0.00    +0.071 A 
ATOM      7  C   UNL     1       2.614   0.159   0.350  0.00  0.00    +0.152 A 
ATOM      8  O   UNL     1       3.695  -0.635   0.110  0.00  0.00    -0.449 OA
ATOM      9  C   UNL     1       4.798  -0.007  -0.401  0.00  0.00    +0.191 C 
ATOM     10  C   UNL     1       5.568  -0.591  -1.346  0.00  0.00    +0.059 C 
ATOM     11  C   UNL     1       5.110   1.339   0.125  0.00  0.00    +0.286 C 
ATOM     12  O   UNL     1       6.246   1.776   0.105  0.00  0.00    -0.266 OA
ENDROOT
BRANCH  10  13
ATOM     13  C   UNL     1       6.626   0.182  -2.014  0.00  0.00    -0.021 A 
ATOM     14  C   UNL     1       7.841  -0.428  -2.344  0.00  0.00    +0.009 A 
ATOM     15  C   UNL     1       8.826   0.302  -2.975  0.00  0.00    +0.020 A 
ATOM     16  C   UNL     1       8.619   1.639  -3.272  0.00  0.00    +0.041 A 
ATOM     17  C   UNL     1       7.421   2.251  -2.944  0.00  0.00    +0.020 A 
ATOM     18  C   UNL     1       6.425   1.533  -2.318  0.00  0.00    +0.009 A 
ATOM     19 CL   UNL     1       9.868   2.551  -4.061  0.00  0.00    -0.084 Cl
ENDBRANCH  10  13
BRANCH   5  20
ATOM     20  N   UNL     1      -1.048  -0.109   0.564  0.00  0.00    -0.358 N 
ATOM     21  H   UNL     1      -1.192  -1.179   0.353  0.00  0.00    +0.142 HD
ATOM     22  H   UNL     1      -1.918   0.535   0.761  0.00  0.00    +0.142 HD
ENDBRANCH   5  20
BRANCH   1  23
ATOM     23  C   UNL     1       4.321   3.401   1.185  0.00  0.00    +0.114 C 
BRANCH  23  25
ATOM     24  C   UNL     1       4.880   4.681   3.257  0.00  0.00    +0.005 C 
ATOM     25  C   UNL     1       4.634   3.286   2.678  0.00  0.00    +0.016 C 
ENDBRANCH  23  25
ENDBRANCH   1  23
TORSDOF 4
