REMARK  Name = ZINC38903818
REMARK  12 active torsions:
REMARK  status: ('A' for Active; 'I' for Inactive)
REMARK    1  A    between atoms: C_1  and  C_2
REMARK    2  A    between atoms: C_9  and  C_39
REMARK    3  A    between atoms: C_9  and  C_40
REMARK    4  A    between atoms: C_11  and  N_13
REMARK    5  A    between atoms: C_14  and  C_16
REMARK    6  A    between atoms: N_21  and  C_23
REMARK    7  A    between atoms: C_23  and  C_24
REMARK    8  A    between atoms: C_26  and  C_29
REMARK    9  A    between atoms: C_32  and  C_35
REMARK   10  A    between atoms: C_35  and  C_36
REMARK   11  A    between atoms: C_35  and  C_37
REMARK   12  A    between atoms: C_35  and  C_38
REMARK                            x       y       z     vdW  Elec       q    Type
REMARK                         _______ _______ _______ _____ _____    ______ ____
ROOT
ATOM      1  C   UNL     1      -1.384  -5.317  -3.449  0.00  0.00    +0.058 C 
ATOM      2  C   UNL     1      -1.841  -6.741  -3.120  0.00  0.00    +0.009 C 
ATOM      3  C   UNL     1      -2.739  -7.253  -4.250  0.00  0.00    -0.018 C 
ATOM      4  C   UNL     1      -1.974  -7.180  -5.574  0.00  0.00    -0.078 C 
ATOM      5  N   UNL     1      -1.589  -5.790  -5.845  0.00  0.00    +0.386 N 
ATOM      6  C   UNL     1      -0.670  -5.315  -4.803  0.00  0.00    -0.065 C 
ATOM      7  H   UNL     1      -2.413  -5.208  -5.854  0.00  0.00    -0.081 HD
ENDROOT
BRANCH   1   9
ATOM      8  N   UNL     1      -0.851  -4.753  -1.100  0.00  0.00    -0.308 N 
ATOM      9  C   UNL     1      -0.438  -4.833  -2.381  0.00  0.00    +0.215 C 
ATOM     10  O   UNL     1       0.695  -4.515  -2.673  0.00  0.00    -0.276 OA
ATOM     11  H   UNL     1      -1.758  -5.007  -0.867  0.00  0.00    +0.149 HD
BRANCH   8  22
ATOM     12  C   UNL     1      -0.018   1.503   0.010  0.00  0.00    +0.044 C 
ATOM     13  C   UNL     1       0.002  -0.004   0.002  0.00  0.00    -0.047 A 
ATOM     14  C   UNL     1       0.006  -0.689  -1.199  0.00  0.00    +0.004 A 
ATOM     15  C   UNL     1       0.026  -2.070  -1.206  0.00  0.00    +0.009 A 
ATOM     16  C   UNL     1       0.042  -2.775  -0.014  0.00  0.00    +0.015 A 
ATOM     17  C   UNL     1       0.035  -2.092   1.190  0.00  0.00    +0.126 A 
ATOM     18  C   UNL     1       0.023  -0.701   1.193  0.00  0.00    +0.049 A 
ATOM     19  O   UNL     1       0.038  -2.743   2.382  0.00  0.00    -0.486 OA
ATOM     20  C   UNL     1       0.424  -4.118   2.391  0.00  0.00    +0.107 C 
ATOM     21  C   UNL     1      -0.361  -4.848   1.294  0.00  0.00    +0.074 C 
ATOM     22  C   UNL     1       0.068  -4.282  -0.062  0.00  0.00    +0.110 C 
ATOM     23  C   UNL     1       0.100  -4.735   3.753  0.00  0.00    +0.055 C 
ATOM     24  C   UNL     1       1.924  -4.234   2.116  0.00  0.00    +0.055 C 
ENDBRANCH   8  22
ENDBRANCH   1   9
BRANCH   5  25
ATOM     25  C   UNL     1      -0.924  -5.713  -7.153  0.00  0.00    +0.022 C 
BRANCH  25  26
ATOM     26  C   UNL     1      -1.907  -6.073  -8.237  0.00  0.00    +0.211 A 
ATOM     27  N   UNL     1      -2.680  -5.238  -8.871  0.00  0.00    -0.193 NA
ATOM     28  C   UNL     1      -3.428  -5.898  -9.773  0.00  0.00    +0.202 A 
ATOM     29  N   UNL     1      -3.129  -7.172  -9.714  0.00  0.00    -0.056 NA
ATOM     30  O   UNL     1      -2.128  -7.304  -8.715  0.00  0.00    -0.340 OA
BRANCH  28  31
ATOM     31  C   UNL     1      -4.428  -5.285 -10.684  0.00  0.00    +0.022 A 
ATOM     32  C   UNL     1      -4.652  -3.910 -10.652  0.00  0.00    +0.012 A 
ATOM     33  C   UNL     1      -5.582  -3.346 -11.501  0.00  0.00    +0.005 A 
ATOM     34  C   UNL     1      -6.292  -4.142 -12.381  0.00  0.00    -0.042 A 
ATOM     35  C   UNL     1      -6.074  -5.508 -12.416  0.00  0.00    +0.005 A 
ATOM     36  C   UNL     1      -5.141  -6.082 -11.577  0.00  0.00    +0.012 A 
BRANCH  34  37
ATOM     37  C   UNL     1      -7.308  -3.520 -13.305  0.00  0.00    -0.013 C 
ATOM     38  C   UNL     1      -6.617  -2.495 -14.206  0.00  0.00    +0.015 C 
ATOM     39  C   UNL     1      -7.947  -4.609 -14.168  0.00  0.00    +0.015 C 
ATOM     40  C   UNL     1      -8.390  -2.824 -12.477  0.00  0.00    +0.015 C 
ENDBRANCH  34  37
ENDBRANCH  28  31
ENDBRANCH  25  26
ENDBRANCH   5  25
TORSDOF 6
