REMARK  Name = ZINC01094555
REMARK  6 active torsions:
REMARK  status: ('A' for Active; 'I' for Inactive)
REMARK    1  A    between atoms: C_1  and  C_2
REMARK    2  A    between atoms: C_2  and  O_3
REMARK    3  A    between atoms: O_3  and  C_4
REMARK    4  A    between atoms: C_6  and  C_17
REMARK    5  A    between atoms: C_12  and  C_16
REMARK    6  A    between atoms: C_14  and  C_15
REMARK                            x       y       z     vdW  Elec       q    Type
REMARK                         _______ _______ _______ _____ _____    ______ ____
ROOT
ATOM      1  C   UNL     1      -0.151   1.184   2.375  0.00  0.00    +0.132 A 
ATOM      2  C   UNL     1       0.975   0.410   2.326  0.00  0.00    +0.055 A 
ATOM      3  C   UNL     1       1.748  -0.120   3.371  0.00  0.00    -0.009 A 
ATOM      4  C   UNL     1       1.616  -0.028   4.748  0.00  0.00    +0.060 A 
ATOM      5  C   UNL     1       0.642   0.643   5.504  0.00  0.00    +0.191 A 
ATOM      6  O   UNL     1       0.747   0.572   6.719  0.00  0.00    -0.287 OA
ATOM      7  C   UNL     1      -0.493   1.422   4.984  0.00  0.00    +0.073 A 
ATOM      8  C   UNL     1      -0.845   1.669   3.570  0.00  0.00    +0.068 A 
ATOM      9  C   UNL     1      -1.967   2.432   3.598  0.00  0.00    +0.113 A 
ATOM     10  O   UNL     1      -2.294   2.659   4.878  0.00  0.00    -0.464 OA
ATOM     11  C   UNL     1      -1.431   2.068   5.716  0.00  0.00    +0.114 A 
ATOM     12  C   UNL     1      -1.493   2.114   7.221  0.00  0.00    +0.087 C 
ATOM     13  C   UNL     1      -2.714   2.944   2.394  0.00  0.00    +0.087 C 
ENDROOT
BRANCH   3  14
ATOM     14  C   UNL     1       2.908  -0.916   2.924  0.00  0.00    +0.007 A 
ATOM     15  C   UNL     1       2.898  -1.928   2.015  0.00  0.00    +0.092 A 
ATOM     16  N   UNL     1       4.155  -2.420   1.860  0.00  0.00    -0.360 N 
ATOM     17  H   UNL     1       4.398  -3.144   1.263  0.00  0.00    +0.165 HD
ATOM     18  C   UNL     1       5.037  -1.744   2.678  0.00  0.00    +0.047 A 
ATOM     19  C   UNL     1       4.301  -0.775   3.380  0.00  0.00    +0.007 A 
ATOM     20  C   UNL     1       4.941   0.064   4.290  0.00  0.00    +0.010 A 
ATOM     21  C   UNL     1       6.298  -0.062   4.496  0.00  0.00    +0.001 A 
ATOM     22  C   UNL     1       7.025  -1.019   3.804  0.00  0.00    +0.002 A 
ATOM     23  C   UNL     1       6.405  -1.856   2.901  0.00  0.00    +0.026 A 
ENDBRANCH   3  14
BRANCH   1  24
ATOM     24  O   UNL     1      -0.682   1.547   1.184  0.00  0.00    -0.491 OA
BRANCH  24  26
ATOM     25  C   UNL     1      -0.753   1.593  -1.232  0.00  0.00    +0.048 C 
ATOM     26  C   UNL     1      -0.013   1.086   0.008  0.00  0.00    +0.226 C 
ENDBRANCH  24  26
ENDBRANCH   1  24
TORSDOF 3
