REMARK  Name = ZINC09323903
REMARK  4 active torsions:
REMARK  status: ('A' for Active; 'I' for Inactive)
REMARK    1  A    between atoms: C_1  and  C_2
REMARK    2  A    between atoms: C_7  and  N_8
REMARK    3  A    between atoms: C_9  and  C_10
REMARK    4  A    between atoms: N_17  and  C_20
REMARK                            x       y       z     vdW  Elec       q    Type
REMARK                         _______ _______ _______ _____ _____    ______ ____
ROOT
ATOM      1  C   UNL     1       4.824   1.094  -0.133  0.00  0.00    +0.203 C 
ATOM      2  C   UNL     1       4.638  -0.401   0.042  0.00  0.00    +0.238 C 
ATOM      3  O   UNL     1       5.589  -1.152   0.090  0.00  0.00    -0.274 OA
ATOM      4  N   UNL     1       3.374  -0.865   0.142  0.00  0.00    -0.238 N 
ATOM      5  C   UNL     1       2.315  -0.050   0.096  0.00  0.00    +0.319 C 
ATOM      6  O   UNL     1       1.213  -0.551   0.199  0.00  0.00    -0.251 OA
ATOM      7  N   UNL     1       2.379   1.278  -0.060  0.00  0.00    -0.193 N 
ATOM      8  C   UNL     1       3.557   1.927  -0.178  0.00  0.00    +0.245 C 
ATOM      9  O   UNL     1       3.600   3.131  -0.314  0.00  0.00    -0.274 OA
ATOM     10  H   UNL     1       3.230  -1.818   0.255  0.00  0.00    +0.159 HD
ENDROOT
BRANCH   7  11
ATOM     11  C   UNL     1       1.188   2.017  -0.098  0.00  0.00    +0.046 A 
ATOM     12  C   UNL     1       0.573   2.284  -1.314  0.00  0.00    +0.027 A 
ATOM     13  C   UNL     1      -0.597   3.017  -1.349  0.00  0.00    +0.040 A 
ATOM     14  C   UNL     1      -1.163   3.476  -0.172  0.00  0.00    +0.124 A 
ATOM     15  C   UNL     1      -0.552   3.211   1.042  0.00  0.00    +0.040 A 
ATOM     16  C   UNL     1       0.622   2.483   1.081  0.00  0.00    +0.027 A 
ATOM     17  F   UNL     1      -2.311   4.188  -0.208  0.00  0.00    -0.205 F 
ENDBRANCH   7  11
BRANCH   1  19
ATOM     18  N   UNL     1       6.860   2.054   0.772  0.00  0.00    -0.258 NA
ATOM     19  C   UNL     1       5.675   1.597   1.005  0.00  0.00    +0.106 C 
BRANCH  18  26
ATOM     20  C   UNL     1       8.142   4.587   0.648  0.00  0.00    +0.046 C 
ATOM     21  C   UNL     1       8.330   3.642   1.807  0.00  0.00    -0.024 A 
ATOM     22  C   UNL     1       9.149   3.994   2.860  0.00  0.00    +0.020 A 
ATOM     23  C   UNL     1       9.322   3.127   3.925  0.00  0.00    +0.018 A 
ATOM     24  C   UNL     1       8.676   1.903   3.941  0.00  0.00    +0.017 A 
ATOM     25  C   UNL     1       7.851   1.542   2.896  0.00  0.00    +0.029 A 
ATOM     26  C   UNL     1       7.676   2.409   1.817  0.00  0.00    +0.066 A 
ATOM     27 BR   UNL     1      10.446   3.617   5.365  0.00  0.00    -0.050 Br
ENDBRANCH  18  26
ENDBRANCH   1  19
TORSDOF 3
