REMARK  Name = ZINC08773274
REMARK  5 active torsions:
REMARK  status: ('A' for Active; 'I' for Inactive)
REMARK    1  A    between atoms: C_10  and  C_11
REMARK    2  A    between atoms: C_18  and  N_32
REMARK    3  A    between atoms: C_19  and  C_30
REMARK    4  A    between atoms: C_20  and  C_22
REMARK    5  A    between atoms: C_27  and  O_28
REMARK                            x       y       z     vdW  Elec       q    Type
REMARK                         _______ _______ _______ _____ _____    ______ ____
ROOT
ATOM      1  C   UNL     1       4.956   0.144  -0.040  0.00  0.00    +0.101 A 
ATOM      2  C   UNL     1       6.239  -0.408   0.036  0.00  0.00    +0.054 A 
ATOM      3  C   UNL     1       7.142   0.614  -0.004  0.00  0.00    +0.223 A 
ATOM      4  N   UNL     1       6.451   1.769  -0.100  0.00  0.00    -0.246 N 
ATOM      5  H   UNL     1       6.833   2.659  -0.146  0.00  0.00    +0.192 HD
ATOM      6  N   UNL     1       5.084   1.456  -0.127  0.00  0.00    -0.171 NA
ATOM      7  O   UNL     1       8.482   0.409   0.048  0.00  0.00    -0.423 OA
ATOM      8  C   UNL     1       8.929  -0.850  -0.136  0.00  0.00    +0.200 C 
ATOM      9  C   UNL     1       8.134  -1.942  -0.105  0.00  0.00    +0.098 C 
ATOM     10  C   UNL     1       6.649  -1.854   0.146  0.00  0.00    +0.105 C 
ENDROOT
BRANCH   1  20
ATOM     11  C   UNL     1       0.524   0.516   2.483  0.00  0.00    +0.001 A 
ATOM     12  C   UNL     1       1.715   1.239   2.491  0.00  0.00    +0.001 A 
ATOM     13  C   UNL     1       2.752   0.889   1.681  0.00  0.00    +0.009 A 
ATOM     14  C   UNL     1       2.623  -0.215   0.825  0.00  0.00    -0.009 A 
ATOM     15  C   UNL     1       1.413  -0.951   0.815  0.00  0.00    -0.017 A 
ATOM     16  C   UNL     1       0.364  -0.560   1.665  0.00  0.00    +0.008 A 
ATOM     17  C   UNL     1       1.283  -2.058  -0.041  0.00  0.00    +0.008 A 
ATOM     18  C   UNL     1       2.315  -2.417  -0.854  0.00  0.00    +0.001 A 
ATOM     19  C   UNL     1       3.509  -1.705  -0.857  0.00  0.00    +0.011 A 
ATOM     20  C   UNL     1       3.680  -0.609  -0.030  0.00  0.00    +0.010 A 
ENDBRANCH   1  20
BRANCH  10  21
ATOM     21  C   UNL     1       6.335  -2.369   1.527  0.00  0.00    +0.008 A 
ATOM     22  C   UNL     1       6.821  -1.708   2.638  0.00  0.00    +0.023 A 
ATOM     23  C   UNL     1       6.533  -2.180   3.906  0.00  0.00    +0.018 A 
ATOM     24  C   UNL     1       5.757  -3.315   4.064  0.00  0.00    +0.019 A 
ATOM     25  C   UNL     1       5.268  -3.978   2.955  0.00  0.00    +0.047 A 
ATOM     26  C   UNL     1       5.551  -3.503   1.683  0.00  0.00    +0.121 A 
ATOM     27 BR   UNL     1       7.201  -1.274   5.425  0.00  0.00    -0.050 Br
BRANCH  26  28
ATOM     28  O   UNL     1       5.067  -4.152   0.591  0.00  0.00    -0.506 OA
ATOM     29  H   UNL     1       5.652  -4.843   0.253  0.00  0.00    +0.292 HD
ENDBRANCH  26  28
ENDBRANCH  10  21
BRANCH   8  30
ATOM     30  N   UNL     1      10.270  -1.033  -0.367  0.00  0.00    -0.328 N 
ATOM     31  H   UNL     1      10.866  -0.268  -0.395  0.00  0.00    +0.145 HD
ATOM     32  H   UNL     1      10.621  -1.927  -0.503  0.00  0.00    +0.145 HD
ENDBRANCH   8  30
BRANCH   9  33
ATOM     33  C   UNL     1       8.722  -3.231  -0.318  0.00  0.00    +0.101 C 
ATOM     34  N   UNL     1       9.189  -4.252  -0.487  0.00  0.00    -0.191 NA
ENDBRANCH   9  33
TORSDOF 5
