REMARK  Name = ZINC19159491
REMARK  5 active torsions:
REMARK  status: ('A' for Active; 'I' for Inactive)
REMARK    1  A    between atoms: C_1  and  O_2
REMARK    2  A    between atoms: O_2  and  C_3
REMARK    3  A    between atoms: C_6  and  N_25
REMARK    4  A    between atoms: C_8  and  N_9
REMARK    5  A    between atoms: C_10  and  C_12
REMARK                            x       y       z     vdW  Elec       q    Type
REMARK                         _______ _______ _______ _____ _____    ______ ____
ROOT
ATOM      1  N   UNL     1      -1.156  -0.694   0.009  0.00  0.00    -0.282 N 
ATOM      2  C   UNL     1       0.003  -0.005   0.009  0.00  0.00    +0.224 C 
ATOM      3  O   UNL     1       1.061  -0.597  -0.007  0.00  0.00    -0.275 OA
ATOM      4  H   UNL     1      -2.000  -0.223   0.088  0.00  0.00    +0.155 HD
ENDROOT
BRANCH   2   5
ATOM      5  C   UNL     1      -0.017   1.502   0.030  0.00  0.00    +0.049 C 
ATOM      6  C   UNL     1      -0.755   2.020  -1.206  0.00  0.00    +0.019 C 
ATOM      7  C   UNL     1      -0.775   3.549  -1.185  0.00  0.00    -0.008 C 
ATOM      8  C   UNL     1      -1.493   4.033   0.077  0.00  0.00    +0.007 C 
ATOM      9  C   UNL     1      -0.755   3.515   1.313  0.00  0.00    -0.008 C 
ATOM     10  C   UNL     1      -0.735   1.985   1.292  0.00  0.00    +0.019 C 
ATOM     11  C   UNL     1       0.681   4.044   1.309  0.00  0.00    +0.026 C 
ATOM     12  C   UNL     1       1.399   3.561   0.047  0.00  0.00    +0.047 C 
ATOM     13  C   UNL     1       0.661   4.078  -1.189  0.00  0.00    +0.026 C 
ATOM     14  C   UNL     1       1.419   2.031   0.026  0.00  0.00    +0.039 C 
ATOM     15 CL   UNL     1       3.090   4.184   0.042  0.00  0.00    -0.118 Cl
ENDBRANCH   2   5
BRANCH   1  21
ATOM     16  C   UNL     1      -2.159  -2.747  -0.791  0.00  0.00    +0.141 A 
ATOM     17  C   UNL     1      -2.135  -4.127  -0.906  0.00  0.00    +0.050 A 
ATOM     18  C   UNL     1      -1.108  -4.851  -0.328  0.00  0.00    +0.036 A 
ATOM     19  C   UNL     1      -0.100  -4.201   0.359  0.00  0.00    +0.128 A 
ATOM     20  C   UNL     1      -0.114  -2.824   0.473  0.00  0.00    +0.059 A 
ATOM     21  C   UNL     1      -1.140  -2.090  -0.104  0.00  0.00    +0.078 A 
BRANCH  19  22
ATOM     22  N   UNL     1       0.996  -4.982   0.976  0.00  0.00    +0.056 N 
ATOM     23  O   UNL     1       1.885  -4.410   1.581  0.00  0.00    -0.126 OA
ATOM     24  O   UNL     1       1.009  -6.196   0.877  0.00  0.00    -0.126 OA
ENDBRANCH  19  22
BRANCH  16  26
ATOM     25  C   UNL     1      -4.180  -2.773  -2.043  0.00  0.00    +0.277 C 
ATOM     26  O   UNL     1      -3.171  -2.034  -1.354  0.00  0.00    -0.493 OA
ENDBRANCH  16  26
ENDBRANCH   1  21
TORSDOF 4
