REMARK  Name = ZINC38576503
REMARK  2 active torsions:
REMARK  status: ('A' for Active; 'I' for Inactive)
REMARK    1  A    between atoms: C_1  and  C_2
REMARK    2  A    between atoms: C_4  and  C_24
REMARK                            x       y       z     vdW  Elec       q    Type
REMARK                         _______ _______ _______ _____ _____    ______ ____
ROOT
ATOM      1  C   UNL     1      -0.130   1.548   0.697  0.00  0.00    +0.062 C 
ATOM      2  C   UNL     1      -0.071   0.043   0.657  0.00  0.00    +0.022 C 
ATOM      3  C   UNL     1      -1.103  -0.727   0.460  0.00  0.00    -0.004 C 
ATOM      4  C   UNL     1      -2.525  -0.387   0.080  0.00  0.00    +0.060 C 
ATOM      5  C   UNL     1      -2.781  -1.062  -1.276  0.00  0.00    +0.108 C 
ATOM      6  C   UNL     1      -2.131  -2.405  -1.359  0.00  0.00    +0.216 C 
ATOM      7  O   UNL     1      -2.569  -3.163  -2.199  0.00  0.00    -0.276 OA
ATOM      8  N   UNL     1      -1.125  -2.867  -0.615  0.00  0.00    -0.292 N 
ATOM      9  C   UNL     1      -0.636  -2.169   0.567  0.00  0.00    +0.210 C 
ATOM     10  N   UNL     1       0.824  -2.064   0.614  0.00  0.00    -0.213 N 
ATOM     11  N   UNL     1       1.090  -0.698   0.820  0.00  0.00    -0.265 N 
ATOM     12  C   UNL     1       1.721  -3.062   0.483  0.00  0.00    +0.150 C 
ATOM     13  N   UNL     1       1.336  -4.309   0.282  0.00  0.00    -0.221 NA
ATOM     14  C   UNL     1       2.172  -5.339   0.210  0.00  0.00    +0.225 C 
ATOM     15  N   UNL     1       3.425  -5.272   0.644  0.00  0.00    -0.218 NA
ATOM     16  C   UNL     1       3.821  -4.086   1.096  0.00  0.00    +0.164 C 
ATOM     17  N   UNL     1       4.657  -3.695   2.011  0.00  0.00    -0.219 NA
ATOM     18  C   UNL     1       4.449  -2.415   2.345  0.00  0.00    +0.218 C 
ATOM     19  N   UNL     1       3.585  -1.817   1.572  0.00  0.00    -0.253 NA
ATOM     20  C   UNL     1       3.201  -2.796   0.554  0.00  0.00    +0.239 C 
ATOM     21  H   UNL     1      -0.702  -3.702  -0.872  0.00  0.00    +0.151 HD
ATOM     22  H   UNL     1       1.958  -0.329   1.044  0.00  0.00    +0.170 HD
ENDROOT
BRANCH   4  23
ATOM     23  C   UNL     1      -2.684   1.106  -0.045  0.00  0.00    -0.026 A 
ATOM     24  C   UNL     1      -2.264   1.753  -1.192  0.00  0.00    +0.005 A 
ATOM     25  C   UNL     1      -2.411   3.123  -1.306  0.00  0.00    +0.000 A 
ATOM     26  C   UNL     1      -2.977   3.846  -0.273  0.00  0.00    +0.001 A 
ATOM     27  C   UNL     1      -3.397   3.200   0.874  0.00  0.00    +0.015 A 
ATOM     28  C   UNL     1      -3.256   1.829   0.987  0.00  0.00    +0.022 A 
ATOM     29 BR   UNL     1      -3.837   0.944   2.554  0.00  0.00    -0.050 Br
ENDBRANCH   4  23
TORSDOF 1
