REMARK  Name = ZINC28566955
REMARK  3 active torsions:
REMARK  status: ('A' for Active; 'I' for Inactive)
REMARK    1  A    between atoms: C_4  and  N_7
REMARK    2  A    between atoms: N_15  and  C_18
REMARK    3  A    between atoms: C_24  and  C_26
REMARK                            x       y       z     vdW  Elec       q    Type
REMARK                         _______ _______ _______ _____ _____    ______ ____
ROOT
ATOM      1  N   UNL     1       2.201   6.509   4.349  0.00  0.00    -0.300 N 
ATOM      2  C   UNL     1       1.657   7.480   5.327  0.00  0.00    +0.214 C 
ATOM      3  N   UNL     1       0.494   6.830   5.945  0.00  0.00    -0.298 N 
ATOM      4  C   UNL     1       0.096   5.792   5.179  0.00  0.00    +0.238 C 
ATOM      5  O   UNL     1      -0.844   5.061   5.409  0.00  0.00    -0.273 OA
ATOM      6  C   UNL     1       1.019   5.698   3.990  0.00  0.00    +0.109 C 
ATOM      7  C   UNL     1       0.346   6.273   2.746  0.00  0.00    +0.017 C 
ATOM      8  C   UNL     1      -0.850   5.395   2.366  0.00  0.00    -0.076 C 
ATOM      9  N   UNL     1      -0.391   4.021   2.125  0.00  0.00    +0.382 N 
ATOM     10  C   UNL     1       0.199   3.436   3.335  0.00  0.00    -0.076 C 
ATOM     11  C   UNL     1       1.430   4.248   3.747  0.00  0.00    +0.017 C 
ATOM     12  H   UNL     1       0.090   7.213   6.894  0.00  0.00    +0.150 HD
ATOM     13  H   UNL     1       0.395   4.062   1.356  0.00  0.00    -0.081 HD
ENDROOT
BRANCH   1  17
ATOM     14  C   UNL     1       3.744   8.460   1.010  0.00  0.00    +0.000 A 
ATOM     15  C   UNL     1       3.342   9.192   2.112  0.00  0.00    +0.002 A 
ATOM     16  C   UNL     1       2.830   8.548   3.221  0.00  0.00    +0.023 A 
ATOM     17  C   UNL     1       2.718   7.163   3.228  0.00  0.00    +0.032 A 
ATOM     18  C   UNL     1       3.128   6.430   2.122  0.00  0.00    +0.023 A 
ATOM     19  C   UNL     1       3.635   7.081   1.014  0.00  0.00    +0.002 A 
ENDBRANCH   1  17
BRANCH   9  20
ATOM     20  C   UNL     1      -1.484   3.184   1.613  0.00  0.00    -0.060 C 
ATOM     21  C   UNL     1      -2.423   4.036   0.758  0.00  0.00    -0.015 C 
ATOM     22  C   UNL     1      -1.643   4.631  -0.417  0.00  0.00    -0.002 C 
ATOM     23  C   UNL     1      -1.063   3.499  -1.269  0.00  0.00    +0.001 C 
ATOM     24  C   UNL     1      -0.125   2.647  -0.413  0.00  0.00    +0.008 C 
ATOM     25  C   UNL     1      -0.904   2.053   0.762  0.00  0.00    +0.024 C 
BRANCH  25  26
ATOM     26  C   UNL     1       0.021   1.213   1.605  0.00  0.00    +0.043 A 
ATOM     27  C   UNL     1       1.384   1.271   1.389  0.00  0.00    +0.023 A 
ATOM     28  C   UNL     1       2.226   0.495   2.170  0.00  0.00    +0.003 A 
ATOM     29  C   UNL     1       1.662  -0.315   3.144  0.00  0.00    +0.020 A 
ATOM     30  C   UNL     1       0.290  -0.321   3.302  0.00  0.00    +0.111 A 
ATOM     31  N   UNL     1      -0.480   0.434   2.544  0.00  0.00    -0.260 NA
ENDBRANCH  25  26
ENDBRANCH   9  20
TORSDOF 3
