REMARK  Name = ZINC59390996
REMARK  7 active torsions:
REMARK  status: ('A' for Active; 'I' for Inactive)
REMARK    1  A    between atoms: C_5  and  C_8
REMARK    2  A    between atoms: C_5  and  N_10
REMARK    3  A    between atoms: C_11  and  C_13
REMARK    4  A    between atoms: C_13  and  N_14
REMARK    5  A    between atoms: N_14  and  C_15
REMARK    6  A    between atoms: N_14  and  C_22
REMARK    7  A    between atoms: C_15  and  C_16
REMARK                            x       y       z     vdW  Elec       q    Type
REMARK                         _______ _______ _______ _____ _____    ______ ____
ROOT
ATOM      1  N   UNL     1       1.081  -1.259  -3.360  0.00  0.00    -0.299 N 
ATOM      2  C   UNL     1       1.408  -2.529  -3.052  0.00  0.00    +0.198 C 
ATOM      3  O   UNL     1       0.962  -3.044  -2.048  0.00  0.00    -0.278 OA
ATOM      4  H   UNL     1       1.438  -0.848  -4.163  0.00  0.00    +0.150 HD
ENDROOT
BRANCH   1   9
ATOM      5  C   UNL     1      -2.283   0.711  -1.251  0.00  0.00    +0.000 C 
ATOM      6  C   UNL     1      -1.072   1.470  -0.780  0.00  0.00    +0.000 C 
ATOM      7  C   UNL     1      -0.185   1.947  -1.945  0.00  0.00    +0.003 C 
ATOM      8  C   UNL     1      -0.020   0.881  -3.046  0.00  0.00    +0.041 C 
ATOM      9  C   UNL     1       0.186  -0.499  -2.484  0.00  0.00    +0.121 C 
ATOM     10  C   UNL     1      -1.183  -1.206  -2.404  0.00  0.00    +0.041 C 
ATOM     11  C   UNL     1      -1.951  -0.796  -1.237  0.00  0.00    +0.003 C 
BRANCH   9  12
ATOM     12  C   UNL     1       0.772  -0.403  -1.137  0.00  0.00    +0.088 C 
ATOM     13  N   UNL     1       1.224  -0.328  -0.097  0.00  0.00    -0.194 NA
ENDBRANCH   9  12
ENDBRANCH   1   9
BRANCH   2  14
ATOM     14  C   UNL     1       2.329  -3.311  -3.953  0.00  0.00    +0.019 C 
BRANCH  14  15
ATOM     15  N   UNL     1       2.642  -4.604  -3.332  0.00  0.00    +0.387 N 
ATOM     16  H   UNL     1       1.784  -5.064  -3.063  0.00  0.00    -0.081 HD
BRANCH  15  17
ATOM     17  C   UNL     1       3.475  -4.387  -2.141  0.00  0.00    -0.068 C 
ATOM     18  C   UNL     1       3.788  -2.941  -1.753  0.00  0.00    -0.017 C 
ATOM     19  C   UNL     1       4.881  -3.825  -2.357  0.00  0.00    -0.017 C 
ENDBRANCH  15  17
BRANCH  15  20
ATOM     20  C   UNL     1       3.369  -5.446  -4.291  0.00  0.00    -0.074 C 
BRANCH  20  21
ATOM     21  C   UNL     1       3.574  -6.840  -3.695  0.00  0.00    -0.028 C 
ATOM     22  C   UNL     1       4.447  -7.673  -4.634  0.00  0.00    +0.002 C 
ATOM     23  C   UNL     1       4.652  -9.067  -4.037  0.00  0.00    +0.000 C 
ATOM     24  C   UNL     1       3.295  -9.751  -3.861  0.00  0.00    +0.000 C 
ATOM     25  C   UNL     1       2.421  -8.918  -2.922  0.00  0.00    +0.000 C 
ATOM     26  C   UNL     1       2.216  -7.524  -3.519  0.00  0.00    +0.002 C 
ENDBRANCH  20  21
ENDBRANCH  15  20
ENDBRANCH  14  15
ENDBRANCH   2  14
TORSDOF 7
