REMARK  Name = ZINC24882659
REMARK  7 active torsions:
REMARK  status: ('A' for Active; 'I' for Inactive)
REMARK    1  A    between atoms: C_1  and  C_2
REMARK    2  A    between atoms: C_2  and  C_26
REMARK    3  A    between atoms: N_5  and  N_9
REMARK    4  A    between atoms: C_10  and  C_12
REMARK    5  A    between atoms: C_12  and  S_13
REMARK    6  A    between atoms: S_13  and  C_14
REMARK    7  A    between atoms: N_18  and  C_19
REMARK                            x       y       z     vdW  Elec       q    Type
REMARK                         _______ _______ _______ _____ _____    ______ ____
ROOT
ATOM      1  N   UNL     1       2.826   8.623  -4.492  0.00  0.00    -0.223 N 
ATOM      2  C   UNL     1       2.172   7.621  -3.872  0.00  0.00    +0.240 C 
ATOM      3  O   UNL     1       1.054   7.314  -4.229  0.00  0.00    -0.273 OA
ATOM      4  H   UNL     1       3.840   8.902  -4.169  0.00  0.00    +0.174 HD
ENDROOT
BRANCH   1   9
ATOM      5  C   UNL     1       1.870  12.098  -7.411  0.00  0.00    +0.047 C 
ATOM      6  C   UNL     1       1.153  10.882  -6.823  0.00  0.00    +0.137 C 
ATOM      7  C   UNL     1       1.701  10.552  -5.448  0.00  0.00    +0.267 C 
ATOM      8  O   UNL     1       1.681  11.258  -4.463  0.00  0.00    -0.271 OA
ATOM      9  N   UNL     1       2.214   9.310  -5.549  0.00  0.00    -0.137 N 
ATOM     10  C   UNL     1       2.072   8.816  -6.785  0.00  0.00    +0.327 C 
ATOM     11  O   UNL     1       2.460   7.715  -7.120  0.00  0.00    -0.251 OA
ATOM     12  N   UNL     1       1.448   9.674  -7.612  0.00  0.00    -0.280 N 
ATOM     13  H   UNL     1       1.155   9.623  -8.671  0.00  0.00    +0.152 HD
BRANCH   6  14
ATOM     14  C   UNL     1      -0.334  11.122  -6.757  0.00  0.00    -0.015 A 
ATOM     15  C   UNL     1      -0.901  11.629  -5.603  0.00  0.00    +0.006 A 
ATOM     16  C   UNL     1      -2.264  11.854  -5.545  0.00  0.00    +0.000 A 
ATOM     17  C   UNL     1      -3.060  11.562  -6.636  0.00  0.00    +0.000 A 
ATOM     18  C   UNL     1      -2.493  11.049  -7.788  0.00  0.00    +0.000 A 
ATOM     19  C   UNL     1      -1.130  10.829  -7.848  0.00  0.00    +0.006 A 
ENDBRANCH   6  14
ENDBRANCH   1   9
BRANCH   2  20
ATOM     20  C   UNL     1       2.830   6.882  -2.736  0.00  0.00    +0.174 C 
BRANCH  20  21
ATOM     21  S   UNL     1       1.708   5.604  -2.117  0.00  0.00    -0.076 S 
BRANCH  21  22
ATOM     22  C   UNL     1       2.702   4.918  -0.834  0.00  0.00    +0.196 A 
ATOM     23  N   UNL     1       3.913   5.299  -0.496  0.00  0.00    -0.122 NA
ATOM     24  N   UNL     1       4.341   4.582   0.481  0.00  0.00    -0.137 NA
ATOM     25  C   UNL     1       3.436   3.711   0.828  0.00  0.00    +0.230 A 
ATOM     26  N   UNL     1       2.360   3.889  -0.001  0.00  0.00    -0.277 N 
BRANCH  26  27
ATOM     27  C   UNL     1       1.156   3.170   0.008  0.00  0.00    +0.051 A 
ATOM     28  C   UNL     1       1.175   1.782   0.000  0.00  0.00    +0.026 A 
ATOM     29  C   UNL     1      -0.013   1.076   0.008  0.00  0.00    +0.003 A 
ATOM     30  C   UNL     1      -1.220   1.750   0.017  0.00  0.00    +0.020 A 
ATOM     31  C   UNL     1      -1.242   3.134   0.030  0.00  0.00    +0.043 A 
ATOM     32  C   UNL     1      -0.057   3.845   0.022  0.00  0.00    +0.046 A 
ATOM     33 CL   UNL     1      -2.760   3.976   0.048  0.00  0.00    -0.083 Cl
ENDBRANCH  26  27
ENDBRANCH  21  22
ENDBRANCH  20  21
ENDBRANCH   2  20
TORSDOF 6
