REMARK  Name = ZINC63361778
REMARK  2 active torsions:
REMARK  status: ('A' for Active; 'I' for Inactive)
REMARK    1  A    between atoms: C_10  and  N_11
REMARK    2  A    between atoms: C_14  and  C_20
REMARK                            x       y       z     vdW  Elec       q    Type
REMARK                         _______ _______ _______ _____ _____    ______ ____
ROOT
ATOM      1  N   UNL     1       4.840   0.157  -0.044  0.00  0.00    -0.256 N 
ATOM      2  C   UNL     1       5.428   0.490   1.122  0.00  0.00    +0.268 A 
ATOM      3  O   UNL     1       4.888   0.220   2.181  0.00  0.00    -0.267 OA
ATOM      4  C   UNL     1       6.668   1.152   1.109  0.00  0.00    +0.101 A 
ATOM      5  C   UNL     1       7.251   1.443  -0.089  0.00  0.00    +0.261 A 
ATOM      6  N   UNL     1       6.618   1.085  -1.252  0.00  0.00    -0.302 N 
ATOM      7  C   UNL     1       5.434   0.448  -1.216  0.00  0.00    +0.168 A 
ATOM      8  S   UNL     1       4.669   0.006  -2.682  0.00  0.00    -0.012 S 
ATOM      9  O   UNL     1       8.442   2.078  -0.130  0.00  0.00    -0.267 OA
ATOM     10  H   UNL     1       7.029   1.290  -2.107  0.00  0.00    +0.171 HD
ENDROOT
BRANCH   4  11
ATOM     11  C   UNL     1       7.343   1.535   2.400  0.00  0.00    +0.121 C 
ATOM     12  C   UNL     1       8.752   0.939   2.442  0.00  0.00    +0.128 C 
ATOM     13  C   UNL     1       9.543   1.635   1.341  0.00  0.00    -0.035 C 
ATOM     14  C   UNL     1      10.052   0.676   0.581  0.00  0.00    -0.001 A 
ATOM     15  C   UNL     1      10.966   0.718  -0.572  0.00  0.00    +0.010 A 
ATOM     16  C   UNL     1      11.278  -0.480  -1.134  0.00  0.00    +0.001 A 
ATOM     17  C   UNL     1      10.779  -1.701  -0.670  0.00  0.00    +0.002 A 
ATOM     18  C   UNL     1       9.939  -1.834   0.387  0.00  0.00    +0.026 A 
ATOM     19  C   UNL     1       9.543  -0.644   1.065  0.00  0.00    +0.043 A 
ATOM     20  N   UNL     1       8.769  -0.488   2.122  0.00  0.00    -0.376 N 
ATOM     21  C   UNL     1       9.563   3.139   1.210  0.00  0.00    +0.048 C 
ATOM     22  C   UNL     1       8.097   3.599   1.309  0.00  0.00    +0.086 C 
ATOM     23  N   UNL     1       7.458   3.000   2.485  0.00  0.00    -0.307 NA
ATOM     24  H   UNL     1       6.559   3.423   2.664  0.00  0.00    +0.123 HD
ATOM     25  H   UNL     1       8.292  -1.183   2.601  0.00  0.00    +0.160 HD
ENDBRANCH   4  11
BRANCH   1  35
ATOM     26  C   UNL     1       0.017   1.647  -0.094  0.00  0.00    +0.001 A 
ATOM     27  C   UNL     1       1.235   2.323  -0.102  0.00  0.00    +0.001 A 
ATOM     28  C   UNL     1       2.414   1.642  -0.084  0.00  0.00    +0.010 A 
ATOM     29  C   UNL     1       2.405   0.238  -0.056  0.00  0.00    +0.006 A 
ATOM     30  C   UNL     1       1.167  -0.450  -0.048  0.00  0.00    -0.016 A 
ATOM     31  C   UNL     1      -0.030   0.287  -0.068  0.00  0.00    +0.008 A 
ATOM     32  C   UNL     1       1.156  -1.855  -0.020  0.00  0.00    +0.008 A 
ATOM     33  C   UNL     1       2.331  -2.543  -0.001  0.00  0.00    +0.003 A 
ATOM     34  C   UNL     1       3.554  -1.878  -0.009  0.00  0.00    +0.027 A 
ATOM     35  C   UNL     1       3.607  -0.501  -0.036  0.00  0.00    +0.060 A 
ENDBRANCH   1  35
TORSDOF 2
