REMARK  Name = ZINC06428145
REMARK  11 active torsions:
REMARK  status: ('A' for Active; 'I' for Inactive)
REMARK    1  A    between atoms: C_1  and  C_2
REMARK    2  A    between atoms: C_5  and  N_9
REMARK    3  A    between atoms: C_7  and  C_8
REMARK    4  A    between atoms: C_12  and  C_13
REMARK    5  A    between atoms: N_14  and  C_15
REMARK    6  A    between atoms: C_15  and  C_16
REMARK    7  A    between atoms: C_16  and  C_17
REMARK    8  A    between atoms: C_17  and  N_49
REMARK    9  A    between atoms: C_18  and  N_49
REMARK   10  A    between atoms: C_19  and  N_49
REMARK   11  A    between atoms: C_20  and  O_24
REMARK                            x       y       z     vdW  Elec       q    Type
REMARK                         _______ _______ _______ _____ _____    ______ ____
ROOT
ATOM      1  N   UNL     1       2.005  -0.049  -5.872  0.00  0.00    -0.192 N 
ATOM      2  C   UNL     1       1.394   0.281  -4.714  0.00  0.00    +0.245 C 
ATOM      3  O   UNL     1       1.833  -0.094  -3.642  0.00  0.00    -0.274 OA
ATOM      4  C   UNL     1       0.178   1.110  -4.790  0.00  0.00    +0.199 C 
ATOM      5  C   UNL     1      -0.275   1.509  -6.130  0.00  0.00    +0.198 C 
ATOM      6  N   UNL     1       0.430   1.115  -7.178  0.00  0.00    -0.131 NA
ATOM      7  C   UNL     1       1.522   0.365  -7.052  0.00  0.00    +0.339 C 
ATOM      8  O   UNL     1       2.114   0.037  -8.065  0.00  0.00    -0.250 OA
ENDROOT
BRANCH   1  13
ATOM      9  C   UNL     1       6.697  -3.239  -5.744  0.00  0.00    +0.044 C 
ATOM     10  C   UNL     1       5.451  -2.391  -5.777  0.00  0.00    -0.047 A 
ATOM     11  C   UNL     1       4.240  -2.929  -5.381  0.00  0.00    +0.005 A 
ATOM     12  C   UNL     1       3.097  -2.155  -5.411  0.00  0.00    +0.024 A 
ATOM     13  C   UNL     1       3.164  -0.836  -5.840  0.00  0.00    +0.046 A 
ATOM     14  C   UNL     1       4.380  -0.301  -6.242  0.00  0.00    +0.027 A 
ATOM     15  C   UNL     1       5.521  -1.078  -6.205  0.00  0.00    -0.046 A 
ATOM     16  C   UNL     1       6.843  -0.497  -6.636  0.00  0.00    +0.044 C 
ENDBRANCH   1  13
BRANCH   4  17
ATOM     17  C   UNL     1      -0.511   1.493  -3.649  0.00  0.00    +0.099 C 
ATOM     18  N   UNL     1      -0.003   1.219  -2.433  0.00  0.00    -0.295 NA
BRANCH  18  19
ATOM     19  C   UNL     1      -0.730   1.624  -1.227  0.00  0.00    +0.139 C 
BRANCH  19  20
ATOM     20  C   UNL     1       0.059   1.196   0.012  0.00  0.00    +0.005 C 
BRANCH  20  21
ATOM     21  C   UNL     1      -0.701   1.618   1.271  0.00  0.00    -0.078 C 
BRANCH  21  24
ATOM     22  C   UNL     1       1.325   1.941   2.556  0.00  0.00    -0.097 C 
ATOM     23  C   UNL     1      -0.745   1.380   3.680  0.00  0.00    -0.097 C 
ATOM     24  N   UNL     1       0.062   1.180   2.458  0.00  0.00    +0.376 N 
ATOM     25  H   UNL     1       0.281   0.181   2.364  0.00  0.00    -0.083 HD
ENDBRANCH  21  24
ENDBRANCH  20  21
ENDBRANCH  19  20
ENDBRANCH  18  19
ENDBRANCH   4  17
BRANCH   5  26
ATOM     26  O   UNL     1      -1.383   2.264  -6.287  0.00  0.00    -0.496 OA
ATOM     27  H   UNL     1      -1.591   2.468  -7.209  0.00  0.00    +0.293 HD
ENDBRANCH   5  26
TORSDOF 7
