REMARK  Name = ZINC47281022
REMARK  11 active torsions:
REMARK  status: ('A' for Active; 'I' for Inactive)
REMARK    1  A    between atoms: C_1  and  C_2
REMARK    2  A    between atoms: C_2  and  N_3
REMARK    3  A    between atoms: C_4  and  C_6
REMARK    4  A    between atoms: C_6  and  N_7
REMARK    5  A    between atoms: N_11  and  S_14
REMARK    6  A    between atoms: S_14  and  C_17
REMARK    7  A    between atoms: C_18  and  C_27
REMARK    8  A    between atoms: C_19  and  C_26
REMARK    9  A    between atoms: C_20  and  C_25
REMARK   10  A    between atoms: C_21  and  C_24
REMARK   11  A    between atoms: C_22  and  C_23
REMARK                            x       y       z     vdW  Elec       q    Type
REMARK                         _______ _______ _______ _____ _____    ______ ____
ROOT
ATOM      1  N   UNL     1       0.716  -3.648   3.146  0.00  0.00    +0.386 N 
ATOM      2  C   UNL     1      -0.636  -4.048   3.528  0.00  0.00    -0.077 C 
ATOM      3  C   UNL     1      -1.005  -5.322   2.799  0.00  0.00    -0.001 C 
ATOM      4  C   UNL     1      -0.668  -6.534   3.686  0.00  0.00    +0.107 C 
ATOM      5  N   UNL     1       0.611  -6.335   4.396  0.00  0.00    -0.178 NA
ATOM      6  C   UNL     1       1.771  -5.750   3.754  0.00  0.00    +0.091 C 
ATOM      7  C   UNL     1       1.747  -4.213   3.929  0.00  0.00    -0.061 C 
ATOM      8  H   UNL     1       0.865  -3.913   2.184  0.00  0.00    -0.081 HD
ENDROOT
BRANCH   5   9
ATOM      9  S   UNL     1       0.725  -6.796   5.982  0.00  0.00    +0.061 S 
ATOM     10  O   UNL     1       1.736  -5.989   6.569  0.00  0.00    -0.153 OA
ATOM     11  O   UNL     1      -0.603  -6.841   6.488  0.00  0.00    -0.153 OA
BRANCH   9  12
ATOM     12  C   UNL     1       1.327  -8.452   6.001  0.00  0.00    +0.112 A 
ATOM     13  C   UNL     1       2.664  -8.698   6.255  0.00  0.00    -0.021 A 
ATOM     14  C   UNL     1       3.136  -9.997   6.270  0.00  0.00    -0.043 A 
ATOM     15  C   UNL     1       2.272 -11.050   6.031  0.00  0.00    -0.044 A 
ATOM     16  C   UNL     1       0.936 -10.804   5.778  0.00  0.00    -0.043 A 
ATOM     17  C   UNL     1       0.463  -9.505   5.768  0.00  0.00    -0.021 A 
ATOM     18  C   UNL     1      -0.996  -9.237   5.497  0.00  0.00    +0.046 C 
ATOM     19  C   UNL     1      -0.005 -11.951   5.518  0.00  0.00    +0.044 C 
ATOM     20  C   UNL     1       2.788 -12.466   6.046  0.00  0.00    +0.044 C 
ATOM     21  C   UNL     1       4.593 -10.266   6.545  0.00  0.00    +0.044 C 
ATOM     22  C   UNL     1       3.605  -7.551   6.515  0.00  0.00    +0.046 C 
ENDBRANCH   9  12
ENDBRANCH   5   9
BRANCH   1  23
ATOM     23  C   UNL     1       0.811  -2.185   3.241  0.00  0.00    +0.019 C 
BRANCH  23  25
ATOM     24  N   UNL     1      -0.295  -0.213   2.239  0.00  0.00    -0.317 N 
ATOM     25  C   UNL     1      -0.200  -1.555   2.318  0.00  0.00    +0.196 C 
ATOM     26  O   UNL     1      -0.928  -2.256   1.648  0.00  0.00    -0.278 OA
ATOM     27  H   UNL     1       0.287   0.347   2.775  0.00  0.00    +0.149 HD
BRANCH  24  29
ATOM     28  C   UNL     1      -1.180   1.923   1.440  0.00  0.00    +0.024 C 
ATOM     29  C   UNL     1      -1.278   0.399   1.341  0.00  0.00    +0.101 C 
ENDBRANCH  24  29
ENDBRANCH  23  25
ENDBRANCH   1  23
TORSDOF 5
