REMARK  Name = ZINC48966201
REMARK  6 active torsions:
REMARK  status: ('A' for Active; 'I' for Inactive)
REMARK    1  A    between atoms: N_7  and  C_8
REMARK    2  A    between atoms: C_8  and  C_9
REMARK    3  A    between atoms: N_11  and  C_12
REMARK    4  A    between atoms: C_12  and  C_13
REMARK    5  A    between atoms: C_13  and  C_14
REMARK    6  A    between atoms: C_14  and  C_15
REMARK                            x       y       z     vdW  Elec       q    Type
REMARK                         _______ _______ _______ _____ _____    ______ ____
ROOT
ATOM      1  C   UNL     1      -1.715  -0.981  -1.407  0.00  0.00    +0.233 C 
ATOM      2  O   UNL     1      -1.042  -0.582  -2.333  0.00  0.00    -0.274 OA
ATOM      3  N   UNL     1      -2.864  -1.643  -1.646  0.00  0.00    -0.314 N 
ATOM      4  H   UNL     1      -3.403  -1.963  -0.905  0.00  0.00    +0.149 HD
ENDROOT
BRANCH   1   5
ATOM      5  C   UNL     1      -1.266  -0.738   0.011  0.00  0.00    +0.216 C 
BRANCH   5  12
ATOM      6  C   UNL     1      -0.016   1.352   0.009  0.00  0.00    +0.104 A 
ATOM      7  C   UNL     1       1.136   2.058   0.002  0.00  0.00    +0.077 A 
ATOM      8  C   UNL     1       2.370   1.366  -0.013  0.00  0.00    +0.208 A 
ATOM      9  O   UNL     1       3.429   1.978  -0.020  0.00  0.00    -0.286 OA
ATOM     10  C   UNL     1       2.355  -0.049  -0.021  0.00  0.00    +0.077 A 
ATOM     11  C   UNL     1       1.168  -0.696  -0.013  0.00  0.00    +0.104 A 
ATOM     12  N   UNL     1       0.002  -0.004   0.002  0.00  0.00    -0.342 N 
ATOM     13  I   UNL     1       4.150  -1.129  -0.044  0.00  0.00    -0.038 I 
ATOM     14  I   UNL     1       1.096   4.152   0.013  0.00  0.00    -0.038 I 
ENDBRANCH   5  12
ENDBRANCH   1   5
BRANCH   3  15
ATOM     15  C   UNL     1      -3.301  -1.881  -3.024  0.00  0.00    +0.104 C 
BRANCH  15  16
ATOM     16  C   UNL     1      -4.625  -2.647  -3.015  0.00  0.00    +0.028 C 
BRANCH  16  17
ATOM     17  C   UNL     1      -5.081  -2.894  -4.454  0.00  0.00    +0.097 C 
BRANCH  17  18
ATOM     18  C   UNL     1      -6.385  -3.649  -4.445  0.00  0.00    +0.211 C 
ATOM     19  O   UNL     1      -6.900  -3.958  -3.392  0.00  0.00    -0.276 OA
ATOM     20  N   UNL     1      -6.980  -3.980  -5.609  0.00  0.00    -0.329 N 
ATOM     21  H   UNL     1      -6.569  -3.732  -6.451  0.00  0.00    +0.145 HD
ATOM     22  H   UNL     1      -7.820  -4.465  -5.603  0.00  0.00    +0.145 HD
ENDBRANCH  17  18
ENDBRANCH  16  17
ENDBRANCH  15  16
ENDBRANCH   3  15
TORSDOF 6
