REMARK  Name = ZINC08735934
REMARK  8 active torsions:
REMARK  status: ('A' for Active; 'I' for Inactive)
REMARK    1  A    between atoms: C_1  and  C_2
REMARK    2  A    between atoms: C_2  and  C_28
REMARK    3  A    between atoms: N_5  and  N_9
REMARK    4  A    between atoms: C_10  and  C_12
REMARK    5  A    between atoms: C_18  and  C_20
REMARK    6  A    between atoms: C_21  and  C_22
REMARK    7  A    between atoms: C_28  and  C_29
REMARK    8  A    between atoms: C_29  and  C_30
REMARK                            x       y       z     vdW  Elec       q    Type
REMARK                         _______ _______ _______ _____ _____    ______ ____
ROOT
ATOM      1  N   UNL     1      -5.743   3.201  -2.175  0.00  0.00    -0.223 N 
ATOM      2  C   UNL     1      -4.481   3.673  -2.149  0.00  0.00    +0.233 C 
ATOM      3  O   UNL     1      -4.094   4.418  -3.025  0.00  0.00    -0.274 OA
ATOM      4  H   UNL     1      -6.053   2.606  -1.475  0.00  0.00    +0.174 HD
ENDROOT
BRANCH   1   9
ATOM      5  C   UNL     1      -8.171   5.956  -5.012  0.00  0.00    +0.041 C 
ATOM      6  C   UNL     1      -8.269   4.537  -4.448  0.00  0.00    +0.112 C 
ATOM      7  C   UNL     1      -7.617   4.453  -3.082  0.00  0.00    +0.263 C 
ATOM      8  O   UNL     1      -7.936   5.055  -2.079  0.00  0.00    -0.271 OA
ATOM      9  N   UNL     1      -6.608   3.570  -3.214  0.00  0.00    -0.137 N 
ATOM     10  C   UNL     1      -6.537   3.084  -4.459  0.00  0.00    +0.326 C 
ATOM     11  O   UNL     1      -5.711   2.269  -4.820  0.00  0.00    -0.251 OA
ATOM     12  N   UNL     1      -7.482   3.599  -5.266  0.00  0.00    -0.284 N 
ATOM     13  H   UNL     1      -7.619   3.392  -6.204  0.00  0.00    +0.151 HD
BRANCH   6  14
ATOM     14  C   UNL     1      -9.730   4.090  -4.370  0.00  0.00    +0.040 C 
BRANCH  14  15
ATOM     15  C   UNL     1     -10.299   3.957  -5.785  0.00  0.00    +0.038 C 
BRANCH  15  16
ATOM     16  C   UNL     1     -11.738   3.517  -5.709  0.00  0.00    -0.047 A 
ATOM     17  C   UNL     1     -12.050   2.170  -5.712  0.00  0.00    +0.003 A 
ATOM     18  C   UNL     1     -13.369   1.766  -5.638  0.00  0.00    +0.000 A 
ATOM     19  C   UNL     1     -14.378   2.709  -5.570  0.00  0.00    +0.000 A 
ATOM     20  C   UNL     1     -14.067   4.056  -5.572  0.00  0.00    +0.000 A 
ATOM     21  C   UNL     1     -12.746   4.460  -5.641  0.00  0.00    +0.003 A 
ENDBRANCH  15  16
ENDBRANCH  14  15
ENDBRANCH   6  14
ENDBRANCH   1   9
BRANCH   2  22
ATOM     22  C   UNL     1      -3.551   3.277  -1.031  0.00  0.00    +0.079 C 
ATOM     23  C   UNL     1      -2.191   3.946  -1.239  0.00  0.00    +0.032 C 
ATOM     24  C   UNL     1      -1.259   3.568  -0.083  0.00  0.00    +0.109 C 
ATOM     25  N   UNL     1      -1.202   2.103   0.019  0.00  0.00    -0.298 N 
ATOM     26  C   UNL     1      -2.461   1.353   0.125  0.00  0.00    +0.109 C 
ATOM     27  C   UNL     1      -3.379   1.756  -1.027  0.00  0.00    +0.032 C 
ATOM     28  C   UNL     1      -0.018   1.460   0.010  0.00  0.00    +0.239 C 
ATOM     29  O   UNL     1       0.014   0.244  -0.001  0.00  0.00    -0.271 OA
BRANCH  28  30
ATOM     30  C   UNL     1       1.231   2.225   0.020  0.00  0.00    +0.068 C 
ATOM     31  C   UNL     1       2.413   1.584   0.118  0.00  0.00    +0.013 C 
BRANCH  31  32
ATOM     32  C   UNL     1       3.668   2.353   0.127  0.00  0.00    -0.025 A 
ATOM     33  C   UNL     1       3.639   3.747   0.029  0.00  0.00    +0.008 A 
ATOM     34  C   UNL     1       4.819   4.461   0.045  0.00  0.00    +0.001 A 
ATOM     35  C   UNL     1       6.031   3.799   0.146  0.00  0.00    +0.000 A 
ATOM     36  C   UNL     1       6.068   2.419   0.237  0.00  0.00    +0.001 A 
ATOM     37  C   UNL     1       4.896   1.692   0.229  0.00  0.00    +0.008 A 
ENDBRANCH  31  32
ENDBRANCH  28  30
ENDBRANCH   2  22
TORSDOF 7
