REMARK  Name = ZINC08635989
REMARK  10 active torsions:
REMARK  status: ('A' for Active; 'I' for Inactive)
REMARK    1  A    between atoms: C_1  and  C_2
REMARK    2  A    between atoms: C_2  and  C_4
REMARK    3  A    between atoms: C_7  and  N_10
REMARK    4  A    between atoms: N_13  and  C_14
REMARK    5  A    between atoms: C_14  and  C_15
REMARK    6  A    between atoms: C_23  and  C_25
REMARK    7  A    between atoms: C_25  and  N_59
REMARK    8  A    between atoms: C_26  and  N_59
REMARK    9  A    between atoms: C_27  and  C_28
REMARK   10  A    between atoms: C_27  and  N_59
REMARK                            x       y       z     vdW  Elec       q    Type
REMARK                         _______ _______ _______ _____ _____    ______ ____
ROOT
ATOM      1  C   UNL     1       0.585  -2.091   1.538  0.00  0.00    +0.090 C 
ENDROOT
BRANCH   1   2
ATOM      2  C   UNL     1       0.654  -0.563   1.513  0.00  0.00    -0.051 C 
ATOM      3  C   UNL     1       2.100  -0.112   1.734  0.00  0.00    -0.010 C 
ATOM      4  C   UNL     1       2.560   0.697   0.514  0.00  0.00    -0.015 C 
ATOM      5  C   UNL     1       1.627   1.903   0.347  0.00  0.00    -0.015 C 
ATOM      6  C   UNL     1       0.193   1.396   0.164  0.00  0.00    -0.078 C 
ATOM      7  C   UNL     1       0.986  -0.638  -0.885  0.00  0.00    -0.076 C 
ATOM      8  C   UNL     1       2.442  -0.190  -0.732  0.00  0.00    -0.041 C 
ATOM      9  N   UNL     1       0.158  -0.082   0.206  0.00  0.00    +0.383 N 
ATOM     10  H   UNL     1      -0.812  -0.395   0.081  0.00  0.00    -0.081 HD
BRANCH   8  11
ATOM     11  C   UNL     1       3.343  -1.416  -0.576  0.00  0.00    -0.076 C 
BRANCH  11  13
ATOM     12  C   UNL     1       3.936  -1.454  -2.923  0.00  0.00    -0.095 C 
ATOM     13  N   UNL     1       3.294  -2.206  -1.825  0.00  0.00    +0.385 N 
ATOM     14  H   UNL     1       2.312  -2.381  -2.070  0.00  0.00    -0.081 HD
BRANCH  13  15
ATOM     15  C   UNL     1       3.979  -3.501  -1.630  0.00  0.00    +0.012 C 
BRANCH  15  16
ATOM     16  C   UNL     1       3.731  -4.350  -2.807  0.00  0.00    -0.124 C 
ATOM     17  C   UNL     1       3.534  -5.028  -3.745  0.00  0.00    +0.002 C 
ENDBRANCH  15  16
ENDBRANCH  13  15
ENDBRANCH  11  13
ENDBRANCH   8  11
ENDBRANCH   1   2
BRANCH   1  21
ATOM     18  N   UNL     1      -2.322  -4.237   0.860  0.00  0.00    -0.269 N 
ATOM     19  C   UNL     1      -1.072  -3.838   1.166  0.00  0.00    +0.304 C 
ATOM     20  O   UNL     1      -0.212  -4.664   1.407  0.00  0.00    -0.253 OA
ATOM     21  N   UNL     1      -0.774  -2.524   1.205  0.00  0.00    -0.301 N 
ATOM     22  H   UNL     1      -3.026  -3.580   0.744  0.00  0.00    +0.156 HD
ATOM     23  H   UNL     1      -1.460  -1.866   1.013  0.00  0.00    +0.150 HD
BRANCH  18  27
ATOM     24  C   UNL     1      -3.163  -8.282   0.414  0.00  0.00    +0.017 A 
ATOM     25  C   UNL     1      -1.911  -7.779   0.038  0.00  0.00    +0.013 A 
ATOM     26  C   UNL     1      -1.639  -6.449   0.187  0.00  0.00    +0.024 A 
ATOM     27  C   UNL     1      -2.604  -5.593   0.711  0.00  0.00    +0.035 A 
ATOM     28  C   UNL     1      -3.848  -6.089   1.090  0.00  0.00    +0.024 A 
ATOM     29  C   UNL     1      -4.131  -7.417   0.940  0.00  0.00    +0.013 A 
BRANCH  24  31
ATOM     30  C   UNL     1      -4.808 -10.250   0.660  0.00  0.00    +0.091 C 
ATOM     31  C   UNL     1      -3.460  -9.711   0.255  0.00  0.00    +0.160 C 
ATOM     32  O   UNL     1      -2.621 -10.458  -0.201  0.00  0.00    -0.292 OA
ENDBRANCH  24  31
ENDBRANCH  18  27
ENDBRANCH   1  21
TORSDOF 8
