REMARK  Name = ZINC63845493
REMARK  2 active torsions:
REMARK  status: ('A' for Active; 'I' for Inactive)
REMARK    1  A    between atoms: C_3  and  C_6
REMARK    2  A    between atoms: N_15  and  C_16
REMARK                            x       y       z     vdW  Elec       q    Type
REMARK                         _______ _______ _______ _____ _____    ______ ____
ROOT
ATOM      1  C   UNL     1       3.599   0.625  -0.029  0.00  0.00    +0.241 C 
ATOM      2  N   UNL     1       4.095  -0.584   0.686  0.00  0.00    -0.265 NA
ATOM      3  C   UNL     1       5.376  -0.094   1.211  0.00  0.00    +0.212 C 
ATOM      4  C   UNL     1       5.118   1.390   1.469  0.00  0.00    +0.094 C 
ATOM      5  N   UNL     1       4.143   1.770   0.718  0.00  0.00    -0.257 NA
ATOM      6  C   UNL     1       6.038   1.672   2.574  0.00  0.00    +0.156 C 
ATOM      7  N   UNL     1       6.277   0.556   3.205  0.00  0.00    -0.189 NA
ATOM      8  N   UNL     1       5.716  -0.577   2.552  0.00  0.00    -0.229 N 
ATOM      9  H   UNL     1       3.471  -0.841   1.437  0.00  0.00    +0.126 HD
ENDROOT
BRANCH   8  10
ATOM     10  C   UNL     1       5.507  -1.923   3.093  0.00  0.00    +0.095 C 
ATOM     11  C   UNL     1       4.593  -1.844   4.317  0.00  0.00    +0.024 C 
ATOM     12  C   UNL     1       4.375  -3.249   4.882  0.00  0.00    +0.002 C 
ATOM     13  C   UNL     1       5.722  -3.850   5.289  0.00  0.00    +0.000 C 
ATOM     14  C   UNL     1       6.636  -3.928   4.065  0.00  0.00    +0.002 C 
ATOM     15  C   UNL     1       6.854  -2.523   3.500  0.00  0.00    +0.024 C 
ENDBRANCH   8  10
BRANCH   1  18
ATOM     16  C   UNL     1      -0.016   1.341   0.009  0.00  0.00    +0.041 A 
ATOM     17  C   UNL     1       1.331   1.769  -0.001  0.00  0.00    +0.048 A 
ATOM     18  C   UNL     1       2.092   0.660  -0.014  0.00  0.00    +0.144 A 
ATOM     19  O   UNL     1       1.282  -0.411  -0.012  0.00  0.00    -0.464 OA
ATOM     20  C   UNL     1       0.002  -0.004   0.002  0.00  0.00    +0.195 A 
ENDBRANCH   1  18
TORSDOF 2
