REMARK  Name = ZINC16922094
REMARK  5 active torsions:
REMARK  status: ('A' for Active; 'I' for Inactive)
REMARK    1  A    between atoms: C_5  and  C_7
REMARK    2  A    between atoms: N_11  and  C_15
REMARK    3  A    between atoms: C_15  and  C_16
REMARK    4  A    between atoms: C_21  and  C_24
REMARK    5  A    between atoms: C_24  and  C_25
REMARK                            x       y       z     vdW  Elec       q    Type
REMARK                         _______ _______ _______ _____ _____    ______ ____
ROOT
ATOM      1  C   UNL     1       1.254  -2.153  -0.022  0.00  0.00    +0.031 C 
ATOM      2  C   UNL     1       0.099  -2.855   0.088  0.00  0.00    +0.077 C 
ATOM      3  C   UNL     1      -0.110  -4.312   0.208  0.00  0.00    +0.259 C 
ATOM      4  O   UNL     1       0.823  -5.093   0.222  0.00  0.00    -0.269 OA
ATOM      5  N   UNL     1      -1.363  -4.725   0.301  0.00  0.00    -0.246 N 
ATOM      6  C   UNL     1      -2.394  -3.857   0.286  0.00  0.00    +0.121 C 
ATOM      7  S   UNL     1      -4.069  -4.193   0.394  0.00  0.00    -0.027 S 
ATOM      8  S   UNL     1      -1.590  -2.270   0.135  0.00  0.00    -0.061 S 
ENDROOT
BRANCH   1  13
ATOM      9  C   UNL     1       0.110   1.356   0.633  0.00  0.00    +0.001 A 
ATOM     10  C   UNL     1       1.187   2.084   0.156  0.00  0.00    +0.003 A 
ATOM     11  C   UNL     1       2.286   1.438  -0.380  0.00  0.00    +0.039 A 
ATOM     12  C   UNL     1       2.317   0.058  -0.443  0.00  0.00    +0.131 A 
ATOM     13  C   UNL     1       1.231  -0.685   0.040  0.00  0.00    +0.011 A 
ATOM     14  C   UNL     1       0.124  -0.021   0.580  0.00  0.00    +0.011 A 
ATOM     15  F   UNL     1       3.391  -0.573  -0.967  0.00  0.00    -0.205 F 
ENDBRANCH   1  13
BRANCH   5  16
ATOM     16  C   UNL     1      -1.637  -6.159   0.423  0.00  0.00    +0.211 C 
BRANCH  16  17
ATOM     17  C   UNL     1      -1.661  -6.544   1.880  0.00  0.00    +0.236 C 
ATOM     18  O   UNL     1      -1.468  -5.704   2.733  0.00  0.00    -0.274 OA
ATOM     19  N   UNL     1      -1.896  -7.823   2.236  0.00  0.00    -0.263 N 
ATOM     20  C   UNL     1      -1.918  -8.178   3.579  0.00  0.00    +0.165 A 
ATOM     21  N   UNL     1      -2.125  -9.365   4.108  0.00  0.00    -0.229 NA
ATOM     22  C   UNL     1      -2.114  -9.540   5.416  0.00  0.00    +0.061 A 
ATOM     23  C   UNL     1      -1.882  -8.446   6.183  0.00  0.00    +0.072 A 
ATOM     24  S   UNL     1      -1.680  -7.195   4.925  0.00  0.00    -0.060 S 
ATOM     25  H   UNL     1      -2.050  -8.495   1.554  0.00  0.00    +0.157 HD
BRANCH  22  26
ATOM     26  C   UNL     1      -2.350 -10.896   6.031  0.00  0.00    +0.181 C 
BRANCH  26  27
ATOM     27  C   UNL     1      -3.657 -11.454   5.530  0.00  0.00    +0.362 C 
ATOM     28  O   UNL     1      -4.334 -10.810   4.746  0.00  0.00    -0.246 OA
ATOM     29  O   UNL     1      -4.037 -12.549   5.907  0.00  0.00    -0.246 OA
ENDBRANCH  26  27
ENDBRANCH  22  26
ENDBRANCH  16  17
ENDBRANCH   5  16
TORSDOF 5
