REMARK  Name = ZINC00978270
REMARK  5 active torsions:
REMARK  status: ('A' for Active; 'I' for Inactive)
REMARK    1  A    between atoms: C_4  and  C_7
REMARK    2  A    between atoms: C_8  and  C_19
REMARK    3  A    between atoms: C_10  and  C_13
REMARK    4  A    between atoms: C_19  and  C_20
REMARK    5  A    between atoms: C_19  and  C_22
REMARK                            x       y       z     vdW  Elec       q    Type
REMARK                         _______ _______ _______ _____ _____    ______ ____
ROOT
ATOM      1  C   UNL     1      -1.330   0.666   2.122  0.00  0.00    +0.117 A 
ATOM      2  C   UNL     1      -0.725   1.572   1.244  0.00  0.00    +0.102 A 
ATOM      3  N   UNL     1      -0.782   2.862   1.524  0.00  0.00    -0.226 NA
ATOM      4  C   UNL     1      -1.403   3.267   2.627  0.00  0.00    +0.182 A 
ATOM      5  N   UNL     1      -1.968   2.392   3.453  0.00  0.00    -0.129 NA
ATOM      6  N   UNL     1      -1.933   1.128   3.215  0.00  0.00    -0.145 NA
ENDROOT
BRANCH   1  10
ATOM      7  C   UNL     1      -1.226  -3.508   1.319  0.00  0.00    +0.000 A 
ATOM      8  C   UNL     1      -0.077  -2.750   1.178  0.00  0.00    +0.001 A 
ATOM      9  C   UNL     1      -0.104  -1.395   1.437  0.00  0.00    +0.010 A 
ATOM     10  C   UNL     1      -1.293  -0.790   1.842  0.00  0.00    +0.004 A 
ATOM     11  C   UNL     1      -2.447  -1.559   1.988  0.00  0.00    +0.010 A 
ATOM     12  C   UNL     1      -2.408  -2.913   1.720  0.00  0.00    +0.001 A 
ENDBRANCH   1  10
BRANCH   4  13
ATOM     13  C   UNL     1      -1.468   4.714   2.941  0.00  0.00    +0.021 A 
ATOM     14  C   UNL     1      -0.876   5.643   2.086  0.00  0.00    +0.011 A 
ATOM     15  C   UNL     1      -0.944   6.989   2.380  0.00  0.00    +0.001 A 
ATOM     16  C   UNL     1      -1.589   7.418   3.526  0.00  0.00    +0.000 A 
ATOM     17  C   UNL     1      -2.173   6.501   4.381  0.00  0.00    +0.001 A 
ATOM     18  C   UNL     1      -2.117   5.152   4.095  0.00  0.00    +0.011 A 
ENDBRANCH   4  13
BRANCH   2  19
ATOM     19  C   UNL     1      -0.027   1.087  -0.000  0.00  0.00    +0.244 C 
BRANCH  19  20
ATOM     20  C   UNL     1       1.421   1.322   0.126  0.00  0.00    +0.087 C 
ATOM     21  N   UNL     1       2.538   1.503   0.224  0.00  0.00    -0.195 NA
ENDBRANCH  19  20
BRANCH  19  22
ATOM     22  C   UNL     1      -0.542   1.819  -1.169  0.00  0.00    +0.087 C 
ATOM     23  N   UNL     1      -0.940   2.383  -2.071  0.00  0.00    -0.195 NA
ENDBRANCH  19  22
ENDBRANCH   2  19
TORSDOF 5
