REMARK  Name = ZINC04575643
REMARK  8 active torsions:
REMARK  status: ('A' for Active; 'I' for Inactive)
REMARK    1  A    between atoms: C_1  and  C_2
REMARK    2  A    between atoms: C_5  and  N_9
REMARK    3  A    between atoms: C_7  and  C_8
REMARK    4  A    between atoms: C_19  and  C_20
REMARK    5  A    between atoms: C_19  and  O_34
REMARK    6  A    between atoms: N_22  and  C_23
REMARK    7  A    between atoms: C_28  and  C_33
REMARK    8  A    between atoms: C_30  and  C_32
REMARK                            x       y       z     vdW  Elec       q    Type
REMARK                         _______ _______ _______ _____ _____    ______ ____
ROOT
ATOM      1  N   UNL     1       1.159   1.869   0.001  0.00  0.00    -0.214 N 
ATOM      2  C   UNL     1       0.067   1.339   0.579  0.00  0.00    +0.314 C 
ATOM      3  O   UNL     1       0.156   0.236   1.085  0.00  0.00    -0.252 OA
ATOM      4  N   UNL     1      -1.116   1.966   0.619  0.00  0.00    -0.269 N 
ATOM      5  C   UNL     1      -1.322   3.233   0.074  0.00  0.00    +0.043 A 
ATOM      6  C   UNL     1      -2.568   3.843   0.147  0.00  0.00    +0.024 A 
ATOM      7  C   UNL     1      -2.753   5.096  -0.403  0.00  0.00    +0.002 A 
ATOM      8  C   UNL     1      -1.704   5.747  -1.026  0.00  0.00    +0.001 A 
ATOM      9  C   UNL     1      -0.460   5.144  -1.101  0.00  0.00    +0.010 A 
ATOM     10  C   UNL     1      -0.273   3.895  -0.554  0.00  0.00    +0.033 A 
ATOM     11  C   UNL     1       1.069   3.203  -0.616  0.00  0.00    +0.247 C 
ATOM     12  H   UNL     1      -1.862   1.520   1.050  0.00  0.00    +0.156 HD
ENDROOT
BRANCH   1  17
ATOM     13  C   UNL     1       6.056  -0.996  -0.058  0.00  0.00    +0.044 C 
ATOM     14  C   UNL     1       4.755  -0.235  -0.042  0.00  0.00    -0.047 A 
ATOM     15  C   UNL     1       4.516   0.702   0.947  0.00  0.00    +0.005 A 
ATOM     16  C   UNL     1       3.325   1.401   0.964  0.00  0.00    +0.024 A 
ATOM     17  C   UNL     1       2.367   1.162  -0.013  0.00  0.00    +0.042 A 
ATOM     18  C   UNL     1       2.608   0.216  -1.001  0.00  0.00    +0.027 A 
ATOM     19  C   UNL     1       3.804  -0.475  -1.016  0.00  0.00    -0.046 A 
ATOM     20  C   UNL     1       4.069  -1.497  -2.092  0.00  0.00    +0.044 C 
ENDBRANCH   1  17
BRANCH  11  21
ATOM     21  C   UNL     1       1.458   3.072  -2.066  0.00  0.00    +0.269 C 
ATOM     22  O   UNL     1       2.405   3.694  -2.499  0.00  0.00    -0.270 OA
ATOM     23  N   UNL     1       0.754   2.263  -2.882  0.00  0.00    -0.308 N 
ATOM     24  H   UNL     1      -0.004   1.766  -2.537  0.00  0.00    +0.149 HD
BRANCH  23  25
ATOM     25  C   UNL     1       1.132   2.136  -4.292  0.00  0.00    +0.076 C 
ATOM     26  C   UNL     1       0.488   3.266  -5.097  0.00  0.00    +0.022 C 
ATOM     27  C   UNL     1       0.883   3.133  -6.569  0.00  0.00    +0.002 C 
ATOM     28  C   UNL     1       0.400   1.784  -7.107  0.00  0.00    +0.003 C 
ATOM     29  C   UNL     1       1.044   0.654  -6.302  0.00  0.00    -0.009 C 
ATOM     30  C   UNL     1       0.649   0.787  -4.830  0.00  0.00    +0.009 C 
ATOM     31  C   UNL     1      -0.873   0.702  -4.700  0.00  0.00    +0.009 C 
ATOM     32  C   UNL     1       0.561  -0.695  -6.839  0.00  0.00    +0.008 C 
ENDBRANCH  23  25
ENDBRANCH  11  21
BRANCH  11  33
ATOM     33  O   UNL     1       2.030   4.049   0.019  0.00  0.00    -0.360 OA
ATOM     34  H   UNL     1       2.045   4.953  -0.323  0.00  0.00    +0.213 HD
ENDBRANCH  11  33
TORSDOF 4
