REMARK  Name = ZINC18201094
REMARK  2 active torsions:
REMARK  status: ('A' for Active; 'I' for Inactive)
REMARK    1  A    between atoms: C_11  and  C_22
REMARK    2  A    between atoms: C_26  and  O_28
REMARK                            x       y       z     vdW  Elec       q    Type
REMARK                         _______ _______ _______ _____ _____    ______ ____
ROOT
ATOM      1  C   UNL     1      -0.017   1.393   0.010  0.00  0.00    +0.001 A 
ATOM      2  C   UNL     1       1.140   2.137   0.003  0.00  0.00    +0.001 A 
ATOM      3  C   UNL     1       2.403   1.535  -0.013  0.00  0.00    +0.012 A 
ATOM      4  C   UNL     1       2.437   0.154  -0.020  0.00  0.00    +0.031 A 
ATOM      5  C   UNL     1       1.246  -0.615  -0.013  0.00  0.00    +0.007 A 
ATOM      6  C   UNL     1       0.002  -0.004   0.002  0.00  0.00    +0.010 A 
ATOM      7  C   UNL     1       1.643  -2.027  -0.022  0.00  0.00    +0.048 C 
ATOM      8  C   UNL     1       3.012  -2.107  -0.037  0.00  0.00    +0.034 C 
ATOM      9  C   UNL     1       3.563  -0.805  -0.036  0.00  0.00    +0.193 C 
ATOM     10  O   UNL     1       4.746  -0.525  -0.046  0.00  0.00    -0.287 OA
ATOM     11  C   UNL     1       3.749  -3.421  -0.055  0.00  0.00    +0.093 C 
ATOM     12  C   UNL     1       2.792  -4.538   0.276  0.00  0.00    +0.067 A 
ATOM     13  C   UNL     1       1.441  -4.368   0.276  0.00  0.00    +0.114 A 
ATOM     14  N   UNL     1       0.626  -5.435   0.581  0.00  0.00    -0.295 N 
ATOM     15  C   UNL     1       1.152  -6.635   0.882  0.00  0.00    +0.328 A 
ATOM     16  O   UNL     1       0.415  -7.564   1.149  0.00  0.00    -0.247 OA
ATOM     17  N   UNL     1       2.485  -6.821   0.892  0.00  0.00    -0.275 N 
ATOM     18  C   UNL     1       3.318  -5.805   0.598  0.00  0.00    +0.260 A 
ATOM     19  O   UNL     1       4.524  -5.981   0.608  0.00  0.00    -0.267 OA
ATOM     20  N   UNL     1       0.854  -3.155  -0.015  0.00  0.00    -0.300 N 
ATOM     21  H   UNL     1      -0.095  -3.099  -0.211  0.00  0.00    +0.154 HD
ATOM     22  H   UNL     1       2.848  -7.693   1.113  0.00  0.00    +0.173 HD
ATOM     23  H   UNL     1      -0.338  -5.320   0.579  0.00  0.00    +0.172 HD
ENDROOT
BRANCH  11  24
ATOM     24  C   UNL     1       4.334  -3.651  -1.425  0.00  0.00    -0.032 A 
ATOM     25  C   UNL     1       3.504  -3.712  -2.529  0.00  0.00    +0.005 A 
ATOM     26  C   UNL     1       4.038  -3.923  -3.787  0.00  0.00    +0.004 A 
ATOM     27  C   UNL     1       5.402  -4.073  -3.943  0.00  0.00    +0.045 A 
ATOM     28  C   UNL     1       6.237  -4.011  -2.837  0.00  0.00    +0.117 A 
ATOM     29  C   UNL     1       5.699  -3.794  -1.576  0.00  0.00    +0.050 A 
BRANCH  28  30
ATOM     30  O   UNL     1       7.579  -4.158  -2.988  0.00  0.00    -0.507 OA
ATOM     31  H   UNL     1       8.051  -3.328  -3.143  0.00  0.00    +0.292 HD
ENDBRANCH  28  30
ENDBRANCH  11  24
TORSDOF 2
