REMARK  Name = ZINC14470644
REMARK  3 active torsions:
REMARK  status: ('A' for Active; 'I' for Inactive)
REMARK    1  A    between atoms: C_5  and  C_7
REMARK    2  A    between atoms: C_11  and  C_20
REMARK    3  A    between atoms: C_24  and  N_26
REMARK                            x       y       z     vdW  Elec       q    Type
REMARK                         _______ _______ _______ _____ _____    ______ ____
ROOT
ATOM      1  C   UNL     1       2.408   4.071   0.006  0.00  0.00    +0.001 A 
ATOM      2  C   UNL     1       3.618   3.398  -0.010  0.00  0.00    +0.006 A 
ATOM      3  C   UNL     1       3.661   2.021  -0.026  0.00  0.00    -0.019 A 
ATOM      4  C   UNL     1       2.480   1.273  -0.015  0.00  0.00    +0.044 A 
ATOM      5  C   UNL     1       1.252   1.966   0.001  0.00  0.00    +0.058 A 
ATOM      6  C   UNL     1       1.228   3.360   0.003  0.00  0.00    +0.015 A 
ATOM      7  N   UNL     1       2.435  -0.111  -0.002  0.00  0.00    -0.336 N 
ATOM      8  C   UNL     1       3.721  -0.820  -0.098  0.00  0.00    +0.105 C 
ATOM      9  C   UNL     1       4.721  -0.040   0.730  0.00  0.00    +0.029 C 
ATOM     10  C   UNL     1       4.943   1.284  -0.067  0.00  0.00    +0.049 C 
ATOM     11  C   UNL     1       6.195   1.822   0.520  0.00  0.00    -0.023 C 
ATOM     12  C   UNL     1       6.925   0.804   0.963  0.00  0.00    -0.030 C 
ATOM     13  C   UNL     1       6.174  -0.529   0.754  0.00  0.00    +0.033 C 
ATOM     14  H   UNL     1       1.779  -0.457  -0.686  0.00  0.00    +0.147 HD
ENDROOT
BRANCH   8  15
ATOM     15  C   UNL     1       3.579  -2.217   0.449  0.00  0.00    -0.025 A 
ATOM     16  C   UNL     1       2.823  -2.441   1.584  0.00  0.00    +0.007 A 
ATOM     17  C   UNL     1       2.692  -3.722   2.086  0.00  0.00    +0.022 A 
ATOM     18  C   UNL     1       3.319  -4.780   1.452  0.00  0.00    +0.071 A 
ATOM     19  C   UNL     1       4.076  -4.555   0.316  0.00  0.00    +0.145 A 
ATOM     20  C   UNL     1       4.201  -3.274  -0.188  0.00  0.00    +0.039 A 
ATOM     21 CL   UNL     1       3.157  -6.390   2.083  0.00  0.00    -0.081 Cl
BRANCH  19  22
ATOM     22  N   UNL     1       4.747  -5.687  -0.362  0.00  0.00    +0.058 N 
ATOM     23  O   UNL     1       5.413  -5.488  -1.362  0.00  0.00    -0.126 OA
ATOM     24  O   UNL     1       4.633  -6.816   0.080  0.00  0.00    -0.126 OA
ENDBRANCH  19  22
ENDBRANCH   8  15
BRANCH   5  25
ATOM     25  C   UNL     1      -0.014   1.212   0.009  0.00  0.00    +0.243 C 
ATOM     26  O   UNL     1       0.002  -0.004   0.002  0.00  0.00    -0.270 OA
ATOM     27  N   UNL     1      -1.191   1.870   0.018  0.00  0.00    -0.325 N 
ATOM     28  H   UNL     1      -2.024   1.373   0.019  0.00  0.00    +0.145 HD
ATOM     29  H   UNL     1      -1.204   2.840   0.023  0.00  0.00    +0.145 HD
ENDBRANCH   5  25
TORSDOF 3
