REMARK  Name = ZINC39633829
REMARK  5 active torsions:
REMARK  status: ('A' for Active; 'I' for Inactive)
REMARK    1  A    between atoms: C_1  and  C_2
REMARK    2  A    between atoms: C_6  and  C_8
REMARK    3  A    between atoms: C_8  and  C_9
REMARK    4  A    between atoms: C_13  and  C_22
REMARK    5  A    between atoms: N_24  and  C_25
REMARK                            x       y       z     vdW  Elec       q    Type
REMARK                         _______ _______ _______ _____ _____    ______ ____
ROOT
ATOM      1  C   UNL     1       1.185  -3.003   3.003  0.00  0.00    +0.220 C 
ATOM      2  O   UNL     1       2.029  -2.527   2.274  0.00  0.00    -0.275 OA
ATOM      3  N   UNL     1       1.554  -3.689   4.103  0.00  0.00    -0.300 N 
ATOM      4  C   UNL     1       0.676  -4.343   5.102  0.00  0.00    +0.121 C 
ATOM      5  C   UNL     1       1.397  -5.665   5.449  0.00  0.00    +0.100 C 
ATOM      6  C   UNL     1       2.875  -5.406   5.111  0.00  0.00    -0.004 C 
ATOM      7  C   UNL     1       2.929  -3.965   4.583  0.00  0.00    +0.115 C 
ATOM      8  C   UNL     1       3.736  -5.545   6.362  0.00  0.00    -0.010 C 
ATOM      9  C   UNL     1       5.207  -5.341   5.990  0.00  0.00    -0.082 C 
ATOM     10  N   UNL     1       5.602  -6.337   4.987  0.00  0.00    +0.379 N 
ATOM     11  C   UNL     1       4.833  -6.138   3.752  0.00  0.00    -0.082 C 
ATOM     12  C   UNL     1       3.346  -6.375   4.031  0.00  0.00    -0.010 C 
ATOM     13  H   UNL     1       6.587  -6.240   4.788  0.00  0.00    -0.086 HD
ATOM     14  H   UNL     1       5.424  -7.263   5.346  0.00  0.00    -0.086 HD
ENDROOT
BRANCH   5  15
ATOM     15  C   UNL     1       0.854  -6.794   4.612  0.00  0.00    +0.218 C 
ATOM     16  O   UNL     1       0.423  -6.572   3.500  0.00  0.00    -0.275 OA
ATOM     17  N   UNL     1       0.847  -8.051   5.098  0.00  0.00    -0.312 N 
ATOM     18  H   UNL     1       1.192  -8.229   5.987  0.00  0.00    +0.149 HD
BRANCH  17  19
ATOM     19  C   UNL     1       0.320  -9.149   4.284  0.00  0.00    +0.073 C 
ATOM     20  C   UNL     1      -1.217  -9.172   4.413  0.00  0.00    +0.022 C 
ATOM     21  C   UNL     1      -1.784  -9.917   3.235  0.00  0.00    +0.002 C 
ATOM     22  C   UNL     1      -2.022 -11.409   3.540  0.00  0.00    +0.000 C 
ATOM     23  C   UNL     1      -0.874 -12.043   4.348  0.00  0.00    +0.000 C 
ATOM     24  C   UNL     1       0.481 -11.600   3.869  0.00  0.00    +0.002 C 
ATOM     25  C   UNL     1       0.932 -10.395   4.720  0.00  0.00    +0.022 C 
ENDBRANCH  17  19
ENDBRANCH   5  15
BRANCH   1  26
ATOM     26  C   UNL     1      -0.277  -2.827   2.679  0.00  0.00    +0.131 C 
BRANCH  26  32
ATOM     27  C   UNL     1      -0.724   1.584   0.358  0.00  0.00    +0.044 C 
ATOM     28  C   UNL     1      -0.632   0.081   0.298  0.00  0.00    -0.050 A 
ATOM     29  C   UNL     1      -0.676  -0.566  -0.923  0.00  0.00    +0.003 A 
ATOM     30  C   UNL     1      -0.591  -1.944  -0.978  0.00  0.00    +0.001 A 
ATOM     31  C   UNL     1      -0.462  -2.676   0.188  0.00  0.00    +0.004 A 
ATOM     32  C   UNL     1      -0.417  -2.030   1.409  0.00  0.00    -0.038 A 
ATOM     33  C   UNL     1      -0.497  -0.650   1.463  0.00  0.00    +0.007 A 
ENDBRANCH  26  32
ENDBRANCH   1  26
TORSDOF 4
