REMARK  Name = ZINC27528539
REMARK  10 active torsions:
REMARK  status: ('A' for Active; 'I' for Inactive)
REMARK    1  A    between atoms: C_4  and  C_7
REMARK    2  A    between atoms: C_7  and  C_8
REMARK    3  A    between atoms: C_8  and  C_9
REMARK    4  A    between atoms: C_9  and  C_10
REMARK    5  A    between atoms: C_9  and  C_17
REMARK    6  A    between atoms: C_9  and  O_32
REMARK    7  A    between atoms: C_13  and  O_16
REMARK    8  A    between atoms: C_17  and  C_19
REMARK    9  A    between atoms: C_17  and  C_26
REMARK   10  A    between atoms: C_19  and  N_20
REMARK                            x       y       z     vdW  Elec       q    Type
REMARK                         _______ _______ _______ _____ _____    ______ ____
ROOT
ATOM      1  C   UNL     1       1.249  -2.355  -0.067  0.00  0.00    +0.096 C 
ENDROOT
BRANCH   1   2
ATOM      2  C   UNL     1       0.978  -0.873  -0.027  0.00  0.00    -0.015 A 
ATOM      3  C   UNL     1      -0.322  -0.408  -0.099  0.00  0.00    +0.010 A 
ATOM      4  C   UNL     1      -0.574   0.950  -0.062  0.00  0.00    +0.046 A 
ATOM      5  C   UNL     1       0.479   1.847   0.047  0.00  0.00    +0.117 A 
ATOM      6  C   UNL     1       1.782   1.377   0.120  0.00  0.00    +0.046 A 
ATOM      7  C   UNL     1       2.029   0.018   0.083  0.00  0.00    +0.010 A 
BRANCH   5   8
ATOM      8  O   UNL     1       0.234   3.183   0.083  0.00  0.00    -0.507 OA
ATOM      9  H   UNL     1       1.070   3.893   0.170  0.00  0.00    +0.292 HD
ENDBRANCH   5   8
ENDBRANCH   1   2
BRANCH   1  10
ATOM     10  O   UNL     1       0.143  -3.058   0.504  0.00  0.00    -0.383 OA
ATOM     11  H   UNL     1      -0.149  -2.869   1.548  0.00  0.00    +0.211 HD
ENDBRANCH   1  10
BRANCH   1  12
ATOM     12  C   UNL     1       1.442  -2.800  -1.518  0.00  0.00    +0.045 C 
BRANCH  12  13
ATOM     13  C   UNL     1       0.225  -2.380  -2.345  0.00  0.00    +0.038 C 
BRANCH  13  17
ATOM     14  C   UNL     1       0.762  -3.620  -6.398  0.00  0.00    +0.000 A 
ATOM     15  C   UNL     1       0.145  -4.464  -5.493  0.00  0.00    +0.000 A 
ATOM     16  C   UNL     1      -0.028  -4.062  -4.181  0.00  0.00    +0.003 A 
ATOM     17  C   UNL     1       0.415  -2.817  -3.775  0.00  0.00    -0.047 A 
ATOM     18  C   UNL     1       1.026  -1.972  -4.681  0.00  0.00    +0.003 A 
ATOM     19  C   UNL     1       1.205  -2.375  -5.992  0.00  0.00    +0.000 A 
ENDBRANCH  13  17
ENDBRANCH  12  13
ENDBRANCH   1  12
BRANCH   1  20
ATOM     20  C   UNL     1       2.516  -2.663   0.733  0.00  0.00    +0.039 C 
BRANCH  20  21
ATOM     21  C   UNL     1       2.861  -4.123   0.586  0.00  0.00    -0.043 A 
ATOM     22  C   UNL     1       2.064  -5.085   1.178  0.00  0.00    +0.004 A 
ATOM     23  C   UNL     1       2.377  -6.424   1.039  0.00  0.00    +0.000 A 
ATOM     24  C   UNL     1       3.494  -6.801   0.316  0.00  0.00    +0.000 A 
ATOM     25  C   UNL     1       4.294  -5.839  -0.271  0.00  0.00    +0.000 A 
ATOM     26  C   UNL     1       3.978  -4.500  -0.136  0.00  0.00    +0.004 A 
ENDBRANCH  20  21
BRANCH  20  27
ATOM     27  C   UNL     1       2.278  -2.342   2.210  0.00  0.00    -0.068 C 
BRANCH  27  28
ATOM     28  N   UNL     1       3.514  -2.578   2.968  0.00  0.00    +0.380 N 
ATOM     29  C   UNL     1       3.229  -2.748   4.399  0.00  0.00    -0.079 C 
ATOM     30  C   UNL     1       4.515  -3.136   5.134  0.00  0.00    -0.019 C 
ATOM     31  C   UNL     1       5.563  -2.039   4.930  0.00  0.00    -0.004 C 
ATOM     32  C   UNL     1       5.806  -1.848   3.430  0.00  0.00    -0.019 C 
ATOM     33  C   UNL     1       4.483  -1.498   2.745  0.00  0.00    -0.079 C 
ATOM     34  H   UNL     1       3.964  -3.513   2.602  0.00  0.00    -0.082 HD
ENDBRANCH  27  28
ENDBRANCH  20  27
ENDBRANCH   1  20
TORSDOF 10
