REMARK  Name = ZINC15866442
REMARK  7 active torsions:
REMARK  status: ('A' for Active; 'I' for Inactive)
REMARK    1  A    between atoms: C_1  and  C_2
REMARK    2  A    between atoms: C_5  and  C_8
REMARK    3  A    between atoms: C_11  and  C_19
REMARK    4  A    between atoms: C_22  and  O_27
REMARK    5  A    between atoms: C_23  and  O_25
REMARK    6  A    between atoms: O_25  and  C_26
REMARK    7  A    between atoms: O_27  and  C_28
REMARK                            x       y       z     vdW  Elec       q    Type
REMARK                         _______ _______ _______ _____ _____    ______ ____
ROOT
ATOM      1  C   UNL     1       2.412  -1.921   7.447  0.00  0.00    +0.106 C 
ATOM      2  C   UNL     1       1.564  -1.499   6.242  0.00  0.00    +0.059 C 
ATOM      3  C   UNL     1       1.531   0.032   6.141  0.00  0.00    +0.144 C 
ATOM      4  N   UNL     1       2.897   0.539   6.242  0.00  0.00    -0.206 N 
ATOM      5  C   UNL     1       3.941  -0.163   6.752  0.00  0.00    +0.236 A 
ATOM      6  N   UNL     1       4.995   0.600   6.678  0.00  0.00    -0.092 NA
ATOM      7  N   UNL     1       4.686   1.738   6.158  0.00  0.00    -0.021 NA
ATOM      8  N   UNL     1       3.426   1.774   5.868  0.00  0.00    -0.042 NA
ATOM      9  N   UNL     1       3.797  -1.455   7.238  0.00  0.00    -0.305 N 
ATOM     10  H   UNL     1       4.562  -2.019   7.430  0.00  0.00    +0.150 HD
ENDROOT
BRANCH   1  15
ATOM     11  C   UNL     1       2.355  -7.679   7.932  0.00  0.00    +0.044 C 
ATOM     12  C   UNL     1       2.370  -6.178   7.806  0.00  0.00    -0.050 A 
ATOM     13  C   UNL     1       1.561  -5.407   8.620  0.00  0.00    +0.004 A 
ATOM     14  C   UNL     1       1.574  -4.030   8.504  0.00  0.00    +0.006 A 
ATOM     15  C   UNL     1       2.397  -3.423   7.574  0.00  0.00    -0.027 A 
ATOM     16  C   UNL     1       3.203  -4.193   6.757  0.00  0.00    +0.006 A 
ATOM     17  C   UNL     1       3.194  -5.570   6.876  0.00  0.00    +0.004 A 
ENDBRANCH   1  15
BRANCH   3  18
ATOM     18  C   UNL     1       0.938   0.438   4.817  0.00  0.00    -0.019 A 
ATOM     19  C   UNL     1       1.534   0.028   3.639  0.00  0.00    +0.009 A 
ATOM     20  C   UNL     1       0.993   0.398   2.422  0.00  0.00    +0.050 A 
ATOM     21  C   UNL     1      -0.148   1.182   2.380  0.00  0.00    +0.162 A 
ATOM     22  C   UNL     1      -0.745   1.600   3.566  0.00  0.00    +0.162 A 
ATOM     23  C   UNL     1      -0.201   1.221   4.783  0.00  0.00    +0.055 A 
BRANCH  22  24
ATOM     24  O   UNL     1      -1.862   2.374   3.531  0.00  0.00    -0.491 OA
ATOM     25  C   UNL     1      -2.420   2.766   4.787  0.00  0.00    +0.277 C 
ENDBRANCH  22  24
BRANCH  21  26
ATOM     26  O   UNL     1      -0.682   1.547   1.184  0.00  0.00    -0.491 OA
ATOM     27  C   UNL     1      -0.013   1.086   0.008  0.00  0.00    +0.277 C 
ENDBRANCH  21  26
ENDBRANCH   3  18
TORSDOF 4
