REMARK  Name = ZINC38604741
REMARK  8 active torsions:
REMARK  status: ('A' for Active; 'I' for Inactive)
REMARK    1  A    between atoms: C_1  and  C_2
REMARK    2  A    between atoms: N_5  and  C_11
REMARK    3  A    between atoms: C_7  and  C_10
REMARK    4  A    between atoms: C_11  and  C_12
REMARK    5  A    between atoms: N_14  and  C_15
REMARK    6  A    between atoms: C_23  and  C_25
REMARK    7  A    between atoms: C_25  and  O_27
REMARK    8  A    between atoms: O_27  and  C_28
REMARK                            x       y       z     vdW  Elec       q    Type
REMARK                         _______ _______ _______ _____ _____    ______ ____
ROOT
ATOM      1  C   UNL     1      -3.806  -6.176  -0.433  0.00  0.00    +0.053 C 
ATOM      2  C   UNL     1      -4.831  -7.080  -0.651  0.00  0.00    +0.019 A 
ATOM      3  C   UNL     1      -6.241  -6.946  -0.641  0.00  0.00    +0.031 A 
ATOM      4  C   UNL     1      -7.020  -8.027  -0.895  0.00  0.00    +0.042 A 
ATOM      5  C   UNL     1      -6.466  -9.282  -1.170  0.00  0.00    +0.022 A 
ATOM      6  C   UNL     1      -5.127  -9.482  -1.196  0.00  0.00    +0.027 A 
ATOM      7  C   UNL     1      -4.245  -8.400  -0.941  0.00  0.00    +0.045 A 
ATOM      8  N   UNL     1      -2.929  -8.336  -0.907  0.00  0.00    -0.367 N 
ATOM      9  C   UNL     1      -2.524  -6.961  -0.598  0.00  0.00    +0.234 C 
ATOM     10 CL   UNL     1      -8.747  -7.849  -0.879  0.00  0.00    -0.084 Cl
ATOM     11  H   UNL     1      -2.325  -9.078  -1.066  0.00  0.00    +0.161 HD
ENDROOT
BRANCH   1  14
ATOM     12  C   UNL     1      -2.853  -4.042  -0.219  0.00  0.00    +0.231 C 
ATOM     13  O   UNL     1      -1.766  -4.502  -0.496  0.00  0.00    -0.274 OA
ATOM     14  N   UNL     1      -3.927  -4.851  -0.136  0.00  0.00    -0.285 N 
ATOM     15  H   UNL     1      -4.786  -4.491   0.135  0.00  0.00    +0.155 HD
BRANCH  12  16
ATOM     16  C   UNL     1      -3.002  -2.563   0.032  0.00  0.00    +0.181 C 
BRANCH  16  20
ATOM     17  C   UNL     1      -0.597   1.721  -0.253  0.00  0.00    +0.039 C 
ATOM     18  C   UNL     1      -0.468   0.199  -0.334  0.00  0.00    +0.130 C 
ATOM     19  C   UNL     1      -1.840  -0.443  -0.116  0.00  0.00    +0.116 C 
ATOM     20  N   UNL     1      -1.697  -1.906  -0.118  0.00  0.00    -0.289 NA
ATOM     21  C   UNL     1      -0.765  -2.340   0.932  0.00  0.00    +0.116 C 
ATOM     22  C   UNL     1       0.597  -1.679   0.704  0.00  0.00    +0.130 C 
ATOM     23  O   UNL     1       0.434  -0.259   0.677  0.00  0.00    -0.371 OA
ATOM     24  C   UNL     1       1.177  -2.152  -0.631  0.00  0.00    +0.039 C 
ENDBRANCH  16  20
ENDBRANCH  12  16
ENDBRANCH   1  14
BRANCH   9  25
ATOM     25  C   UNL     1      -1.729  -6.933   0.682  0.00  0.00    +0.335 C 
ATOM     26  O   UNL     1      -1.736  -7.891   1.419  0.00  0.00    -0.248 OA
BRANCH  25  27
ATOM     27  O   UNL     1      -1.014  -5.844   1.005  0.00  0.00    -0.466 OA
ATOM     28  C   UNL     1      -0.285  -5.887   2.233  0.00  0.00    +0.280 C 
ENDBRANCH  25  27
ENDBRANCH   9  25
TORSDOF 5
