REMARK  Name = ZINC17191988
REMARK  3 active torsions:
REMARK  status: ('A' for Active; 'I' for Inactive)
REMARK    1  A    between atoms: C_4  and  C_7
REMARK    2  A    between atoms: C_10  and  C_13
REMARK    3  A    between atoms: N_18  and  C_19
REMARK                            x       y       z     vdW  Elec       q    Type
REMARK                         _______ _______ _______ _____ _____    ______ ____
ROOT
ATOM      1  C   UNL     1      -2.124  10.016  -0.330  0.00  0.00    +0.080 A 
ATOM      2  C   UNL     1      -0.856  10.529  -0.321  0.00  0.00    +0.076 A 
ATOM      3  S   UNL     1       0.107   9.029  -0.175  0.00  0.00    -0.060 S 
ATOM      4  C   UNL     1      -1.265   7.884  -0.151  0.00  0.00    +0.163 A 
ATOM      5  N   UNL     1      -2.295   8.705  -0.244  0.00  0.00    -0.225 NA
ATOM      6  N   UNL     1      -1.252   6.500  -0.053  0.00  0.00    -0.299 N 
ATOM      7  H   UNL     1      -2.087   6.006  -0.048  0.00  0.00    +0.154 HD
ENDROOT
BRANCH   6   8
ATOM      8  C   UNL     1      -0.077   5.840   0.034  0.00  0.00    +0.092 C 
ATOM      9  C   UNL     1      -0.066   4.474   0.245  0.00  0.00    +0.113 C 
ATOM     10  C   UNL     1       1.183   3.695   0.169  0.00  0.00    +0.256 C 
ATOM     11  O   UNL     1       2.243   4.236  -0.083  0.00  0.00    -0.270 OA
ATOM     12  N   UNL     1       1.119   2.365   0.387  0.00  0.00    -0.263 N 
ATOM     13  C   UNL     1      -0.043   1.756   0.665  0.00  0.00    +0.143 C 
ATOM     14  S   UNL     1      -0.028   0.064   0.927  0.00  0.00    -0.018 S 
ATOM     15  N   UNL     1      -1.215   2.401   0.745  0.00  0.00    -0.263 N 
ATOM     16  C   UNL     1      -1.301   3.733   0.556  0.00  0.00    +0.256 C 
ATOM     17  O   UNL     1      -2.371   4.308   0.637  0.00  0.00    -0.270 OA
ATOM     18  H   UNL     1       1.931   1.837   0.341  0.00  0.00    +0.157 HD
ATOM     19  H   UNL     1      -2.020   1.897   0.947  0.00  0.00    +0.157 HD
ENDBRANCH   6   8
BRANCH   1  23
ATOM     20  C   UNL     1      -5.486  12.605  -0.628  0.00  0.00    -0.018 A 
ATOM     21  C   UNL     1      -5.674  11.226  -0.539  0.00  0.00    +0.009 A 
ATOM     22  C   UNL     1      -4.586  10.388  -0.443  0.00  0.00    +0.010 A 
ATOM     23  C   UNL     1      -3.296  10.918  -0.434  0.00  0.00    +0.001 A 
ATOM     24  C   UNL     1      -3.108  12.298  -0.518  0.00  0.00    +0.010 A 
ATOM     25  C   UNL     1      -4.197  13.136  -0.620  0.00  0.00    +0.009 A 
BRANCH  20  29
ATOM     26  C   UNL     1      -8.847  15.193  -0.926  0.00  0.00    +0.000 A 
ATOM     27  C   UNL     1      -7.568  15.722  -0.918  0.00  0.00    +0.001 A 
ATOM     28  C   UNL     1      -6.474  14.887  -0.821  0.00  0.00    +0.008 A 
ATOM     29  C   UNL     1      -6.658  13.508  -0.732  0.00  0.00    -0.018 A 
ATOM     30  C   UNL     1      -7.949  12.981  -0.747  0.00  0.00    +0.008 A 
ATOM     31  C   UNL     1      -9.036  13.826  -0.839  0.00  0.00    +0.001 A 
ENDBRANCH  20  29
ENDBRANCH   1  23
TORSDOF 3
