REMARK  Name = ZINC15720190
REMARK  8 active torsions:
REMARK  status: ('A' for Active; 'I' for Inactive)
REMARK    1  A    between atoms: C_1  and  O_2
REMARK    2  A    between atoms: O_2  and  C_3
REMARK    3  A    between atoms: C_3  and  C_5
REMARK    4  A    between atoms: C_5  and  C_7
REMARK    5  A    between atoms: C_5  and  N_18
REMARK    6  A    between atoms: C_7  and  C_8
REMARK    7  A    between atoms: C_19  and  C_21
REMARK    8  A    between atoms: C_21  and  N_22
REMARK                            x       y       z     vdW  Elec       q    Type
REMARK                         _______ _______ _______ _____ _____    ______ ____
ROOT
ATOM      1  N   UNL     1       3.743  -0.556   2.161  0.00  0.00    -0.301 N 
ATOM      2  C   UNL     1       3.633  -0.488   3.503  0.00  0.00    +0.233 C 
ATOM      3  O   UNL     1       3.892   0.546   4.081  0.00  0.00    -0.274 OA
ATOM      4  H   UNL     1       3.536  -1.383   1.699  0.00  0.00    +0.150 HD
ENDROOT
BRANCH   1   5
ATOM      5  C   UNL     1       4.175   0.620   1.402  0.00  0.00    +0.186 C 
BRANCH   5   6
ATOM      6  C   UNL     1       5.681   0.677   1.378  0.00  0.00    +0.328 C 
ATOM      7  O   UNL     1       6.327  -0.177   1.938  0.00  0.00    -0.249 OA
BRANCH   6   9
ATOM      8  C   UNL     1       7.757   1.667   0.753  0.00  0.00    +0.280 C 
ATOM      9  O   UNL     1       6.305   1.676   0.734  0.00  0.00    -0.467 OA
ENDBRANCH   6   9
ENDBRANCH   5   6
BRANCH   5  10
ATOM     10  C   UNL     1       3.646   0.524  -0.031  0.00  0.00    +0.071 C 
BRANCH  10  11
ATOM     11  C   UNL     1       2.140   0.591  -0.015  0.00  0.00    -0.020 A 
ATOM     12  C   UNL     1       1.295  -0.452  -0.013  0.00  0.00    +0.087 A 
ATOM     13  N   UNL     1       0.002  -0.004   0.002  0.00  0.00    -0.360 N 
ATOM     14  H   UNL     1      -0.784  -0.572   0.006  0.00  0.00    +0.165 HD
ATOM     15  C   UNL     1      -0.017   1.373   0.010  0.00  0.00    +0.047 A 
ATOM     16  C   UNL     1       1.322   1.806  -0.001  0.00  0.00    +0.003 A 
ATOM     17  C   UNL     1       1.612   3.171   0.004  0.00  0.00    +0.010 A 
ATOM     18  C   UNL     1       0.593   4.082   0.019  0.00  0.00    +0.001 A 
ATOM     19  C   UNL     1      -0.729   3.659   0.029  0.00  0.00    +0.002 A 
ATOM     20  C   UNL     1      -1.038   2.317   0.029  0.00  0.00    +0.026 A 
ENDBRANCH  10  11
ENDBRANCH   5  10
ENDBRANCH   1   5
BRANCH   2  21
ATOM     21  C   UNL     1       3.188  -1.698   4.284  0.00  0.00    +0.227 C 
BRANCH  21  22
ATOM     22  N   UNL     1       3.149  -1.369   5.712  0.00  0.00    -0.194 N 
ATOM     23  C   UNL     1       4.216  -1.417   6.625  0.00  0.00    +0.061 A 
ATOM     24  C   UNL     1       5.540  -1.772   6.374  0.00  0.00    +0.025 A 
ATOM     25  C   UNL     1       6.484  -1.761   7.392  0.00  0.00    +0.002 A 
ATOM     26  C   UNL     1       6.176  -1.403   8.672  0.00  0.00    +0.009 A 
ATOM     27  C   UNL     1       4.855  -1.030   8.972  0.00  0.00    -0.014 A 
ATOM     28  C   UNL     1       3.903  -1.046   7.931  0.00  0.00    +0.031 A 
ATOM     29  C   UNL     1       2.577  -0.682   8.191  0.00  0.00    +0.118 A 
ATOM     30  C   UNL     1       2.198  -0.317   9.429  0.00  0.00    +0.029 A 
ATOM     31  C   UNL     1       3.135  -0.299  10.469  0.00  0.00    +0.003 A 
ATOM     32  C   UNL     1       4.437  -0.645  10.257  0.00  0.00    +0.009 A 
ATOM     33  S   UNL     1       1.820  -0.865   6.601  0.00  0.00    +0.076 S 
ATOM     34  O   UNL     1       1.457   0.430   6.142  0.00  0.00    -0.150 OA
ATOM     35  O   UNL     1       0.910  -1.954   6.676  0.00  0.00    -0.150 OA
ENDBRANCH  21  22
ENDBRANCH   2  21
TORSDOF 7
