REMARK  Name = ZINC66600692
REMARK  3 active torsions:
REMARK  status: ('A' for Active; 'I' for Inactive)
REMARK    1  A    between atoms: C_13  and  C_16
REMARK    2  A    between atoms: N_18  and  C_19
REMARK    3  A    between atoms: C_19  and  C_20
REMARK                            x       y       z     vdW  Elec       q    Type
REMARK                         _______ _______ _______ _____ _____    ______ ____
ROOT
ATOM      1  C   UNL     1      -0.017   1.366   0.010  0.00  0.00    +0.002 A 
ATOM      2  C   UNL     1       1.156   2.107   0.002  0.00  0.00    +0.001 A 
ATOM      3  C   UNL     1       2.373   1.449  -0.013  0.00  0.00    +0.017 A 
ATOM      4  C   UNL     1       2.401   0.077  -0.020  0.00  0.00    +0.041 A 
ATOM      5  C   UNL     1       1.227  -0.710  -0.013  0.00  0.00    +0.080 A 
ATOM      6  C   UNL     1       0.002  -0.004   0.002  0.00  0.00    +0.029 A 
ATOM      7  N   UNL     1       1.419  -2.047  -0.023  0.00  0.00    -0.225 NA
ATOM      8  C   UNL     1       2.616  -2.588  -0.037  0.00  0.00    +0.162 A 
ATOM      9  S   UNL     1       3.682  -1.153  -0.040  0.00  0.00    -0.052 S 
ATOM     10  N   UNL     1       2.963  -3.924  -0.048  0.00  0.00    -0.310 N 
ATOM     11  C   UNL     1       1.927  -4.966  -0.050  0.00  0.00    +0.108 C 
ATOM     12  C   UNL     1       2.183  -5.914  -1.226  0.00  0.00    +0.032 C 
ATOM     13  C   UNL     1       3.614  -6.450  -1.140  0.00  0.00    +0.078 C 
ATOM     14  C   UNL     1       4.604  -5.287  -1.233  0.00  0.00    +0.032 C 
ATOM     15  C   UNL     1       4.374  -4.331  -0.064  0.00  0.00    +0.108 C 
ENDROOT
BRANCH  13  16
ATOM     16  C   UNL     1       3.860  -7.410  -2.276  0.00  0.00    +0.217 C 
ATOM     17  O   UNL     1       2.977  -7.643  -3.075  0.00  0.00    -0.276 OA
ATOM     18  N   UNL     1       5.059  -8.011  -2.403  0.00  0.00    -0.308 N 
ATOM     19  H   UNL     1       5.765  -7.825  -1.764  0.00  0.00    +0.149 HD
BRANCH  18  20
ATOM     20  C   UNL     1       5.298  -8.944  -3.507  0.00  0.00    +0.181 C 
BRANCH  20  21
ATOM     21  C   UNL     1       6.707  -9.472  -3.423  0.00  0.00    +0.155 A 
ATOM     22  N   UNL     1       7.766  -8.941  -3.978  0.00  0.00    -0.132 NA
ATOM     23  N   UNL     1       8.810  -9.643  -3.708  0.00  0.00    -0.129 NA
ATOM     24  C   UNL     1       8.466 -10.675  -2.955  0.00  0.00    +0.161 A 
ATOM     25  N   UNL     1       7.110 -10.584  -2.752  0.00  0.00    -0.285 N 
ATOM     26  C   UNL     1       6.460 -11.517  -1.999  0.00  0.00    +0.094 A 
ATOM     27  C   UNL     1       7.139 -12.541  -1.440  0.00  0.00    +0.018 A 
ATOM     28  C   UNL     1       8.527 -12.659  -1.627  0.00  0.00    +0.005 A 
ATOM     29  C   UNL     1       9.187 -11.741  -2.382  0.00  0.00    +0.048 A 
ENDBRANCH  20  21
ENDBRANCH  18  20
ENDBRANCH  13  16
TORSDOF 3
