REMARK  Name = ZINC19499563
REMARK  10 active torsions:
REMARK  status: ('A' for Active; 'I' for Inactive)
REMARK    1  A    between atoms: C_1  and  C_2
REMARK    2  A    between atoms: C_2  and  C_3
REMARK    3  A    between atoms: C_3  and  C_4
REMARK    4  A    between atoms: C_3  and  C_5
REMARK    5  A    between atoms: C_3  and  N_6
REMARK    6  A    between atoms: C_7  and  C_11
REMARK    7  A    between atoms: C_11  and  C_13
REMARK    8  A    between atoms: C_11  and  N_27
REMARK    9  A    between atoms: C_17  and  C_26
REMARK   10  A    between atoms: C_19  and  C_25
REMARK                            x       y       z     vdW  Elec       q    Type
REMARK                         _______ _______ _______ _____ _____    ______ ____
ROOT
ATOM      1  C   UNL     1      -1.082   7.329   0.191  0.00  0.00    +0.162 C 
ENDROOT
BRANCH   1   2
ATOM      2  C   UNL     1      -1.299   5.856   0.418  0.00  0.00    +0.042 A 
ATOM      3  C   UNL     1      -0.243   5.054   0.705  0.00  0.00    +0.021 A 
ATOM      4  C   UNL     1      -0.488   3.626   0.920  0.00  0.00    -0.001 A 
ATOM      5  C   UNL     1       0.560   2.749   1.219  0.00  0.00    +0.013 A 
ATOM      6  C   UNL     1       0.299   1.423   1.414  0.00  0.00    -0.050 A 
ATOM      7  C   UNL     1      -0.998   0.937   1.319  0.00  0.00    +0.008 A 
ATOM      8  C   UNL     1      -2.046   1.782   1.020  0.00  0.00    -0.026 A 
ATOM      9  C   UNL     1      -1.804   3.137   0.822  0.00  0.00    +0.052 A 
ATOM     10  N   UNL     1      -2.834   4.005   0.527  0.00  0.00    -0.322 N 
ATOM     11  H   UNL     1      -3.865   3.630   0.450  0.00  0.00    +0.169 HD
ATOM     12  C   UNL     1      -2.599   5.315   0.331  0.00  0.00    +0.254 A 
ATOM     13  O   UNL     1      -3.534   6.053   0.072  0.00  0.00    -0.268 OA
ATOM     14  C   UNL     1      -3.447   1.239   0.913  0.00  0.00    +0.046 C 
ATOM     15  C   UNL     1       1.428   0.479   1.737  0.00  0.00    +0.044 C 
ENDBRANCH   1   2
BRANCH   1  16
ATOM     16  N   UNL     1      -1.635   7.710  -1.116  0.00  0.00    -0.285 NA
ATOM     17  C   UNL     1      -0.980   6.967  -2.202  0.00  0.00    +0.113 C 
ATOM     18  C   UNL     1      -1.627   7.350  -3.537  0.00  0.00    +0.175 C 
ATOM     19  O   UNL     1      -1.536   8.765  -3.716  0.00  0.00    -0.377 OA
ATOM     20  C   UNL     1      -2.164   9.520  -2.676  0.00  0.00    +0.175 C 
ATOM     21  C   UNL     1      -1.523   9.159  -1.334  0.00  0.00    +0.113 C 
ENDBRANCH   1  16
BRANCH   1  23
ATOM     22  N   UNL     1      -1.182   8.817   2.260  0.00  0.00    -0.222 N 
ATOM     23  C   UNL     1      -1.773   8.112   1.277  0.00  0.00    +0.174 A 
ATOM     24  N   UNL     1      -3.066   8.235   1.451  0.00  0.00    -0.111 NA
ATOM     25  N   UNL     1      -3.260   8.980   2.484  0.00  0.00    -0.023 NA
ATOM     26  N   UNL     1      -2.124   9.336   2.973  0.00  0.00    -0.043 NA
BRANCH  22  27
ATOM     27  C   UNL     1       0.259   8.968   2.477  0.00  0.00    +0.062 C 
ATOM     28  C   UNL     1       0.898   7.588   2.636  0.00  0.00    +0.036 C 
ATOM     29  C   UNL     1       0.883   9.684   1.277  0.00  0.00    +0.036 C 
BRANCH  27  31
ATOM     30  C   UNL     1       2.004   9.950   3.971  0.00  0.00    +0.006 C 
ATOM     31  C   UNL     1       0.500   9.791   3.744  0.00  0.00    +0.026 C 
ENDBRANCH  27  31
ENDBRANCH  22  27
ENDBRANCH   1  23
TORSDOF 5
