REMARK  Name = ZINC09430372
REMARK  4 active torsions:
REMARK  status: ('A' for Active; 'I' for Inactive)
REMARK    1  A    between atoms: C_1  and  C_2
REMARK    2  A    between atoms: C_2  and  C_3
REMARK    3  A    between atoms: C_3  and  N_4
REMARK    4  A    between atoms: C_13  and  C_20
REMARK                            x       y       z     vdW  Elec       q    Type
REMARK                         _______ _______ _______ _____ _____    ______ ____
ROOT
ATOM      1  N   UNL     1       0.738  -1.962  -1.265  0.00  0.00    -0.225 N 
ATOM      2  C   UNL     1       1.764  -2.599  -0.688  0.00  0.00    +0.241 C 
ATOM      3  O   UNL     1       2.645  -1.944  -0.175  0.00  0.00    -0.274 OA
ATOM      4  C   UNL     1       1.860  -4.103  -0.653  0.00  0.00    +0.150 C 
ATOM      5  C   UNL     1       3.120  -4.534  -1.393  0.00  0.00    +0.072 C 
ATOM      6  C   UNL     1       4.050  -5.409  -0.619  0.00  0.00    +0.057 A 
ATOM      7  C   UNL     1       3.614  -6.162   0.471  0.00  0.00    +0.109 A 
ATOM      8  N   UNL     1       4.432  -6.975   1.115  0.00  0.00    -0.329 N 
ATOM      9  C   UNL     1       5.714  -7.066   0.761  0.00  0.00    +0.122 A 
ATOM     10  C   UNL     1       6.566  -7.937   1.464  0.00  0.00    -0.009 A 
ATOM     11  C   UNL     1       7.881  -8.014   1.115  0.00  0.00    +0.008 A 
ATOM     12  C   UNL     1       8.362  -7.227   0.059  0.00  0.00    +0.019 A 
ATOM     13  C   UNL     1       7.527  -6.402  -0.610  0.00  0.00    +0.096 A 
ATOM     14  N   UNL     1       6.208  -6.321  -0.274  0.00  0.00    -0.269 N 
ATOM     15  C   UNL     1       5.396  -5.501  -0.975  0.00  0.00    +0.263 A 
ATOM     16  O   UNL     1       5.835  -4.849  -1.911  0.00  0.00    -0.267 OA
ATOM     17  C   UNL     1       6.030  -8.777   2.595  0.00  0.00    +0.047 C 
ATOM     18  N   UNL     1       2.298  -5.953   0.870  0.00  0.00    -0.307 N 
ATOM     19  C   UNL     1       1.871  -4.559   0.806  0.00  0.00    +0.129 C 
ATOM     20  C   UNL     1       0.545  -4.320   1.457  0.00  0.00    -0.022 A 
ATOM     21  C   UNL     1      -0.030  -3.061   1.333  0.00  0.00    +0.006 A 
ATOM     22  C   UNL     1      -1.255  -2.789   1.904  0.00  0.00    +0.000 A 
ATOM     23  C   UNL     1      -1.921  -3.777   2.605  0.00  0.00    +0.000 A 
ATOM     24  C   UNL     1      -1.351  -5.027   2.733  0.00  0.00    +0.004 A 
ATOM     25  C   UNL     1      -0.113  -5.300   2.166  0.00  0.00    -0.041 A 
ATOM     26  C   UNL     1       0.471  -6.668   2.368  0.00  0.00    +0.054 C 
ATOM     27  C   UNL     1       1.445  -7.048   1.271  0.00  0.00    +0.112 C 
ATOM     28  C   UNL     1       0.662  -4.711  -1.338  0.00  0.00    +0.238 C 
ATOM     29  N   UNL     1      -0.305  -3.963  -1.882  0.00  0.00    -0.239 N 
ATOM     30  C   UNL     1      -0.275  -2.622  -1.846  0.00  0.00    +0.315 C 
ATOM     31  O   UNL     1      -1.182  -1.993  -2.353  0.00  0.00    -0.252 OA
ATOM     32  O   UNL     1       0.572  -5.918  -1.398  0.00  0.00    -0.274 OA
ATOM     33  H   UNL     1       4.097  -7.511   1.851  0.00  0.00    +0.168 HD
ATOM     34  H   UNL     1      -1.053  -4.404  -2.313  0.00  0.00    +0.159 HD
ENDROOT
BRANCH   1  35
ATOM     35  C   UNL     1       0.718  -0.497  -1.257  0.00  0.00    +0.118 C 
BRANCH  35  37
ATOM     36  C   UNL     1      -0.019   1.526   0.010  0.00  0.00    +0.005 C 
ATOM     37  C   UNL     1       0.002  -0.004   0.002  0.00  0.00    +0.016 C 
ENDBRANCH  35  37
ENDBRANCH   1  35
TORSDOF 2
