REMARK  Name = ZINC13245501
REMARK  9 active torsions:
REMARK  status: ('A' for Active; 'I' for Inactive)
REMARK    1  A    between atoms: C_1  and  C_2
REMARK    2  A    between atoms: C_2  and  C_3
REMARK    3  A    between atoms: C_2  and  C_4
REMARK    4  A    between atoms: C_4  and  C_6
REMARK    5  A    between atoms: C_4  and  N_8
REMARK    6  A    between atoms: C_18  and  S_19
REMARK    7  A    between atoms: S_19  and  C_20
REMARK    8  A    between atoms: C_20  and  C_21
REMARK    9  A    between atoms: C_24  and  C_27
REMARK                            x       y       z     vdW  Elec       q    Type
REMARK                         _______ _______ _______ _____ _____    ______ ____
ROOT
ATOM      1  N   UNL     1      -1.223  -2.433   0.245  0.00  0.00    -0.273 N 
ATOM      2  C   UNL     1      -1.105  -1.100   0.451  0.00  0.00    +0.263 A 
ATOM      3  O   UNL     1      -2.087  -0.388   0.554  0.00  0.00    -0.267 OA
ATOM      4  C   UNL     1       0.252  -0.545   0.546  0.00  0.00    +0.065 A 
ATOM      5  C   UNL     1       0.479   0.814   0.757  0.00  0.00    +0.015 A 
ATOM      6  C   UNL     1       1.763   1.278   0.838  0.00  0.00    +0.001 A 
ATOM      7  C   UNL     1       2.840   0.411   0.712  0.00  0.00    +0.002 A 
ATOM      8  C   UNL     1       2.647  -0.925   0.505  0.00  0.00    +0.028 A 
ATOM      9  C   UNL     1       1.346  -1.431   0.417  0.00  0.00    +0.079 A 
ATOM     10  N   UNL     1       1.108  -2.747   0.213  0.00  0.00    -0.223 NA
ATOM     11  C   UNL     1      -0.112  -3.218   0.132  0.00  0.00    +0.173 A 
ENDROOT
BRANCH   1  12
ATOM     12  C   UNL     1      -2.554  -3.037   0.143  0.00  0.00    +0.208 C 
BRANCH  12  14
ATOM     13  C   UNL     1      -4.524  -3.363  -1.358  0.00  0.00    +0.010 C 
ATOM     14  C   UNL     1      -3.218  -2.590  -1.160  0.00  0.00    +0.017 C 
ATOM     15  C   UNL     1      -3.519  -1.091  -1.092  0.00  0.00    +0.010 C 
ENDBRANCH  12  14
BRANCH  12  16
ATOM     16  C   UNL     1      -3.396  -2.597   1.313  0.00  0.00    +0.379 C 
ATOM     17  O   UNL     1      -2.932  -1.855   2.147  0.00  0.00    -0.244 OA
ATOM     18  O   UNL     1      -4.661  -3.030   1.429  0.00  0.00    -0.244 OA
ENDBRANCH  12  16
ENDBRANCH   1  12
BRANCH  11  19
ATOM     19  S   UNL     1      -0.329  -4.946  -0.136  0.00  0.00    -0.083 S 
BRANCH  19  20
ATOM     20  C   UNL     1       1.401  -5.473  -0.204  0.00  0.00    +0.112 C 
BRANCH  20  21
ATOM     21  C   UNL     1       1.464  -6.962  -0.433  0.00  0.00    -0.037 A 
ATOM     22  C   UNL     1       1.490  -7.824   0.649  0.00  0.00    +0.005 A 
ATOM     23  C   UNL     1       1.543  -9.188   0.446  0.00  0.00    +0.013 A 
ATOM     24  C   UNL     1       1.581  -9.696  -0.853  0.00  0.00    +0.037 A 
ATOM     25  C   UNL     1       1.559  -8.821  -1.940  0.00  0.00    +0.013 A 
ATOM     26  C   UNL     1       1.501  -7.459  -1.723  0.00  0.00    +0.005 A 
BRANCH  24  27
ATOM     27  C   UNL     1       1.643 -11.156  -1.077  0.00  0.00    +0.242 C 
ATOM     28  O   UNL     1       1.675 -11.597  -2.210  0.00  0.00    -0.270 OA
ATOM     29  N   UNL     1       1.663 -11.999  -0.026  0.00  0.00    -0.325 N 
ATOM     30  H   UNL     1       1.637 -11.648   0.878  0.00  0.00    +0.145 HD
ATOM     31  H   UNL     1       1.704 -12.957  -0.173  0.00  0.00    +0.145 HD
ENDBRANCH  24  27
ENDBRANCH  20  21
ENDBRANCH  19  20
ENDBRANCH  11  19
TORSDOF 7
