REMARK  Name = ZINC14467155
REMARK  4 active torsions:
REMARK  status: ('A' for Active; 'I' for Inactive)
REMARK    1  A    between atoms: C_3  and  O_29
REMARK    2  A    between atoms: C_6  and  N_7
REMARK    3  A    between atoms: C_17  and  C_20
REMARK    4  A    between atoms: C_25  and  O_26
REMARK                            x       y       z     vdW  Elec       q    Type
REMARK                         _______ _______ _______ _____ _____    ______ ____
ROOT
ATOM      1  C   UNL     1      -0.017   1.377  -0.032  0.00  0.00    +0.037 A 
ATOM      2  C   UNL     1       1.172   2.086  -0.039  0.00  0.00    +0.049 A 
ATOM      3  C   UNL     1       2.380   1.413  -0.021  0.00  0.00    +0.138 A 
ATOM      4  C   UNL     1       2.408   0.019   0.008  0.00  0.00    +0.076 A 
ATOM      5  C   UNL     1       1.201  -0.685   0.029  0.00  0.00    +0.014 A 
ATOM      6  C   UNL     1       0.002  -0.004   0.002  0.00  0.00    +0.132 A 
ATOM      7  C   UNL     1       1.274  -2.161   0.101  0.00  0.00    +0.051 C 
ATOM      8  C   UNL     1       0.195  -3.027  -0.439  0.00  0.00    -0.023 C 
ATOM      9  C   UNL     1       0.735  -4.162  -0.867  0.00  0.00    -0.030 C 
ATOM     10  C   UNL     1       2.252  -4.125  -0.670  0.00  0.00    +0.033 C 
ATOM     11  C   UNL     1       2.516  -2.619  -0.722  0.00  0.00    +0.029 C 
ATOM     12  C   UNL     1       3.722  -2.120   0.054  0.00  0.00    +0.109 C 
ATOM     13  N   UNL     1       3.644  -0.643   0.004  0.00  0.00    -0.333 N 
ATOM     14  H   UNL     1       4.463  -0.124  -0.032  0.00  0.00    +0.147 HD
ENDROOT
BRANCH  12  15
ATOM     15  C   UNL     1       3.658  -2.600   1.481  0.00  0.00    +0.017 A 
ATOM     16  C   UNL     1       3.111  -1.790   2.459  0.00  0.00    +0.029 A 
ATOM     17  C   UNL     1       3.052  -2.229   3.769  0.00  0.00    +0.043 A 
ATOM     18  C   UNL     1       3.540  -3.480   4.104  0.00  0.00    +0.043 A 
ATOM     19  C   UNL     1       4.088  -4.293   3.130  0.00  0.00    +0.084 A 
ATOM     20  C   UNL     1       4.142  -3.856   1.813  0.00  0.00    +0.140 A 
ATOM     21 CL   UNL     1       4.701  -5.862   3.550  0.00  0.00    -0.080 Cl
ATOM     22 CL   UNL     1       2.365  -1.210   4.995  0.00  0.00    -0.083 Cl
BRANCH  20  23
ATOM     23  O   UNL     1       4.675  -4.656   0.852  0.00  0.00    -0.505 OA
ATOM     24  H   UNL     1       5.627  -4.539   0.726  0.00  0.00    +0.292 HD
ENDBRANCH  20  23
ENDBRANCH  12  15
BRANCH   6  25
ATOM     25  N   UNL     1      -1.272  -0.757   0.009  0.00  0.00    +0.057 N 
ATOM     26  O   UNL     1      -2.105  -0.543  -0.841  0.00  0.00    -0.126 OA
ATOM     27  O   UNL     1      -1.480  -1.586   0.864  0.00  0.00    -0.126 OA
ENDBRANCH   6  25
BRANCH   3  28
ATOM     28  O   UNL     1       3.546   2.113  -0.033  0.00  0.00    -0.505 OA
ATOM     29  H   UNL     1       3.881   2.335   0.847  0.00  0.00    +0.292 HD
ENDBRANCH   3  28
TORSDOF 4
