REMARK  Name = ZINC09500226
REMARK  8 active torsions:
REMARK  status: ('A' for Active; 'I' for Inactive)
REMARK    1  A    between atoms: C_4  and  C_7
REMARK    2  A    between atoms: C_7  and  N_8
REMARK    3  A    between atoms: C_9  and  N_38
REMARK    4  A    between atoms: C_10  and  N_17
REMARK    5  A    between atoms: N_17  and  C_18
REMARK    6  A    between atoms: C_18  and  C_19
REMARK    7  A    between atoms: C_24  and  C_26
REMARK    8  A    between atoms: N_31  and  C_33
REMARK                            x       y       z     vdW  Elec       q    Type
REMARK                         _______ _______ _______ _____ _____    ______ ____
ROOT
ATOM      1  N   UNL     1      -1.290   1.447   1.044  0.00  0.00    -0.257 N 
ATOM      2  C   UNL     1      -0.638   2.249   1.911  0.00  0.00    +0.225 C 
ATOM      3  O   UNL     1       0.402   2.780   1.580  0.00  0.00    -0.275 OA
ENDROOT
BRANCH   1   6
ATOM      4  N   UNL     1      -3.922  -0.955   1.944  0.00  0.00    -0.276 N 
ATOM      5  C   UNL     1      -2.687  -0.454   1.604  0.00  0.00    +0.128 A 
ATOM      6  C   UNL     1      -2.544   0.903   1.394  0.00  0.00    +0.140 A 
ATOM      7  C   UNL     1      -3.670   1.735   1.541  0.00  0.00    +0.277 A 
ATOM      8  O   UNL     1      -3.571   2.938   1.367  0.00  0.00    -0.266 OA
ATOM      9  N   UNL     1      -4.859   1.193   1.870  0.00  0.00    -0.273 N 
ATOM     10  H   UNL     1      -5.661   1.782   1.966  0.00  0.00    +0.173 HD
ATOM     11  C   UNL     1      -4.979  -0.132   2.070  0.00  0.00    +0.331 A 
ATOM     12  O   UNL     1      -6.063  -0.594   2.371  0.00  0.00    -0.246 OA
BRANCH   5  13
ATOM     13  N   UNL     1      -1.608  -1.294   1.473  0.00  0.00    -0.343 N 
ATOM     14  H   UNL     1      -0.720  -0.927   1.337  0.00  0.00    +0.144 HD
ATOM     15  H   UNL     1      -1.733  -2.255   1.518  0.00  0.00    +0.144 HD
ENDBRANCH   5  13
BRANCH   4  16
ATOM     16  C   UNL     1      -4.088  -2.393   2.169  0.00  0.00    +0.163 C 
BRANCH  16  20
ATOM     17  C   UNL     1      -3.382  -3.280   6.287  0.00  0.00    +0.000 A 
ATOM     18  C   UNL     1      -4.657  -2.966   5.857  0.00  0.00    +0.000 A 
ATOM     19  C   UNL     1      -4.886  -2.678   4.524  0.00  0.00    +0.005 A 
ATOM     20  C   UNL     1      -3.839  -2.705   3.622  0.00  0.00    -0.028 A 
ATOM     21  C   UNL     1      -2.564  -3.025   4.052  0.00  0.00    +0.005 A 
ATOM     22  C   UNL     1      -2.335  -3.307   5.385  0.00  0.00    +0.000 A 
ENDBRANCH  16  20
ENDBRANCH   4  16
ENDBRANCH   1   6
BRANCH   2  23
ATOM     23  C   UNL     1      -1.200   2.486   3.288  0.00  0.00    +0.101 C 
ATOM     24  C   UNL     1      -0.576   1.514   4.316  0.00  0.00    +0.110 C 
ATOM     25  C   UNL     1      -0.431   2.344   5.572  0.00  0.00    +0.217 C 
ATOM     26  O   UNL     1      -0.246   1.895   6.684  0.00  0.00    -0.276 OA
ATOM     27  N   UNL     1      -0.539   3.651   5.278  0.00  0.00    -0.298 N 
ATOM     28  C   UNL     1      -0.752   3.858   3.840  0.00  0.00    +0.121 C 
BRANCH  27  29
ATOM     29  C   UNL     1      -0.455   4.730   6.265  0.00  0.00    +0.076 C 
ATOM     30  C   UNL     1       0.888   4.651   7.021  0.00  0.00    +0.022 C 
ATOM     31  C   UNL     1       0.530   5.055   8.473  0.00  0.00    +0.002 C 
ATOM     32  C   UNL     1      -0.856   4.396   8.680  0.00  0.00    +0.002 C 
ATOM     33  C   UNL     1      -1.563   4.568   7.319  0.00  0.00    +0.022 C 
ENDBRANCH  27  29
ENDBRANCH   2  23
BRANCH   1  34
ATOM     34  C   UNL     1      -0.697   1.141  -0.260  0.00  0.00    +0.188 C 
BRANCH  34  35
ATOM     35  C   UNL     1      -1.244   2.090  -1.296  0.00  0.00    +0.122 A 
ATOM     36  C   UNL     1      -0.707   3.275  -1.637  0.00  0.00    +0.046 A 
ATOM     37  C   UNL     1      -1.536   3.825  -2.641  0.00  0.00    +0.041 A 
ATOM     38  C   UNL     1      -2.534   2.947  -2.848  0.00  0.00    +0.195 A 
ATOM     39  O   UNL     1      -2.351   1.898  -2.030  0.00  0.00    -0.466 OA
ENDBRANCH  34  35
ENDBRANCH   1  34
TORSDOF 8
