REMARK  Name = ZINC59381739
REMARK  8 active torsions:
REMARK  status: ('A' for Active; 'I' for Inactive)
REMARK    1  A    between atoms: C_1  and  C_2
REMARK    2  A    between atoms: C_5  and  C_7
REMARK    3  A    between atoms: C_5  and  O_11
REMARK    4  A    between atoms: C_7  and  C_8
REMARK    5  A    between atoms: C_8  and  C_9
REMARK    6  A    between atoms: C_8  and  C_10
REMARK    7  A    between atoms: C_12  and  C_14
REMARK    8  A    between atoms: C_18  and  N_20
REMARK                            x       y       z     vdW  Elec       q    Type
REMARK                         _______ _______ _______ _____ _____    ______ ____
ROOT
ATOM      1  C   UNL     1      -0.556   0.882  -0.993  0.00  0.00    +0.062 C 
ATOM      2  C   UNL     1      -0.510  -0.599  -0.718  0.00  0.00    +0.039 C 
ATOM      3  N   UNL     1      -0.658  -1.509  -1.591  0.00  0.00    -0.184 NA
ATOM      4  N   UNL     1      -0.574  -2.807  -1.092  0.00  0.00    -0.157 N 
ATOM      5  C   UNL     1      -0.328  -2.741   0.358  0.00  0.00    +0.161 C 
ATOM      6  C   UNL     1      -0.275  -1.225   0.638  0.00  0.00    +0.109 C 
ATOM      7  C   UNL     1      -0.697  -3.937  -1.817  0.00  0.00    +0.268 C 
ATOM      8  O   UNL     1      -0.520  -5.019  -1.292  0.00  0.00    -0.268 OA
ENDROOT
BRANCH   7   9
ATOM      9  C   UNL     1      -1.049  -3.860  -3.251  0.00  0.00    +0.041 A 
ATOM     10  C   UNL     1      -1.128  -2.620  -3.888  0.00  0.00    +0.013 A 
ATOM     11  C   UNL     1      -1.456  -2.556  -5.226  0.00  0.00    +0.003 A 
ATOM     12  C   UNL     1      -1.707  -3.717  -5.937  0.00  0.00    +0.033 A 
ATOM     13  C   UNL     1      -1.630  -4.948  -5.312  0.00  0.00    +0.127 A 
ATOM     14  C   UNL     1      -1.297  -5.027  -3.975  0.00  0.00    +0.045 A 
BRANCH  13  15
ATOM     15  N   UNL     1      -1.899  -6.184  -6.080  0.00  0.00    +0.056 N 
ATOM     16  O   UNL     1      -2.186  -6.117  -7.252  0.00  0.00    -0.126 OA
ATOM     17  O   UNL     1      -1.832  -7.261  -5.535  0.00  0.00    -0.126 OA
ENDBRANCH  13  15
ENDBRANCH   7   9
BRANCH   5  18
ATOM     18  O   UNL     1       0.920  -3.354   0.687  0.00  0.00    -0.369 OA
ATOM     19  H   UNL     1       1.683  -2.951   0.251  0.00  0.00    +0.212 HD
ENDBRANCH   5  18
BRANCH   5  20
ATOM     20  C   UNL     1      -1.474  -3.397   1.130  0.00  0.00    +0.060 C 
BRANCH  20  21
ATOM     21  C   UNL     1      -1.259  -3.195   2.632  0.00  0.00    -0.013 C 
ATOM     22  C   UNL     1      -2.472  -3.729   3.397  0.00  0.00    +0.007 C 
ATOM     23  C   UNL     1      -0.004  -3.950   3.073  0.00  0.00    +0.007 C 
ENDBRANCH  20  21
ENDBRANCH   5  20
TORSDOF 5
