REMARK  Name = ZINC61683724
REMARK  4 active torsions:
REMARK  status: ('A' for Active; 'I' for Inactive)
REMARK    1  A    between atoms: C_1  and  C_2
REMARK    2  A    between atoms: C_2  and  C_3
REMARK    3  A    between atoms: C_2  and  N_4
REMARK    4  A    between atoms: C_6  and  N_9
REMARK                            x       y       z     vdW  Elec       q    Type
REMARK                         _______ _______ _______ _____ _____    ______ ____
ROOT
ATOM      1  N   UNL     1       0.936  -1.404  -4.630  0.00  0.00    -0.296 N 
ATOM      2  C   UNL     1       2.015  -1.855  -5.367  0.00  0.00    +0.134 A 
ATOM      3  C   UNL     1       1.866  -2.162  -6.748  0.00  0.00    +0.048 A 
ATOM      4  C   UNL     1       0.689  -2.081  -7.596  0.00  0.00    +0.021 A 
ATOM      5  C   UNL     1       0.788  -2.427  -8.888  0.00  0.00    +0.048 A 
ATOM      6  S   UNL     1       2.499  -2.894  -9.065  0.00  0.00    -0.077 S 
ATOM      7  C   UNL     1       3.036  -2.612  -7.398  0.00  0.00    +0.113 A 
ATOM      8  N   UNL     1       4.178  -2.734  -6.751  0.00  0.00    -0.228 NA
ATOM      9  C   UNL     1       4.254  -2.434  -5.469  0.00  0.00    +0.224 A 
ATOM     10  N   UNL     1       3.202  -2.000  -4.799  0.00  0.00    -0.220 NA
ATOM     11  H   UNL     1       0.069  -1.299  -5.052  0.00  0.00    +0.154 HD
ENDROOT
BRANCH   1  14
ATOM     12  N   UNL     1       0.688  -0.476  -1.203  0.00  0.00    -0.267 N 
ATOM     13  C   UNL     1       0.125  -0.649  -2.428  0.00  0.00    +0.132 A 
ATOM     14  C   UNL     1       1.095  -1.097  -3.265  0.00  0.00    +0.070 A 
ATOM     15  C   UNL     1       2.284  -1.202  -2.528  0.00  0.00    +0.157 A 
ATOM     16  N   UNL     1       2.041  -0.825  -1.299  0.00  0.00    -0.178 NA
BRANCH  12  18
ATOM     17  C   UNL     1      -0.019   1.526   0.010  0.00  0.00    +0.032 C 
ATOM     18  C   UNL     1       0.002  -0.004   0.002  0.00  0.00    +0.101 C 
ATOM     19  C   UNL     1      -1.433  -0.534   0.013  0.00  0.00    +0.032 C 
ENDBRANCH  12  18
ENDBRANCH   1  14
TORSDOF 2
