REMARK  Name = ZINC63819040
REMARK  4 active torsions:
REMARK  status: ('A' for Active; 'I' for Inactive)
REMARK    1  A    between atoms: C_7  and  C_10
REMARK    2  A    between atoms: C_16  and  C_18
REMARK    3  A    between atoms: N_23  and  S_24
REMARK    4  A    between atoms: S_24  and  C_27
REMARK                            x       y       z     vdW  Elec       q    Type
REMARK                         _______ _______ _______ _____ _____    ______ ____
ROOT
ATOM      1  C   UNL     1       0.669  -3.134  -0.022  0.00  0.00    +0.079 A 
ATOM      2  C   UNL     1       1.141  -4.440  -0.030  0.00  0.00    +0.076 A 
ATOM      3  S   UNL     1      -0.282  -5.339  -0.023  0.00  0.00    -0.060 S 
ATOM      4  C   UNL     1      -1.446  -3.989  -0.011  0.00  0.00    +0.165 A 
ATOM      5  N   UNL     1      -0.655  -2.938  -0.008  0.00  0.00    -0.225 NA
ATOM      6  N   UNL     1      -2.832  -4.034  -0.003  0.00  0.00    -0.263 N 
ATOM      7  C   UNL     1      -3.467  -5.223  -0.003  0.00  0.00    +0.238 C 
ATOM      8  O   UNL     1      -2.827  -6.253  -0.010  0.00  0.00    -0.274 OA
ATOM      9  H   UNL     1      -3.345  -3.211   0.003  0.00  0.00    +0.157 HD
ENDROOT
BRANCH   1  16
ATOM     10  C   UNL     1      -0.016   1.353   0.009  0.00  0.00    +0.001 A 
ATOM     11  C   UNL     1       1.163   2.101   0.002  0.00  0.00    +0.002 A 
ATOM     12  C   UNL     1       2.384   1.511  -0.013  0.00  0.00    +0.026 A 
ATOM     13  C   UNL     1       2.484   0.096  -0.022  0.00  0.00    +0.043 A 
ATOM     14  N   UNL     1       3.532  -0.704  -0.037  0.00  0.00    -0.380 N 
ATOM     15  C   UNL     1       3.075  -2.097  -0.041  0.00  0.00    +0.151 C 
ATOM     16  C   UNL     1       1.563  -2.041  -0.025  0.00  0.00    +0.007 C 
ATOM     17  C   UNL     1       1.238  -0.688  -0.013  0.00  0.00    +0.005 A 
ATOM     18  C   UNL     1       0.002  -0.004   0.002  0.00  0.00    +0.010 A 
ATOM     19  H   UNL     1       4.458  -0.417  -0.045  0.00  0.00    +0.160 HD
ENDBRANCH   1  16
BRANCH   7  20
ATOM     20  C   UNL     1      -4.973  -5.273   0.006  0.00  0.00    +0.166 C 
ATOM     21  C   UNL     1      -5.529  -4.599  -1.266  0.00  0.00    +0.031 C 
ATOM     22  C   UNL     1      -5.792  -5.803  -2.210  0.00  0.00    +0.019 C 
ATOM     23  C   UNL     1      -6.255  -6.889  -1.207  0.00  0.00    +0.110 C 
ATOM     24  N   UNL     1      -5.428  -6.671  -0.003  0.00  0.00    -0.165 NA
BRANCH  24  25
ATOM     25  S   UNL     1      -5.069  -7.810   1.145  0.00  0.00    +0.062 S 
ATOM     26  O   UNL     1      -5.198  -9.077   0.514  0.00  0.00    -0.153 OA
ATOM     27  O   UNL     1      -3.864  -7.390   1.771  0.00  0.00    -0.153 OA
BRANCH  25  28
ATOM     28  C   UNL     1      -6.329  -7.728   2.373  0.00  0.00    +0.106 A 
ATOM     29  C   UNL     1      -6.185  -6.880   3.456  0.00  0.00    +0.031 A 
ATOM     30  C   UNL     1      -7.173  -6.814   4.419  0.00  0.00    +0.040 A 
ATOM     31  C   UNL     1      -8.309  -7.598   4.300  0.00  0.00    +0.124 A 
ATOM     32  C   UNL     1      -8.452  -8.446   3.216  0.00  0.00    +0.040 A 
ATOM     33  C   UNL     1      -7.465  -8.507   2.250  0.00  0.00    +0.031 A 
ATOM     34  F   UNL     1      -9.275  -7.535   5.242  0.00  0.00    -0.205 F 
ENDBRANCH  25  28
ENDBRANCH  24  25
ENDBRANCH   7  20
TORSDOF 4
