REMARK  Name = ZINC45313815
REMARK  9 active torsions:
REMARK  status: ('A' for Active; 'I' for Inactive)
REMARK    1  A    between atoms: C_1  and  C_2
REMARK    2  A    between atoms: C_7  and  N_8
REMARK    3  A    between atoms: C_9  and  C_11
REMARK    4  A    between atoms: C_11  and  N_12
REMARK    5  A    between atoms: N_12  and  C_13
REMARK    6  A    between atoms: N_12  and  C_14
REMARK    7  A    between atoms: C_14  and  C_15
REMARK    8  A    between atoms: N_17  and  C_18
REMARK    9  A    between atoms: C_19  and  C_27
REMARK                            x       y       z     vdW  Elec       q    Type
REMARK                         _______ _______ _______ _____ _____    ______ ____
ROOT
ATOM      1  C   UNL     1      -0.667  -1.173   8.369  0.00  0.00    +0.201 C 
ATOM      2  O   UNL     1      -0.622  -2.363   8.141  0.00  0.00    -0.278 OA
ATOM      3  N   UNL     1      -0.893  -0.736   9.624  0.00  0.00    -0.281 N 
ATOM      4  H   UNL     1      -0.929   0.216   9.806  0.00  0.00    +0.155 HD
ENDROOT
BRANCH   3   5
ATOM      5  C   UNL     1      -1.076  -1.646  10.653  0.00  0.00    +0.084 A 
ATOM      6  C   UNL     1      -1.322  -1.381  11.991  0.00  0.00    +0.068 A 
ATOM      7  C   UNL     1      -1.476  -2.523  12.877  0.00  0.00    -0.023 A 
ATOM      8  C   UNL     1      -1.355  -3.719  12.262  0.00  0.00    -0.004 A 
ATOM      9  S   UNL     1      -1.056  -3.323  10.564  0.00  0.00    -0.077 S 
ATOM     10  C   UNL     1      -1.460  -5.071  12.897  0.00  0.00    +0.043 C 
ATOM     11  C   UNL     1      -1.352  -4.899  14.419  0.00  0.00    +0.005 C 
ATOM     12  C   UNL     1      -2.291  -3.772  14.858  0.00  0.00    +0.005 C 
ATOM     13  C   UNL     1      -1.752  -2.425  14.370  0.00  0.00    +0.037 C 
BRANCH   6  14
ATOM     14  C   UNL     1      -1.423  -0.007  12.492  0.00  0.00    +0.244 C 
ATOM     15  O   UNL     1      -2.502   0.556  12.511  0.00  0.00    -0.270 OA
ATOM     16  N   UNL     1      -0.321   0.632  12.932  0.00  0.00    -0.325 N 
ATOM     17  H   UNL     1       0.538   0.183  12.917  0.00  0.00    +0.145 HD
ATOM     18  H   UNL     1      -0.388   1.541  13.263  0.00  0.00    +0.145 HD
ENDBRANCH   6  14
ENDBRANCH   3   5
BRANCH   1  19
ATOM     19  C   UNL     1      -0.469  -0.183   7.250  0.00  0.00    +0.019 C 
BRANCH  19  20
ATOM     20  N   UNL     1      -0.241  -0.906   5.992  0.00  0.00    +0.389 N 
ATOM     21  C   UNL     1       1.021  -1.653   6.078  0.00  0.00    -0.095 C 
ATOM     22  H   UNL     1      -1.002  -1.549   5.830  0.00  0.00    -0.081 HD
BRANCH  20  23
ATOM     23  C   UNL     1      -0.167   0.054   4.882  0.00  0.00    +0.019 C 
BRANCH  23  25
ATOM     24  N   UNL     1       0.026  -0.014   2.417  0.00  0.00    -0.287 N 
ATOM     25  C   UNL     1      -0.056  -0.694   3.578  0.00  0.00    +0.201 C 
ATOM     26  O   UNL     1      -0.040  -1.906   3.574  0.00  0.00    -0.278 OA
ATOM     27  H   UNL     1       0.079   0.955   2.425  0.00  0.00    +0.155 HD
BRANCH  24  34
ATOM     28  C   UNL     1      -1.265   1.183   0.182  0.00  0.00    +0.046 C 
ATOM     29  C   UNL     1      -0.584  -0.158   0.085  0.00  0.00    -0.028 A 
ATOM     30  C   UNL     1      -0.570  -0.840  -1.116  0.00  0.00    +0.020 A 
ATOM     31  C   UNL     1       0.055  -2.071  -1.206  0.00  0.00    +0.018 A 
ATOM     32  C   UNL     1       0.666  -2.623  -0.094  0.00  0.00    +0.017 A 
ATOM     33  C   UNL     1       0.655  -1.945   1.109  0.00  0.00    +0.024 A 
ATOM     34  C   UNL     1       0.034  -0.706   1.201  0.00  0.00    +0.036 A 
ATOM     35 BR   UNL     1       0.072  -3.002  -2.852  0.00  0.00    -0.050 Br
ENDBRANCH  24  34
ENDBRANCH  23  25
ENDBRANCH  20  23
ENDBRANCH  19  20
ENDBRANCH   1  19
TORSDOF 7
