REMARK  Name = ZINC66896266
REMARK  8 active torsions:
REMARK  status: ('A' for Active; 'I' for Inactive)
REMARK    1  A    between atoms: C_1  and  C_2
REMARK    2  A    between atoms: C_2  and  C_4
REMARK    3  A    between atoms: C_2  and  N_14
REMARK    4  A    between atoms: N_6  and  C_7
REMARK    5  A    between atoms: C_7  and  C_8
REMARK    6  A    between atoms: C_17  and  N_20
REMARK    7  A    between atoms: C_21  and  O_23
REMARK    8  A    between atoms: O_23  and  C_24
REMARK                            x       y       z     vdW  Elec       q    Type
REMARK                         _______ _______ _______ _____ _____    ______ ____
ROOT
ATOM      1  N   UNL     1      -0.756  -0.721  -0.013  0.00  0.00    +0.387 N 
ATOM      2  C   UNL     1      -1.246  -2.065   0.316  0.00  0.00    -0.076 C 
ATOM      3  C   UNL     1      -0.890  -3.033  -0.814  0.00  0.00    +0.004 C 
ATOM      4  C   UNL     1      -1.542  -2.554  -2.114  0.00  0.00    +0.073 C 
ATOM      5  C   UNL     1      -1.082  -1.124  -2.408  0.00  0.00    +0.004 C 
ATOM      6  C   UNL     1      -1.431  -0.226  -1.219  0.00  0.00    -0.076 C 
ATOM      7  H   UNL     1       0.238  -0.759  -0.177  0.00  0.00    -0.081 HD
ENDROOT
BRANCH   4   8
ATOM      8  N   UNL     1      -1.143  -3.434  -3.215  0.00  0.00    -0.278 N 
ATOM      9  C   UNL     1      -1.930  -3.551  -4.303  0.00  0.00    +0.406 C 
ATOM     10  O   UNL     1      -2.970  -2.927  -4.370  0.00  0.00    -0.226 OA
ATOM     11  H   UNL     1      -0.312  -3.932  -3.162  0.00  0.00    +0.152 HD
BRANCH   9  12
ATOM     12  O   UNL     1      -1.563  -4.359  -5.316  0.00  0.00    -0.412 OA
BRANCH  12  13
ATOM     13  C   UNL     1      -2.328  -4.363  -6.439  0.00  0.00    +0.133 A 
ATOM     14  C   UNL     1      -3.169  -5.434  -6.703  0.00  0.00    +0.046 A 
ATOM     15  C   UNL     1      -3.946  -5.436  -7.845  0.00  0.00    +0.004 A 
ATOM     16  C   UNL     1      -3.886  -4.371  -8.725  0.00  0.00    +0.000 A 
ATOM     17  C   UNL     1      -3.048  -3.302  -8.464  0.00  0.00    +0.004 A 
ATOM     18  C   UNL     1      -2.274  -3.293  -7.321  0.00  0.00    +0.046 A 
ENDBRANCH  12  13
ENDBRANCH   9  12
ENDBRANCH   4   8
BRANCH   1  20
ATOM     19  C   UNL     1      -0.571   1.600   0.746  0.00  0.00    -0.004 C 
ATOM     20  C   UNL     1      -1.032   0.187   1.109  0.00  0.00    +0.016 C 
BRANCH  20  21
ATOM     21  C   UNL     1      -0.289  -0.285   2.332  0.00  0.00    +0.199 C 
ATOM     22  O   UNL     1       0.747  -0.902   2.211  0.00  0.00    -0.278 OA
ATOM     23  N   UNL     1      -0.778  -0.021   3.560  0.00  0.00    -0.316 N 
ATOM     24  H   UNL     1      -1.607   0.472   3.657  0.00  0.00    +0.149 HD
BRANCH  23  25
ATOM     25  C   UNL     1      -0.056  -0.480   4.749  0.00  0.00    +0.107 C 
BRANCH  25  26
ATOM     26  C   UNL     1      -0.818  -0.053   6.005  0.00  0.00    +0.006 C 
ATOM     27  C   UNL     1      -2.169  -0.770   6.050  0.00  0.00    +0.005 C 
ATOM     28  C   UNL     1      -2.931  -0.343   7.306  0.00  0.00    +0.000 C 
ATOM     29  C   UNL     1      -2.117  -0.712   8.547  0.00  0.00    +0.000 C 
ATOM     30  C   UNL     1      -0.766   0.005   8.502  0.00  0.00    +0.000 C 
ATOM     31  C   UNL     1      -0.003  -0.422   7.247  0.00  0.00    +0.005 C 
ENDBRANCH  25  26
ENDBRANCH  23  25
ENDBRANCH  20  21
ENDBRANCH   1  20
TORSDOF 7
