REMARK  Name = ZINC51036220
REMARK  5 active torsions:
REMARK  status: ('A' for Active; 'I' for Inactive)
REMARK    1  A    between atoms: C_5  and  C_7
REMARK    2  A    between atoms: C_7  and  C_9
REMARK    3  A    between atoms: C_7  and  S_11
REMARK    4  A    between atoms: C_9  and  N_10
REMARK    5  A    between atoms: S_11  and  C_12
REMARK                            x       y       z     vdW  Elec       q    Type
REMARK                         _______ _______ _______ _____ _____    ______ ____
ROOT
ATOM      1  C   UNL     1       1.243  -2.221  -0.020  0.00  0.00    +0.066 C 
ENDROOT
BRANCH   1   6
ATOM      2  C   UNL     1       2.346   1.382   0.222  0.00  0.00    +0.000 A 
ATOM      3  C   UNL     1       1.138   2.048   0.129  0.00  0.00    +0.001 A 
ATOM      4  C   UNL     1      -0.036   1.333  -0.013  0.00  0.00    +0.015 A 
ATOM      5  C   UNL     1      -0.003  -0.049  -0.061  0.00  0.00    +0.022 A 
ATOM      6  C   UNL     1       1.206  -0.715   0.032  0.00  0.00    -0.022 A 
ATOM      7  C   UNL     1       2.380   0.001   0.174  0.00  0.00    +0.006 A 
ATOM      8 BR   UNL     1      -1.609  -1.028  -0.254  0.00  0.00    -0.050 Br
ENDBRANCH   1   6
BRANCH   1   9
ATOM      9  C   UNL     1       1.304  -2.679  -1.478  0.00  0.00    -0.067 C 
BRANCH   9  10
ATOM     10  N   UNL     1       1.211  -4.144  -1.535  0.00  0.00    +0.379 N 
ATOM     11  H   UNL     1       0.381  -4.448  -1.049  0.00  0.00    -0.090 HD
ATOM     12  H   UNL     1       1.165  -4.441  -2.498  0.00  0.00    -0.090 HD
ATOM     13  H   UNL     1       2.025  -4.550  -1.096  0.00  0.00    -0.090 HD
ENDBRANCH   9  10
ENDBRANCH   1   9
BRANCH   1  14
ATOM     14  S   UNL     1       2.709  -2.820   0.864  0.00  0.00    -0.098 S 
BRANCH  14  15
ATOM     15  C   UNL     1       2.378  -2.432   2.551  0.00  0.00    +0.126 A 
ATOM     16  C   UNL     1       3.344  -2.649   3.537  0.00  0.00    +0.117 A 
ATOM     17  C   UNL     1       3.034  -2.323   4.866  0.00  0.00    +0.182 A 
ATOM     18  N   UNL     1       4.118  -2.624   5.606  0.00  0.00    -0.216 NA
ATOM     19  H   UNL     1       5.140  -3.452   2.789  0.00  0.00    +0.167 HD
ATOM     20  C   UNL     1       5.057  -3.103   4.837  0.00  0.00    +0.199 A 
ATOM     21  N   UNL     1       4.633  -3.140   3.554  0.00  0.00    -0.341 N 
ATOM     22  N   UNL     1       1.825  -1.819   5.138  0.00  0.00    -0.214 NA
ATOM     23  C   UNL     1       0.947  -1.632   4.177  0.00  0.00    +0.224 A 
ATOM     24  N   UNL     1       1.204  -1.921   2.914  0.00  0.00    -0.227 NA
ENDBRANCH  14  15
ENDBRANCH   1  14
TORSDOF 5
