REMARK  Name = ZINC39711191
REMARK  9 active torsions:
REMARK  status: ('A' for Active; 'I' for Inactive)
REMARK    1  A    between atoms: C_1  and  C_2
REMARK    2  A    between atoms: C_6  and  C_15
REMARK    3  A    between atoms: C_13  and  C_14
REMARK    4  A    between atoms: C_15  and  C_17
REMARK    5  A    between atoms: C_15  and  N_27
REMARK    6  A    between atoms: N_22  and  C_23
REMARK    7  A    between atoms: C_23  and  C_24
REMARK    8  A    between atoms: C_23  and  C_25
REMARK    9  A    between atoms: C_23  and  C_26
REMARK                            x       y       z     vdW  Elec       q    Type
REMARK                         _______ _______ _______ _____ _____    ______ ____
ROOT
ATOM      1  C   UNL     1      -1.179  -4.878  -2.983  0.00  0.00    -0.010 C 
ENDROOT
BRANCH   1   7
ATOM      2  C   UNL     1       5.498  -4.439  -5.481  0.00  0.00    +0.044 C 
ATOM      3  C   UNL     1       4.301  -3.904  -4.739  0.00  0.00    -0.047 A 
ATOM      4  C   UNL     1       3.381  -4.774  -4.246  0.00  0.00    +0.013 A 
ATOM      5  C   UNL     1       2.223  -4.243  -3.526  0.00  0.00    -0.007 A 
ATOM      6  C   UNL     1       1.275  -5.078  -3.014  0.00  0.00    -0.006 C 
ATOM      7  C   UNL     1       0.109  -4.441  -2.283  0.00  0.00    +0.088 C 
ATOM      8  C   UNL     1       0.093  -2.932  -2.182  0.00  0.00    +0.223 C 
ATOM      9  O   UNL     1      -0.819  -2.369  -1.606  0.00  0.00    -0.275 OA
ATOM     10  N   UNL     1       1.073  -2.228  -2.721  0.00  0.00    -0.285 N 
ATOM     11  C   UNL     1       2.100  -2.784  -3.365  0.00  0.00    +0.041 A 
ATOM     12  C   UNL     1       3.109  -1.971  -3.914  0.00  0.00    +0.027 A 
ATOM     13  C   UNL     1       4.163  -2.526  -4.567  0.00  0.00    -0.046 A 
ATOM     14  C   UNL     1       5.223  -1.618  -5.134  0.00  0.00    +0.044 C 
ATOM     15  H   UNL     1       1.044  -1.261  -2.646  0.00  0.00    +0.155 HD
ENDBRANCH   1   7
BRANCH   1  16
ATOM     16  N   UNL     1      -1.251  -6.345  -3.005  0.00  0.00    +0.385 N 
ATOM     17  C   UNL     1      -1.347  -6.849  -1.630  0.00  0.00    -0.078 C 
ATOM     18  C   UNL     1      -1.341  -8.379  -1.642  0.00  0.00    -0.019 C 
ATOM     19  C   UNL     1      -2.536  -8.883  -2.456  0.00  0.00    -0.004 C 
ATOM     20  C   UNL     1      -2.466  -8.290  -3.867  0.00  0.00    -0.019 C 
ATOM     21  C   UNL     1      -2.431  -6.764  -3.772  0.00  0.00    -0.078 C 
ATOM     22  H   UNL     1      -0.420  -6.715  -3.440  0.00  0.00    -0.081 HD
ENDBRANCH   1  16
BRANCH   1  23
ATOM     23  C   UNL     1      -1.186  -4.345  -4.417  0.00  0.00    +0.205 C 
ATOM     24  N   UNL     1       0.004  -4.810  -5.142  0.00  0.00    -0.152 NA
ATOM     25  N   UNL     1       0.667  -3.830  -5.491  0.00  0.00    -0.070 NA
ATOM     26  N   UNL     1       0.094  -2.621  -5.099  0.00  0.00    -0.179 N 
ATOM     27  N   UNL     1      -1.073  -2.872  -4.421  0.00  0.00    -0.183 NA
ATOM     28  H   UNL     1       0.462  -1.741  -5.278  0.00  0.00    +0.191 HD
BRANCH  27  29
ATOM     29  C   UNL     1      -2.222  -2.257  -5.100  0.00  0.00    +0.035 C 
ATOM     30  C   UNL     1      -3.511  -2.649  -4.377  0.00  0.00    +0.029 C 
ATOM     31  C   UNL     1      -2.070  -0.735  -5.084  0.00  0.00    +0.029 C 
ATOM     32  C   UNL     1      -2.280  -2.748  -6.548  0.00  0.00    +0.029 C 
ENDBRANCH  27  29
ENDBRANCH   1  23
TORSDOF 4
