REMARK  Name = ZINC35870166
REMARK  7 active torsions:
REMARK  status: ('A' for Active; 'I' for Inactive)
REMARK    1  A    between atoms: C_1  and  C_2
REMARK    2  A    between atoms: C_2  and  C_4
REMARK    3  A    between atoms: C_2  and  N_10
REMARK    4  A    between atoms: C_11  and  C_13
REMARK    5  A    between atoms: C_18  and  N_37
REMARK    6  A    between atoms: N_26  and  C_29
REMARK    7  A    between atoms: C_29  and  C_30
REMARK                            x       y       z     vdW  Elec       q    Type
REMARK                         _______ _______ _______ _____ _____    ______ ____
ROOT
ATOM      1  C   UNL     1       0.712  -1.094  -3.598  0.00  0.00    +0.098 C 
ATOM      2  C   UNL     1       1.848  -0.134  -3.948  0.00  0.00    +0.051 C 
ATOM      3  C   UNL     1       1.272   1.205  -4.329  0.00  0.00    -0.023 A 
ATOM      4  C   UNL     1       2.044   2.343  -4.170  0.00  0.00    +0.038 A 
ATOM      5  C   UNL     1       1.533   3.581  -4.509  0.00  0.00    +0.127 A 
ATOM      6  C   UNL     1       0.248   3.688  -5.010  0.00  0.00    +0.034 A 
ATOM      7  C   UNL     1      -0.525   2.557  -5.175  0.00  0.00    +0.025 A 
ATOM      8  C   UNL     1      -0.011   1.308  -4.835  0.00  0.00    +0.033 A 
ATOM      9  N   UNL     1      -0.818   0.175  -5.025  0.00  0.00    -0.329 N 
ATOM     10  C   UNL     1      -0.284  -1.153  -4.763  0.00  0.00    +0.069 C 
ATOM     11  C   UNL     1      -1.354  -2.184  -4.445  0.00  0.00    -0.055 C 
ATOM     12  N   UNL     1      -2.552  -1.999  -5.263  0.00  0.00    +0.388 N 
ATOM     13  C   UNL     1      -3.125  -0.675  -4.974  0.00  0.00    -0.059 C 
ATOM     14  C   UNL     1      -2.179   0.391  -5.521  0.00  0.00    +0.087 C 
ATOM     15  H   UNL     1      -2.306  -2.055  -6.240  0.00  0.00    -0.081 HD
ENDROOT
BRANCH   1  17
ATOM     16  N   UNL     1       0.688  -0.476  -1.203  0.00  0.00    -0.308 N 
ATOM     17  C   UNL     1       0.006  -0.608  -2.358  0.00  0.00    +0.219 C 
ATOM     18  O   UNL     1      -1.175  -0.336  -2.400  0.00  0.00    -0.275 OA
ATOM     19  H   UNL     1       1.632  -0.695  -1.170  0.00  0.00    +0.149 HD
BRANCH  16  21
ATOM     20  C   UNL     1      -0.019   1.526   0.010  0.00  0.00    +0.033 C 
ATOM     21  C   UNL     1       0.002  -0.004   0.002  0.00  0.00    +0.100 C 
BRANCH  21  22
ATOM     22  C   UNL     1       0.731  -0.503   1.223  0.00  0.00    -0.027 A 
ATOM     23  C   UNL     1       2.113  -0.514   1.247  0.00  0.00    +0.005 A 
ATOM     24  C   UNL     1       2.782  -0.972   2.366  0.00  0.00    +0.000 A 
ATOM     25  C   UNL     1       2.068  -1.419   3.463  0.00  0.00    +0.000 A 
ATOM     26  C   UNL     1       0.686  -1.407   3.439  0.00  0.00    +0.000 A 
ATOM     27  C   UNL     1       0.017  -0.945   2.321  0.00  0.00    +0.005 A 
ENDBRANCH  21  22
ENDBRANCH  16  21
ENDBRANCH   1  17
BRANCH   5  28
ATOM     28  N   UNL     1       2.362   4.795  -4.336  0.00  0.00    +0.056 N 
ATOM     29  O   UNL     1       3.485   4.703  -3.898  0.00  0.00    -0.126 OA
ATOM     30  O   UNL     1       1.916   5.879  -4.633  0.00  0.00    -0.126 OA
ENDBRANCH   5  28
BRANCH  12  31
ATOM     31  C   UNL     1      -3.535  -3.042  -4.940  0.00  0.00    +0.019 C 
BRANCH  31  32
ATOM     32  C   UNL     1      -4.716  -2.924  -5.868  0.00  0.00    +0.199 C 
ATOM     33  O   UNL     1      -4.737  -2.056  -6.715  0.00  0.00    -0.278 OA
ATOM     34  N   UNL     1      -5.749  -3.782  -5.757  0.00  0.00    -0.303 N 
ATOM     35  C   UNL     1      -5.856  -4.871  -4.775  0.00  0.00    +0.108 C 
ATOM     36  C   UNL     1      -7.191  -5.599  -5.042  0.00  0.00    +0.020 C 
ATOM     37  C   UNL     1      -7.496  -5.235  -6.519  0.00  0.00    +0.020 C 
ATOM     38  C   UNL     1      -6.962  -3.780  -6.595  0.00  0.00    +0.108 C 
ENDBRANCH  31  32
ENDBRANCH  12  31
TORSDOF 6
