REMARK  Name = ZINC36608048
REMARK  11 active torsions:
REMARK  status: ('A' for Active; 'I' for Inactive)
REMARK    1  A    between atoms: C_1  and  C_2
REMARK    2  A    between atoms: C_2  and  C_3
REMARK    3  A    between atoms: C_3  and  C_4
REMARK    4  A    between atoms: C_4  and  N_5
REMARK    5  A    between atoms: C_6  and  C_8
REMARK    6  A    between atoms: C_8  and  C_10
REMARK    7  A    between atoms: C_8  and  N_17
REMARK    8  A    between atoms: C_15  and  O_16
REMARK    9  A    between atoms: N_17  and  C_18
REMARK   10  A    between atoms: C_24  and  C_26
REMARK   11  A    between atoms: C_31  and  O_32
REMARK                            x       y       z     vdW  Elec       q    Type
REMARK                         _______ _______ _______ _____ _____    ______ ____
ROOT
ATOM      1  C   UNL     1      -3.817  -4.418   0.698  0.00  0.00    +0.201 C 
ENDROOT
BRANCH   1   2
ATOM      2  C   UNL     1      -3.877  -4.090  -0.772  0.00  0.00    +0.024 A 
ATOM      3  C   UNL     1      -2.720  -3.774  -1.458  0.00  0.00    +0.009 A 
ATOM      4  C   UNL     1      -2.775  -3.473  -2.806  0.00  0.00    +0.001 A 
ATOM      5  C   UNL     1      -3.987  -3.486  -3.471  0.00  0.00    +0.004 A 
ATOM      6  C   UNL     1      -5.146  -3.801  -2.790  0.00  0.00    +0.046 A 
ATOM      7  C   UNL     1      -5.093  -4.110  -1.438  0.00  0.00    +0.122 A 
BRANCH   7   8
ATOM      8  O   UNL     1      -6.232  -4.426  -0.767  0.00  0.00    -0.506 OA
ATOM      9  H   UNL     1      -6.723  -3.658  -0.443  0.00  0.00    +0.292 HD
ENDBRANCH   7   8
ENDBRANCH   1   2
BRANCH   1  11
ATOM     10  N   UNL     1      -2.229  -2.697   1.494  0.00  0.00    -0.313 N 
ATOM     11  C   UNL     1      -2.479  -3.999   1.252  0.00  0.00    +0.239 C 
ATOM     12  O   UNL     1      -1.629  -4.832   1.479  0.00  0.00    -0.273 OA
ATOM     13  H   UNL     1      -2.882  -2.023   1.248  0.00  0.00    +0.149 HD
BRANCH  10  14
ATOM     14  C   UNL     1      -0.971  -2.299   2.130  0.00  0.00    +0.104 C 
BRANCH  14  15
ATOM     15  C   UNL     1      -0.939  -0.777   2.290  0.00  0.00    +0.018 C 
BRANCH  15  17
ATOM     16  C   UNL     1       0.408   1.159   3.113  0.00  0.00    +0.004 C 
ATOM     17  C   UNL     1       0.376  -0.362   2.954  0.00  0.00    -0.002 C 
ENDBRANCH  15  17
ENDBRANCH  14  15
ENDBRANCH  10  14
ENDBRANCH   1  11
BRANCH   1  18
ATOM     18  N   UNL     1      -3.991  -5.861   0.883  0.00  0.00    -0.251 N 
ATOM     19  C   UNL     1      -5.061  -6.329   1.556  0.00  0.00    +0.255 C 
ATOM     20  O   UNL     1      -5.935  -5.565   1.917  0.00  0.00    -0.269 OA
BRANCH  18  21
ATOM     21  C   UNL     1      -3.048  -6.752   0.362  0.00  0.00    +0.038 A 
ATOM     22  C   UNL     1      -2.740  -6.727  -0.992  0.00  0.00    +0.023 A 
ATOM     23  C   UNL     1      -1.807  -7.608  -1.503  0.00  0.00    +0.002 A 
ATOM     24  C   UNL     1      -1.180  -8.515  -0.668  0.00  0.00    +0.000 A 
ATOM     25  C   UNL     1      -1.484  -8.543   0.680  0.00  0.00    +0.002 A 
ATOM     26  C   UNL     1      -2.412  -7.660   1.199  0.00  0.00    +0.023 A 
ENDBRANCH  18  21
BRANCH  19  27
ATOM     27  C   UNL     1      -5.172  -7.769   1.855  0.00  0.00    +0.079 A 
ATOM     28  C   UNL     1      -4.694  -8.715   0.944  0.00  0.00    +0.017 A 
ATOM     29  C   UNL     1      -4.800 -10.059   1.229  0.00  0.00    +0.001 A 
ATOM     30  C   UNL     1      -5.379 -10.478   2.416  0.00  0.00    +0.004 A 
ATOM     31  C   UNL     1      -5.855  -9.554   3.325  0.00  0.00    +0.046 A 
ATOM     32  C   UNL     1      -5.751  -8.197   3.057  0.00  0.00    +0.129 A 
BRANCH  32  33
ATOM     33  O   UNL     1      -6.213  -7.289   3.952  0.00  0.00    -0.506 OA
ATOM     34  H   UNL     1      -7.140  -7.045   3.822  0.00  0.00    +0.292 HD
ENDBRANCH  32  33
ENDBRANCH  19  27
ENDBRANCH   1  18
TORSDOF 10
