REMARK  Name = ZINC01476132
REMARK  7 active torsions:
REMARK  status: ('A' for Active; 'I' for Inactive)
REMARK    1  A    between atoms: C_1  and  C_2
REMARK    2  A    between atoms: N_8  and  C_9
REMARK    3  A    between atoms: C_9  and  C_10
REMARK    4  A    between atoms: C_16  and  C_24
REMARK    5  A    between atoms: C_18  and  C_22
REMARK    6  A    between atoms: C_19  and  N_21
REMARK    7  A    between atoms: C_27  and  N_30
REMARK                            x       y       z     vdW  Elec       q    Type
REMARK                         _______ _______ _______ _____ _____    ______ ____
ROOT
ATOM      1  C   UNL     1      -6.448   0.484  -1.219  0.00  0.00    +0.064 C 
ATOM      2  C   UNL     1      -5.443   1.580  -0.974  0.00  0.00    +0.023 A 
ATOM      3  C   UNL     1      -4.180   1.259  -0.620  0.00  0.00    +0.068 A 
ATOM      4  C   UNL     1      -3.236   2.281  -0.390  0.00  0.00    +0.141 A 
ATOM      5  C   UNL     1      -3.627   3.596  -0.532  0.00  0.00    +0.072 A 
ATOM      6  C   UNL     1      -4.948   3.881  -0.900  0.00  0.00    +0.259 A 
ATOM      7  O   UNL     1      -5.308   5.041  -1.029  0.00  0.00    -0.267 OA
ATOM      8  N   UNL     1      -5.821   2.878  -1.112  0.00  0.00    -0.308 N 
ATOM      9  C   UNL     1      -2.653   4.717  -0.294  0.00  0.00    +0.103 C 
ATOM     10  C   UNL     1      -1.244   4.192  -0.304  0.00  0.00    +0.098 C 
ATOM     11  C   UNL     1      -0.988   2.868  -0.182  0.00  0.00    +0.199 C 
ATOM     12  O   UNL     1      -1.972   1.963  -0.038  0.00  0.00    -0.441 OA
ENDROOT
BRANCH   9  13
ATOM     13  C   UNL     1      -2.936   5.350   1.044  0.00  0.00    -0.034 A 
ATOM     14  C   UNL     1      -2.867   4.589   2.196  0.00  0.00    +0.007 A 
ATOM     15  C   UNL     1      -3.122   5.171   3.424  0.00  0.00    +0.033 A 
ATOM     16  C   UNL     1      -3.457   6.510   3.499  0.00  0.00    +0.126 A 
ATOM     17  C   UNL     1      -3.531   7.269   2.346  0.00  0.00    +0.033 A 
ATOM     18  C   UNL     1      -3.271   6.689   1.118  0.00  0.00    +0.007 A 
BRANCH  16  19
ATOM     19  N   UNL     1      -3.735   7.131   4.813  0.00  0.00    +0.056 N 
ATOM     20  O   UNL     1      -4.030   8.311   4.879  0.00  0.00    -0.126 OA
ATOM     21  O   UNL     1      -3.670   6.462   5.829  0.00  0.00    -0.126 OA
ENDBRANCH  16  19
ENDBRANCH   9  13
BRANCH  11  22
ATOM     22  N   UNL     1       0.315   2.437  -0.200  0.00  0.00    -0.328 N 
ATOM     23  H   UNL     1       0.515   1.492  -0.110  0.00  0.00    +0.145 HD
ATOM     24  H   UNL     1       1.036   3.077  -0.307  0.00  0.00    +0.145 HD
ENDBRANCH  11  22
BRANCH  10  25
ATOM     25  C   UNL     1      -0.154   5.108  -0.449  0.00  0.00    +0.101 C 
ATOM     26  N   UNL     1       0.712   5.835  -0.565  0.00  0.00    -0.191 NA
ENDBRANCH  10  25
BRANCH   8  27
ATOM     27  C   UNL     1      -7.199   3.192  -1.498  0.00  0.00    +0.160 C 
BRANCH  27  28
ATOM     28  C   UNL     1      -8.020   3.451  -0.262  0.00  0.00    -0.028 A 
ATOM     29  C   UNL     1      -8.780   2.436   0.289  0.00  0.00    +0.005 A 
ATOM     30  C   UNL     1      -9.529   2.673   1.426  0.00  0.00    +0.000 A 
ATOM     31  C   UNL     1      -9.527   3.928   2.006  0.00  0.00    +0.000 A 
ATOM     32  C   UNL     1      -8.772   4.944   1.452  0.00  0.00    +0.000 A 
ATOM     33  C   UNL     1      -8.018   4.706   0.318  0.00  0.00    +0.005 A 
ENDBRANCH  27  28
ENDBRANCH   8  27
TORSDOF 6
