REMARK  Name = ZINC42015794
REMARK  5 active torsions:
REMARK  status: ('A' for Active; 'I' for Inactive)
REMARK    1  A    between atoms: C_1  and  C_2
REMARK    2  A    between atoms: C_2  and  C_3
REMARK    3  A    between atoms: C_6  and  N_9
REMARK    4  A    between atoms: C_10  and  C_14
REMARK    5  A    between atoms: C_16  and  N_21
REMARK                            x       y       z     vdW  Elec       q    Type
REMARK                         _______ _______ _______ _____ _____    ______ ____
ROOT
ATOM      1  N   UNL     1      -5.293  -2.078  -0.055  0.00  0.00    -0.193 N 
ATOM      2  C   UNL     1      -6.347  -1.606  -0.782  0.00  0.00    +0.190 A 
ATOM      3  N   UNL     1      -7.426  -2.207  -0.325  0.00  0.00    -0.108 NA
ATOM      4  N   UNL     1      -7.123  -3.012   0.628  0.00  0.00    -0.022 NA
ATOM      5  N   UNL     1      -5.854  -2.997   0.848  0.00  0.00    -0.039 NA
ENDROOT
BRANCH   2   6
ATOM      6  C   UNL     1      -6.288  -0.611  -1.875  0.00  0.00    +0.058 A 
ATOM      7  C   UNL     1      -5.568   0.571  -1.707  0.00  0.00    +0.037 A 
ATOM      8  C   UNL     1      -5.518   1.499  -2.735  0.00  0.00    +0.025 A 
ATOM      9  C   UNL     1      -6.184   1.251  -3.929  0.00  0.00    +0.025 A 
ATOM     10  C   UNL     1      -6.898   0.081  -4.098  0.00  0.00    +0.041 A 
ATOM     11  C   UNL     1      -6.950  -0.855  -3.081  0.00  0.00    +0.134 A 
ATOM     12  F   UNL     1      -7.644  -2.001  -3.252  0.00  0.00    -0.205 F 
BRANCH   8  13
ATOM     13  N   UNL     1      -4.797   2.686  -2.570  0.00  0.00    -0.358 N 
ATOM     14  H   UNL     1      -4.333   2.860  -1.736  0.00  0.00    +0.142 HD
ATOM     15  H   UNL     1      -4.762   3.336  -3.289  0.00  0.00    +0.142 HD
ENDBRANCH   8  13
ENDBRANCH   2   6
BRANCH   1  19
ATOM     16  C   UNL     1      -1.276  -1.034  -0.443  0.00  0.00    -0.047 A 
ATOM     17  C   UNL     1      -1.836  -1.168   0.815  0.00  0.00    +0.006 A 
ATOM     18  C   UNL     1      -3.167  -1.514   0.946  0.00  0.00    +0.028 A 
ATOM     19  C   UNL     1      -3.942  -1.726  -0.186  0.00  0.00    +0.069 A 
ATOM     20  C   UNL     1      -3.377  -1.591  -1.447  0.00  0.00    +0.028 A 
ATOM     21  C   UNL     1      -2.047  -1.239  -1.572  0.00  0.00    +0.006 A 
BRANCH  16  23
ATOM     22  C   UNL     1       0.304   0.868  -0.636  0.00  0.00    +0.009 C 
ATOM     23  C   UNL     1       0.176  -0.656  -0.583  0.00  0.00    +0.032 C 
ENDBRANCH  16  23
ENDBRANCH   1  19
TORSDOF 4
