REMARK  Name = ZINC25800303
REMARK  6 active torsions:
REMARK  status: ('A' for Active; 'I' for Inactive)
REMARK    1  A    between atoms: C_3  and  C_6
REMARK    2  A    between atoms: C_9  and  S_14
REMARK    3  A    between atoms: N_10  and  C_11
REMARK    4  A    between atoms: S_14  and  C_15
REMARK    5  A    between atoms: C_15  and  C_16
REMARK    6  A    between atoms: N_21  and  C_22
REMARK                            x       y       z     vdW  Elec       q    Type
REMARK                         _______ _______ _______ _____ _____    ______ ____
ROOT
ATOM      1  C   UNL     1       6.861  -2.895   4.318  0.00  0.00    +0.231 C 
ATOM      2  O   UNL     1       6.117  -3.851   4.343  0.00  0.00    -0.274 OA
ATOM      3  N   UNL     1       6.464  -1.747   3.734  0.00  0.00    -0.239 N 
ATOM      4  C   UNL     1       5.240  -1.662   3.178  0.00  0.00    +0.310 C 
ATOM      5  O   UNL     1       4.493  -2.621   3.203  0.00  0.00    -0.252 OA
ATOM      6  N   UNL     1       4.843  -0.514   2.594  0.00  0.00    -0.269 N 
ATOM      7  H   UNL     1       7.140  -0.879   3.712  0.00  0.00    +0.159 HD
ATOM      8  H   UNL     1       5.547   0.324   2.494  0.00  0.00    +0.156 HD
ENDROOT
BRANCH   6   9
ATOM      9  C   UNL     1       3.532  -0.389   2.114  0.00  0.00    +0.038 A 
ATOM     10  C   UNL     1       2.489  -1.033   2.767  0.00  0.00    +0.027 A 
ATOM     11  C   UNL     1       1.196  -0.910   2.295  0.00  0.00    +0.051 A 
ATOM     12  C   UNL     1       0.936  -0.145   1.170  0.00  0.00    +0.166 A 
ATOM     13  C   UNL     1       1.980   0.503   0.514  0.00  0.00    +0.168 A 
ATOM     14  C   UNL     1       3.276   0.379   0.987  0.00  0.00    +0.073 A 
ATOM     15  O   UNL     1       1.468   1.184  -0.553  0.00  0.00    -0.453 OA
ATOM     16  C   UNL     1       0.054   1.281  -0.305  0.00  0.00    +0.466 C 
ATOM     17  O   UNL     1      -0.230   0.132   0.514  0.00  0.00    -0.453 OA
ENDBRANCH   6   9
BRANCH   1  18
ATOM     18  C   UNL     1       8.231  -2.989   4.940  0.00  0.00    +0.173 C 
BRANCH  18  19
ATOM     19  S   UNL     1       8.464  -4.643   5.636  0.00  0.00    -0.077 S 
BRANCH  19  23
ATOM     20  C   UNL     1      12.022  -4.859   7.242  0.00  0.00    +0.172 A 
ATOM     21  N   UNL     1      11.985  -3.628   6.783  0.00  0.00    -0.128 NA
ATOM     22  N   UNL     1      10.855  -3.407   6.211  0.00  0.00    -0.122 NA
ATOM     23  C   UNL     1      10.097  -4.478   6.278  0.00  0.00    +0.193 A 
ATOM     24  N   UNL     1      10.813  -5.442   6.932  0.00  0.00    -0.299 N 
BRANCH  20  27
ATOM     25  C   UNL     1      15.330  -5.853   8.778  0.00  0.00    +0.008 A 
ATOM     26  C   UNL     1      14.449  -5.086   8.049  0.00  0.00    +0.019 A 
ATOM     27  C   UNL     1      13.143  -5.495   7.952  0.00  0.00    +0.056 A 
ATOM     28  S   UNL     1      13.157  -6.997   8.918  0.00  0.00    -0.094 S 
ATOM     29  C   UNL     1      14.882  -6.987   9.376  0.00  0.00    +0.046 A 
ENDBRANCH  20  27
BRANCH  24  30
ATOM     30  C   UNL     1      10.383  -6.808   7.240  0.00  0.00    +0.091 C 
ATOM     31  C   UNL     1       9.179  -7.359   6.473  0.00  0.00    +0.027 C 
ATOM     32  C   UNL     1       9.040  -6.983   7.951  0.00  0.00    +0.027 C 
ENDBRANCH  24  30
ENDBRANCH  19  23
ENDBRANCH  18  19
ENDBRANCH   1  18
TORSDOF 6
