REMARK  Name = ZINC13070947
REMARK  7 active torsions:
REMARK  status: ('A' for Active; 'I' for Inactive)
REMARK    1  A    between atoms: C_1  and  C_2
REMARK    2  A    between atoms: C_2  and  C_3
REMARK    3  A    between atoms: C_3  and  N_4
REMARK    4  A    between atoms: N_4  and  C_5
REMARK    5  A    between atoms: N_4  and  S_13
REMARK    6  A    between atoms: S_13  and  C_16
REMARK    7  A    between atoms: C_20  and  C_22
REMARK                            x       y       z     vdW  Elec       q    Type
REMARK                         _______ _______ _______ _____ _____    ______ ____
ROOT
ATOM      1  S   UNL     1       1.584  -2.987   1.654  0.00  0.00    +0.061 S 
ATOM      2  O   UNL     1       2.222  -4.151   1.146  0.00  0.00    -0.153 OA
ATOM      3  O   UNL     1       2.106  -2.249   2.750  0.00  0.00    -0.153 OA
ENDROOT
BRANCH   1   4
ATOM      4  C   UNL     1      -0.052  -3.465   2.102  0.00  0.00    +0.106 A 
ATOM      5  C   UNL     1      -0.747  -2.739   3.054  0.00  0.00    +0.029 A 
ATOM      6  C   UNL     1      -2.033  -3.103   3.408  0.00  0.00    +0.018 A 
ATOM      7  C   UNL     1      -2.629  -4.202   2.821  0.00  0.00    +0.032 A 
ATOM      8  C   UNL     1      -1.931  -4.942   1.864  0.00  0.00    +0.079 A 
ATOM      9  C   UNL     1      -0.634  -4.565   1.508  0.00  0.00    +0.044 A 
ATOM     10 BR   UNL     1      -4.386  -4.703   3.312  0.00  0.00    -0.049 Br
BRANCH   8  11
ATOM     11  C   UNL     1      -2.562  -6.118   1.231  0.00  0.00    +0.388 C 
ATOM     12  O   UNL     1      -3.689  -6.444   1.543  0.00  0.00    -0.241 OA
ATOM     13  O   UNL     1      -1.886  -6.830   0.308  0.00  0.00    -0.241 OA
ENDBRANCH   8  11
ENDBRANCH   1   4
BRANCH   1  14
ATOM     14  N   UNL     1       1.455  -1.928   0.387  0.00  0.00    -0.172 NA
BRANCH  14  15
ATOM     15  C   UNL     1       1.338  -0.491   0.644  0.00  0.00    +0.102 C 
ATOM     16  C   UNL     1      -0.052   0.004   0.210  0.00  0.00    +0.045 C 
ATOM     17  C   UNL     1      -0.074   1.551   0.175  0.00  0.00    +0.167 C 
ATOM     18  S   UNL     1       1.680   1.972  -0.181  0.00  0.00    -0.029 S 
ATOM     19  O   UNL     1       1.769   2.516  -1.490  0.00  0.00    -0.174 OA
ATOM     20  O   UNL     1       2.212   2.701   0.917  0.00  0.00    -0.174 OA
ATOM     21  C   UNL     1       2.406   0.279  -0.185  0.00  0.00    +0.186 C 
ENDBRANCH  14  15
BRANCH  14  22
ATOM     22  C   UNL     1       1.457  -2.429  -0.989  0.00  0.00    +0.109 C 
BRANCH  22  24
ATOM     23  C   UNL     1       2.872  -2.806  -3.014  0.00  0.00    +0.005 C 
ATOM     24  C   UNL     1       2.887  -2.420  -1.533  0.00  0.00    +0.014 C 
ENDBRANCH  22  24
ENDBRANCH  14  22
ENDBRANCH   1  14
TORSDOF 6
