REMARK  Name = ZINC14246065
REMARK  12 active torsions:
REMARK  status: ('A' for Active; 'I' for Inactive)
REMARK    1  A    between atoms: C_1  and  C_2
REMARK    2  A    between atoms: C_2  and  C_3
REMARK    3  A    between atoms: C_3  and  C_4
REMARK    4  A    between atoms: C_4  and  N_5
REMARK    5  A    between atoms: C_6  and  N_37
REMARK    6  A    between atoms: C_7  and  N_14
REMARK    7  A    between atoms: N_14  and  C_15
REMARK    8  A    between atoms: C_20  and  C_22
REMARK    9  A    between atoms: C_22  and  N_75
REMARK   10  A    between atoms: C_25  and  C_28
REMARK   11  A    between atoms: C_28  and  C_30
REMARK   12  A    between atoms: C_28  and  O_36
REMARK                            x       y       z     vdW  Elec       q    Type
REMARK                         _______ _______ _______ _____ _____    ______ ____
ROOT
ATOM      1  N   UNL     1       4.929   3.837  -7.224  0.00  0.00    -0.263 N 
ATOM      2  C   UNL     1       4.657   3.770  -5.904  0.00  0.00    +0.204 C 
ATOM      3  O   UNL     1       4.684   4.776  -5.227  0.00  0.00    -0.277 OA
ENDROOT
BRANCH   1   6
ATOM      4  N   UNL     1       3.530   0.993  -9.083  0.00  0.00    -0.280 N 
ATOM      5  C   UNL     1       3.596   2.121  -8.298  0.00  0.00    +0.127 A 
ATOM      6  C   UNL     1       4.828   2.680  -8.025  0.00  0.00    +0.140 A 
ATOM      7  C   UNL     1       5.981   2.080  -8.565  0.00  0.00    +0.277 A 
ATOM      8  O   UNL     1       7.082   2.556  -8.344  0.00  0.00    -0.266 OA
ATOM      9  N   UNL     1       5.862   0.973  -9.323  0.00  0.00    -0.273 N 
ATOM     10  H   UNL     1       6.681   0.541  -9.701  0.00  0.00    +0.173 HD
ATOM     11  C   UNL     1       4.653   0.441  -9.579  0.00  0.00    +0.331 A 
ATOM     12  O   UNL     1       4.573  -0.556 -10.270  0.00  0.00    -0.246 OA
BRANCH   5  13
ATOM     13  N   UNL     1       2.450   2.684  -7.792  0.00  0.00    -0.343 N 
ATOM     14  H   UNL     1       2.494   3.524  -7.310  0.00  0.00    +0.144 HD
ATOM     15  H   UNL     1       1.596   2.241  -7.917  0.00  0.00    +0.144 HD
ENDBRANCH   5  13
BRANCH   4  16
ATOM     16  C   UNL     1       2.229   0.388  -9.380  0.00  0.00    +0.128 C 
BRANCH  16  17
ATOM     17  C   UNL     1       1.661   1.003 -10.661  0.00  0.00    +0.021 C 
BRANCH  17  19
ATOM     18  C   UNL     1      -0.265   0.987 -12.252  0.00  0.00    +0.004 C 
ATOM     19  C   UNL     1       0.303   0.371 -10.971  0.00  0.00    -0.002 C 
ENDBRANCH  17  19
ENDBRANCH  16  17
ENDBRANCH   4  16
ENDBRANCH   1   6
BRANCH   1  20
ATOM     20  C   UNL     1       5.329   5.112  -7.826  0.00  0.00    +0.082 C 
ATOM     21  C   UNL     1       6.627   5.622  -7.167  0.00  0.00    +0.023 C 
ATOM     22  C   UNL     1       6.437   7.159  -7.095  0.00  0.00    +0.002 C 
ATOM     23  C   UNL     1       4.933   7.302  -6.754  0.00  0.00    +0.002 C 
ATOM     24  C   UNL     1       4.252   6.179  -7.564  0.00  0.00    +0.023 C 
ENDBRANCH   1  20
BRANCH   2  25
ATOM     25  C   UNL     1       4.320   2.444  -5.271  0.00  0.00    +0.019 C 
BRANCH  25  31
ATOM     26  C   UNL     1       3.883   1.337  -3.164  0.00  0.00    -0.078 C 
ATOM     27  C   UNL     1       3.652   1.573  -1.669  0.00  0.00    -0.012 C 
ATOM     28  C   UNL     1       4.924   2.158  -1.048  0.00  0.00    +0.019 C 
ATOM     29  C   UNL     1       5.290   3.455  -1.775  0.00  0.00    -0.012 C 
ATOM     30  C   UNL     1       5.471   3.164  -3.267  0.00  0.00    -0.078 C 
ATOM     31  N   UNL     1       4.205   2.627  -3.810  0.00  0.00    +0.385 N 
ATOM     32  H   UNL     1       3.449   3.294  -3.615  0.00  0.00    -0.081 HD
BRANCH  28  33
ATOM     33  C   UNL     1       4.680   2.453   0.433  0.00  0.00    +0.147 C 
BRANCH  33  34
ATOM     34  C   UNL     1       5.931   3.031   1.042  0.00  0.00    -0.019 A 
ATOM     35  C   UNL     1       6.042   4.397   1.229  0.00  0.00    +0.006 A 
ATOM     36  C   UNL     1       7.190   4.927   1.788  0.00  0.00    +0.000 A 
ATOM     37  C   UNL     1       8.229   4.093   2.155  0.00  0.00    +0.000 A 
ATOM     38  C   UNL     1       8.116   2.727   1.974  0.00  0.00    +0.000 A 
ATOM     39  C   UNL     1       6.968   2.196   1.415  0.00  0.00    +0.006 A 
ENDBRANCH  33  34
BRANCH  33  40
ATOM     40  O   UNL     1       4.336   1.242   1.110  0.00  0.00    -0.387 OA
ATOM     41  H   UNL     1       5.019   0.559   1.064  0.00  0.00    +0.210 HD
ENDBRANCH  33  40
ENDBRANCH  28  33
ENDBRANCH  25  31
ENDBRANCH   2  25
TORSDOF 11
