REMARK  Name = ZINC63743543
REMARK  6 active torsions:
REMARK  status: ('A' for Active; 'I' for Inactive)
REMARK    1  A    between atoms: C_1  and  C_2
REMARK    2  A    between atoms: C_4  and  S_9
REMARK    3  A    between atoms: C_5  and  C_8
REMARK    4  A    between atoms: S_9  and  N_12
REMARK    5  A    between atoms: N_15  and  C_18
REMARK    6  A    between atoms: C_18  and  C_19
REMARK                            x       y       z     vdW  Elec       q    Type
REMARK                         _______ _______ _______ _____ _____    ______ ____
ROOT
ATOM      1  N   UNL     1      -2.389  -1.293  -2.392  0.00  0.00    -0.174 NA
ATOM      2  C   UNL     1      -1.601  -0.776  -3.522  0.00  0.00    +0.125 C 
ATOM      3  C   UNL     1      -0.468  -1.764  -3.817  0.00  0.00    +0.101 C 
ATOM      4  N   UNL     1      -1.031  -3.106  -4.016  0.00  0.00    -0.298 NA
ATOM      5  C   UNL     1      -1.688  -3.593  -2.796  0.00  0.00    +0.101 C 
ATOM      6  C   UNL     1      -2.867  -2.683  -2.456  0.00  0.00    +0.125 C 
ENDROOT
BRANCH   1   7
ATOM      7  S   UNL     1      -2.722  -0.339  -1.081  0.00  0.00    +0.061 S 
ATOM      8  O   UNL     1      -3.890  -0.875  -0.475  0.00  0.00    -0.153 OA
ATOM      9  O   UNL     1      -2.646   1.008  -1.529  0.00  0.00    -0.153 OA
BRANCH   7  12
ATOM     10  C   UNL     1      -0.019   1.526   0.010  0.00  0.00    +0.041 C 
ATOM     11  C   UNL     1       0.002  -0.004   0.002  0.00  0.00    +0.176 C 
ATOM     12  C   UNL     1      -1.409  -0.561   0.072  0.00  0.00    +0.131 C 
ATOM     13  C   UNL     1      -1.423  -1.257   1.211  0.00  0.00    +0.084 C 
ATOM     14  N   UNL     1      -0.222  -1.193   1.828  0.00  0.00    -0.157 NA
ATOM     15  N   UNL     1       0.629  -0.523   1.230  0.00  0.00    -0.178 NA
ATOM     16  C   UNL     1      -2.617  -2.011   1.738  0.00  0.00    +0.069 C 
ENDBRANCH   7  12
ENDBRANCH   1   7
BRANCH   4  17
ATOM     17  C   UNL     1       0.001  -4.048  -4.470  0.00  0.00    +0.111 C 
BRANCH  17  18
ATOM     18  C   UNL     1      -0.659  -5.358  -4.902  0.00  0.00    +0.140 C 
ATOM     19  C   UNL     1       0.354  -6.283  -5.545  0.00  0.00    +0.018 A 
ATOM     20  C   UNL     1       1.330  -7.098  -5.014  0.00  0.00    +0.009 A 
ATOM     21  C   UNL     1       2.128  -7.857  -5.850  0.00  0.00    +0.001 A 
ATOM     22  C   UNL     1       1.946  -7.795  -7.220  0.00  0.00    +0.004 A 
ATOM     23  C   UNL     1       0.972  -6.977  -7.755  0.00  0.00    +0.048 A 
ATOM     24  C   UNL     1       0.167  -6.210  -6.919  0.00  0.00    +0.153 A 
ATOM     25  O   UNL     1      -0.832  -5.332  -7.214  0.00  0.00    -0.406 OA
ATOM     26  N   UNL     1      -1.636  -5.119  -5.995  0.00  0.00    -0.146 NA
ATOM     27  H   UNL     1      -2.401  -5.775  -5.946  0.00  0.00    +0.168 HD
ENDBRANCH  17  18
ENDBRANCH   4  17
TORSDOF 4
