REMARK  Name = ZINC08536538
REMARK  4 active torsions:
REMARK  status: ('A' for Active; 'I' for Inactive)
REMARK    1  A    between atoms: C_1  and  C_2
REMARK    2  A    between atoms: N_11  and  C_15
REMARK    3  A    between atoms: C_15  and  C_16
REMARK    4  A    between atoms: C_16  and  C_18
REMARK                            x       y       z     vdW  Elec       q    Type
REMARK                         _______ _______ _______ _____ _____    ______ ____
ROOT
ATOM      1  C   UNL     1      -3.098  -2.082   2.987  0.00  0.00    +0.197 C 
ENDROOT
BRANCH   1  11
ATOM      2  C   UNL     1      -0.001   1.056   2.507  0.00  0.00    +0.010 C 
ATOM      3  C   UNL     1      -0.730   1.580   1.267  0.00  0.00    +0.018 C 
ATOM      4  C   UNL     1      -0.013   1.086   0.008  0.00  0.00    +0.006 C 
ATOM      5  C   UNL     1      -0.753   1.593  -1.231  0.00  0.00    +0.000 C 
ATOM      6  C   UNL     1      -2.185   1.054  -1.227  0.00  0.00    +0.003 C 
ATOM      7  C   UNL     1      -2.911   1.548   0.027  0.00  0.00    +0.035 C 
ATOM      8  C   UNL     1      -2.167   1.071   1.270  0.00  0.00    +0.115 C 
ATOM      9  C   UNL     1      -2.193  -0.438   1.354  0.00  0.00    +0.247 C 
ATOM     10  O   UNL     1      -1.729  -1.226   0.558  0.00  0.00    -0.273 OA
ATOM     11  N   UNL     1      -2.842  -0.724   2.502  0.00  0.00    -0.217 N 
ATOM     12  C   UNL     1      -3.222   0.388   3.143  0.00  0.00    +0.310 C 
ATOM     13  O   UNL     1      -3.823   0.387   4.199  0.00  0.00    -0.252 OA
ATOM     14  N   UNL     1      -2.865   1.508   2.486  0.00  0.00    -0.285 N 
ATOM     15  H   UNL     1      -3.035   2.422   2.761  0.00  0.00    +0.151 HD
ENDBRANCH   1  11
BRANCH   1  16
ATOM     16  C   UNL     1      -4.421  -2.566   2.451  0.00  0.00    +0.181 C 
ATOM     17  O   UNL     1      -5.084  -1.846   1.734  0.00  0.00    -0.290 OA
BRANCH  16  18
ATOM     18  C   UNL     1      -4.907  -3.908   2.796  0.00  0.00    +0.019 A 
ATOM     19  C   UNL     1      -4.140  -4.743   3.618  0.00  0.00    +0.013 A 
ATOM     20  C   UNL     1      -4.595  -5.988   3.943  0.00  0.00    +0.024 A 
ATOM     21  C   UNL     1      -5.816  -6.439   3.449  0.00  0.00    +0.037 A 
ATOM     22  C   UNL     1      -6.584  -5.618   2.627  0.00  0.00    -0.025 A 
ATOM     23  C   UNL     1      -6.136  -4.359   2.299  0.00  0.00    +0.017 A 
ATOM     24  C   UNL     1      -7.905  -6.112   2.096  0.00  0.00    +0.046 C 
ATOM     25  C   UNL     1      -7.822  -7.617   1.843  0.00  0.00    +0.101 C 
ATOM     26  C   UNL     1      -7.232  -8.306   3.044  0.00  0.00    +0.218 C 
ATOM     27  O   UNL     1      -7.627  -9.410   3.355  0.00  0.00    -0.275 OA
ATOM     28  N   UNL     1      -6.274  -7.713   3.777  0.00  0.00    -0.285 N 
ATOM     29  H   UNL     1      -5.897  -8.176   4.542  0.00  0.00    +0.155 HD
ENDBRANCH  16  18
ENDBRANCH   1  16
TORSDOF 3
