REMARK  Name = ZINC22977449
REMARK  8 active torsions:
REMARK  status: ('A' for Active; 'I' for Inactive)
REMARK    1  A    between atoms: C_1  and  C_2
REMARK    2  A    between atoms: C_2  and  C_3
REMARK    3  A    between atoms: C_2  and  C_4
REMARK    4  A    between atoms: C_2  and  C_5
REMARK    5  A    between atoms: N_13  and  C_17
REMARK    6  A    between atoms: C_17  and  C_18
REMARK    7  A    between atoms: N_20  and  C_21
REMARK    8  A    between atoms: N_20  and  C_22
REMARK                            x       y       z     vdW  Elec       q    Type
REMARK                         _______ _______ _______ _____ _____    ______ ____
ROOT
ATOM      1  C   UNL     1      -4.217  -0.530  -8.908  0.00  0.00    -0.005 C 
ATOM      2  C   UNL     1      -4.503  -0.313  -7.421  0.00  0.00    +0.006 C 
ATOM      3  C   UNL     1      -3.994  -1.517  -6.624  0.00  0.00    +0.035 C 
ATOM      4  C   UNL     1      -2.495  -1.681  -6.851  0.00  0.00    +0.113 C 
ATOM      5  C   UNL     1      -2.193  -1.877  -8.333  0.00  0.00    +0.035 C 
ATOM      6  C   UNL     1      -2.709  -0.672  -9.124  0.00  0.00    +0.006 C 
ATOM      7  C   UNL     1      -1.746  -0.483  -6.315  0.00  0.00    +0.247 C 
ATOM      8  O   UNL     1      -1.855   0.671  -6.673  0.00  0.00    -0.273 OA
ATOM      9  N   UNL     1      -0.932  -0.967  -5.355  0.00  0.00    -0.215 N 
ATOM     10  C   UNL     1      -1.062  -2.292  -5.221  0.00  0.00    +0.310 C 
ATOM     11  O   UNL     1      -0.428  -2.956  -4.423  0.00  0.00    -0.252 OA
ATOM     12  N   UNL     1      -1.975  -2.807  -6.066  0.00  0.00    -0.285 N 
ATOM     13  H   UNL     1      -2.354  -3.824  -6.245  0.00  0.00    +0.151 HD
ENDROOT
BRANCH   1  15
ATOM     14  C   UNL     1      -4.031   1.940  -9.232  0.00  0.00    +0.011 C 
ATOM     15  C   UNL     1      -4.735   0.668  -9.707  0.00  0.00    -0.035 C 
ATOM     16  C   UNL     1      -4.449   0.451 -11.194  0.00  0.00    +0.011 C 
ATOM     17  C   UNL     1      -6.244   0.809  -9.493  0.00  0.00    +0.011 C 
ENDBRANCH   1  15
BRANCH   9  18
ATOM     18  C   UNL     1      -0.015  -0.145  -4.562  0.00  0.00    +0.213 C 
BRANCH  18  19
ATOM     19  C   UNL     1      -0.720   0.341  -3.322  0.00  0.00    +0.234 C 
ATOM     20  O   UNL     1      -1.875   0.032  -3.121  0.00  0.00    -0.274 OA
ATOM     21  N   UNL     1      -0.067   1.120  -2.437  0.00  0.00    -0.300 N 
ATOM     22  C   UNL     1       1.328   1.494  -2.680  0.00  0.00    +0.132 C 
BRANCH  21  23
ATOM     23  C   UNL     1      -0.753   1.593  -1.232  0.00  0.00    +0.076 C 
ATOM     24  C   UNL     1      -0.013   1.086   0.008  0.00  0.00    +0.022 C 
ATOM     25  C   UNL     1      -0.729   1.579   1.267  0.00  0.00    +0.002 C 
ATOM     26  C   UNL     1      -0.750   3.109   1.275  0.00  0.00    +0.000 C 
ATOM     27  C   UNL     1      -1.490   3.616   0.036  0.00  0.00    +0.002 C 
ATOM     28  C   UNL     1      -0.773   3.123  -1.223  0.00  0.00    +0.022 C 
ENDBRANCH  21  23
ENDBRANCH  18  19
ENDBRANCH   9  18
TORSDOF 4
