REMARK  Name = ZINC60160040
REMARK  7 active torsions:
REMARK  status: ('A' for Active; 'I' for Inactive)
REMARK    1  A    between atoms: C_1  and  C_2
REMARK    2  A    between atoms: N_8  and  C_11
REMARK    3  A    between atoms: N_18  and  C_19
REMARK    4  A    between atoms: C_19  and  C_20
REMARK    5  A    between atoms: N_24  and  C_26
REMARK    6  A    between atoms: C_26  and  C_27
REMARK    7  A    between atoms: C_26  and  C_28
REMARK                            x       y       z     vdW  Elec       q    Type
REMARK                         _______ _______ _______ _____ _____    ______ ____
ROOT
ATOM      1  C   UNL     1      -0.018   1.503   0.010  0.00  0.00    +0.088 C 
ATOM      2  C   UNL     1       0.002  -0.004   0.002  0.00  0.00    +0.130 A 
ATOM      3  N   UNL     1       0.005  -0.632  -1.161  0.00  0.00    -0.217 NA
ATOM      4  C   UNL     1       0.023  -1.959  -1.226  0.00  0.00    +0.133 A 
ATOM      5  C   UNL     1       0.038  -2.688  -0.021  0.00  0.00    +0.079 A 
ATOM      6  C   UNL     1       0.058  -4.061   0.308  0.00  0.00    +0.148 A 
ATOM      7  N   UNL     1       0.065  -4.175   1.606  0.00  0.00    -0.172 NA
ATOM      8  N   UNL     1       0.051  -2.903   2.192  0.00  0.00    -0.214 N 
ATOM      9  C   UNL     1       0.035  -1.972   1.192  0.00  0.00    +0.168 A 
ATOM     10  N   UNL     1       0.022  -0.641   1.152  0.00  0.00    -0.213 NA
ATOM     11  N   UNL     1       0.025  -2.607  -2.446  0.00  0.00    -0.328 N 
ATOM     12  H   UNL     1       0.038  -3.576  -2.480  0.00  0.00    +0.147 HD
ENDROOT
BRANCH   8  13
ATOM     13  C   UNL     1       0.053  -2.631   3.566  0.00  0.00    +0.069 A 
ATOM     14  C   UNL     1       0.726  -1.518   4.054  0.00  0.00    +0.028 A 
ATOM     15  C   UNL     1       0.726  -1.252   5.409  0.00  0.00    +0.003 A 
ATOM     16  C   UNL     1       0.059  -2.094   6.281  0.00  0.00    +0.020 A 
ATOM     17  C   UNL     1      -0.611  -3.204   5.798  0.00  0.00    +0.043 A 
ATOM     18  C   UNL     1      -0.621  -3.471   4.441  0.00  0.00    +0.047 A 
ATOM     19 CL   UNL     1      -1.447  -4.257   6.896  0.00  0.00    -0.083 Cl
ENDBRANCH   8  13
BRANCH  11  20
ATOM     20  C   UNL     1       0.008  -1.830  -3.688  0.00  0.00    +0.104 C 
BRANCH  20  21
ATOM     21  C   UNL     1       0.015  -2.783  -4.885  0.00  0.00    -0.012 C 
ATOM     22  C   UNL     1       1.381  -3.507  -5.012  0.00  0.00    -0.015 C 
ATOM     23  C   UNL     1       1.462  -3.836  -6.517  0.00  0.00    -0.078 C 
ATOM     24  N   UNL     1       0.562  -2.902  -7.218  0.00  0.00    +0.381 N 
ATOM     25  C   UNL     1      -0.050  -1.999  -6.219  0.00  0.00    -0.074 C 
ATOM     26  H   UNL     1      -0.161  -3.419  -7.695  0.00  0.00    -0.081 HD
BRANCH  24  27
ATOM     27  C   UNL     1       1.329  -2.115  -8.193  0.00  0.00    -0.075 C 
ATOM     28  C   UNL     1       1.948  -3.052  -9.231  0.00  0.00    -0.014 C 
ATOM     29  C   UNL     1       0.398  -1.122  -8.892  0.00  0.00    -0.014 C 
ENDBRANCH  24  27
ENDBRANCH  20  21
ENDBRANCH  11  20
TORSDOF 4
