REMARK  Name = ZINC59093430
REMARK  11 active torsions:
REMARK  status: ('A' for Active; 'I' for Inactive)
REMARK    1  A    between atoms: C_1  and  C_2
REMARK    2  A    between atoms: C_7  and  N_8
REMARK    3  A    between atoms: N_8  and  C_9
REMARK    4  A    between atoms: C_9  and  N_11
REMARK    5  A    between atoms: N_11  and  C_12
REMARK    6  A    between atoms: N_11  and  C_18
REMARK    7  A    between atoms: C_12  and  C_13
REMARK    8  A    between atoms: C_20  and  C_26
REMARK    9  A    between atoms: C_20  and  C_27
REMARK   10  A    between atoms: C_22  and  C_24
REMARK   11  A    between atoms: C_22  and  C_25
REMARK                            x       y       z     vdW  Elec       q    Type
REMARK                         _______ _______ _______ _____ _____    ______ ____
ROOT
ATOM      1  N   UNL     1      -0.455   0.106   4.731  0.00  0.00    -0.305 N 
ENDROOT
BRANCH   1   2
ATOM      2  C   UNL     1      -0.624   1.564   4.688  0.00  0.00    +0.073 C 
ATOM      3  C   UNL     1      -1.744   1.911   3.706  0.00  0.00    +0.009 C 
ATOM      4  C   UNL     1      -1.924   3.428   3.641  0.00  0.00    -0.072 C 
ATOM      5  N   UNL     1      -0.678   4.115   3.333  0.00  0.00    +0.386 N 
ATOM      6  C   UNL     1       0.512   3.719   4.070  0.00  0.00    -0.072 C 
ATOM      7  C   UNL     1       0.670   2.207   4.189  0.00  0.00    +0.009 C 
ATOM      8  C   UNL     1       0.557   4.359   5.460  0.00  0.00    -0.010 C 
ATOM      9  C   UNL     1       1.738   4.248   3.289  0.00  0.00    -0.010 C 
ATOM     10  C   UNL     1      -2.560   3.940   4.932  0.00  0.00    -0.010 C 
ATOM     11  C   UNL     1      -2.916   3.723   2.492  0.00  0.00    -0.010 C 
ATOM     12  H   UNL     1      -0.489   4.005   2.334  0.00  0.00    -0.084 HD
ATOM     13  H   UNL     1      -0.823   5.119   3.470  0.00  0.00    -0.084 HD
ENDBRANCH   1   2
BRANCH   1  14
ATOM     14  C   UNL     1      -0.279  -0.586   3.587  0.00  0.00    +0.138 C 
ATOM     15  S   UNL     1      -0.224  -2.296   3.622  0.00  0.00    -0.018 S 
BRANCH  14  16
ATOM     16  N   UNL     1      -0.146   0.070   2.417  0.00  0.00    -0.296 N 
ATOM     17  H   UNL     1      -0.088   1.038   2.407  0.00  0.00    +0.154 HD
BRANCH  16  24
ATOM     18  C   UNL     1      -2.133   0.595   0.449  0.00  0.00    +0.045 C 
ATOM     19  C   UNL     1      -1.042  -0.422   0.229  0.00  0.00    -0.029 A 
ATOM     20  C   UNL     1      -0.984  -1.127  -0.958  0.00  0.00    +0.006 A 
ATOM     21  C   UNL     1       0.017  -2.059  -1.161  0.00  0.00    +0.020 A 
ATOM     22  C   UNL     1       0.962  -2.290  -0.177  0.00  0.00    +0.043 A 
ATOM     23  C   UNL     1       0.908  -1.588   1.013  0.00  0.00    +0.043 A 
ATOM     24  C   UNL     1      -0.092  -0.647   1.217  0.00  0.00    +0.037 A 
ATOM     25 CL   UNL     1       2.215  -3.463  -0.436  0.00  0.00    -0.083 Cl
ENDBRANCH  16  24
ENDBRANCH  14  16
ENDBRANCH   1  14
BRANCH   1  26
ATOM     26  C   UNL     1      -0.477  -0.597   6.016  0.00  0.00    +0.149 C 
BRANCH  26  27
ATOM     27  C   UNL     1       0.921  -0.672   6.572  0.00  0.00    +0.007 A 
ATOM     28  C   UNL     1       1.563   0.199   7.390  0.00  0.00    +0.013 A 
ATOM     29  C   UNL     1       2.860  -0.078   7.778  0.00  0.00    +0.008 A 
ATOM     30  C   UNL     1       3.453  -1.211   7.329  0.00  0.00    +0.045 A 
ATOM     31  S   UNL     1       2.161  -1.934   6.331  0.00  0.00    -0.100 S 
ENDBRANCH  26  27
ENDBRANCH   1  26
TORSDOF 6
