REMARK  Name = ZINC60774066
REMARK  5 active torsions:
REMARK  status: ('A' for Active; 'I' for Inactive)
REMARK    1  A    between atoms: C_11  and  C_13
REMARK    2  A    between atoms: C_13  and  O_14
REMARK    3  A    between atoms: O_14  and  C_15
REMARK    4  A    between atoms: C_18  and  N_23
REMARK    5  A    between atoms: C_20  and  C_21
REMARK                            x       y       z     vdW  Elec       q    Type
REMARK                         _______ _______ _______ _____ _____    ______ ____
ROOT
ATOM      1  C   UNL     1       4.999  -2.586  -0.063  0.00  0.00    +0.303 C 
ENDROOT
BRANCH   1  12
ATOM      2  C   UNL     1      -0.017   1.373   0.010  0.00  0.00    +0.001 A 
ATOM      3  C   UNL     1       1.169   2.096   0.002  0.00  0.00    +0.002 A 
ATOM      4  C   UNL     1       2.387   1.453  -0.013  0.00  0.00    +0.028 A 
ATOM      5  C   UNL     1       2.432   0.058  -0.021  0.00  0.00    +0.078 A 
ATOM      6  C   UNL     1       1.224  -0.674  -0.013  0.00  0.00    +0.065 A 
ATOM      7  C   UNL     1       0.002  -0.004   0.002  0.00  0.00    +0.015 A 
ATOM      8  C   UNL     1       1.306  -2.142  -0.022  0.00  0.00    +0.259 A 
ATOM      9  O   UNL     1       0.302  -2.832  -0.017  0.00  0.00    -0.267 OA
ATOM     10  N   UNL     1       2.540  -2.697  -0.038  0.00  0.00    -0.308 N 
ATOM     11  H   UNL     1       2.633  -3.663  -0.045  0.00  0.00    +0.170 HD
ATOM     12  C   UNL     1       3.650  -1.914  -0.045  0.00  0.00    +0.148 A 
ATOM     13  N   UNL     1       3.609  -0.616  -0.037  0.00  0.00    -0.230 NA
ENDBRANCH   1  12
BRANCH   1  14
ATOM     14  O   UNL     1       6.026  -1.593  -0.069  0.00  0.00    -0.484 OA
BRANCH  14  15
ATOM     15  C   UNL     1       7.309  -2.034  -0.085  0.00  0.00    +0.131 A 
ATOM     16  C   UNL     1       7.578  -3.394  -0.101  0.00  0.00    +0.048 A 
ATOM     17  C   UNL     1       8.884  -3.841  -0.117  0.00  0.00    +0.036 A 
ATOM     18  C   UNL     1       9.936  -2.938  -0.117  0.00  0.00    +0.127 A 
ATOM     19  C   UNL     1       9.690  -1.584  -0.102  0.00  0.00    +0.047 A 
ATOM     20  C   UNL     1       8.371  -1.115  -0.090  0.00  0.00    +0.058 A 
BRANCH  18  21
ATOM     21  N   UNL     1      11.331  -3.433  -0.134  0.00  0.00    +0.056 N 
ATOM     22  O   UNL     1      11.550  -4.622  -0.147  0.00  0.00    -0.126 OA
ATOM     23  O   UNL     1      12.251  -2.648  -0.134  0.00  0.00    -0.126 OA
ENDBRANCH  18  21
BRANCH  20  24
ATOM     24  C   UNL     1       8.100   0.328  -0.079  0.00  0.00    +0.262 C 
ATOM     25  O   UNL     1       9.020   1.118  -0.084  0.00  0.00    -0.296 OA
ENDBRANCH  20  24
ENDBRANCH  14  15
ENDBRANCH   1  14
TORSDOF 5
