REMARK  Name = ZINC27460800
REMARK  8 active torsions:
REMARK  status: ('A' for Active; 'I' for Inactive)
REMARK    1  A    between atoms: C_1  and  C_2
REMARK    2  A    between atoms: C_5  and  N_8
REMARK    3  A    between atoms: C_9  and  C_11
REMARK    4  A    between atoms: C_11  and  C_12
REMARK    5  A    between atoms: N_16  and  C_20
REMARK    6  A    between atoms: C_20  and  C_21
REMARK    7  A    between atoms: N_23  and  C_24
REMARK    8  A    between atoms: C_27  and  S_30
REMARK                            x       y       z     vdW  Elec       q    Type
REMARK                         _______ _______ _______ _____ _____    ______ ____
ROOT
ATOM      1  C   UNL     1      -6.122   3.573   5.978  0.00  0.00    +0.151 C 
ATOM      2  C   UNL     1      -6.926   4.226   7.093  0.00  0.00    +0.237 C 
ATOM      3  O   UNL     1      -7.176   3.654   8.132  0.00  0.00    -0.274 OA
ATOM      4  N   UNL     1      -7.332   5.461   6.851  0.00  0.00    -0.223 N 
ATOM      5  C   UNL     1      -7.066   6.116   5.705  0.00  0.00    +0.282 C 
ATOM      6  O   UNL     1      -7.394   7.245   5.393  0.00  0.00    -0.262 OA
ATOM      7  S   UNL     1      -6.117   4.941   4.751  0.00  0.00    -0.054 S 
ENDROOT
BRANCH   1   8
ATOM      8  C   UNL     1      -4.703   3.235   6.439  0.00  0.00    +0.120 C 
BRANCH   8  10
ATOM      9  N   UNL     1      -2.713   2.079   5.533  0.00  0.00    -0.285 N 
ATOM     10  C   UNL     1      -3.985   2.483   5.348  0.00  0.00    +0.219 C 
ATOM     11  O   UNL     1      -4.553   2.241   4.304  0.00  0.00    -0.275 OA
ATOM     12  H   UNL     1      -2.227   2.221   6.509  0.00  0.00    +0.155 HD
BRANCH   9  17
ATOM     13  C   UNL     1       0.137  -0.353   1.273  0.00  0.00    +0.044 C 
ATOM     14  C   UNL     1      -0.620   0.293   2.404  0.00  0.00    -0.050 A 
ATOM     15  C   UNL     1      -0.384  -0.104   3.708  0.00  0.00    +0.005 A 
ATOM     16  C   UNL     1      -1.072   0.490   4.747  0.00  0.00    +0.023 A 
ATOM     17  C   UNL     1      -2.010   1.479   4.482  0.00  0.00    +0.033 A 
ATOM     18  C   UNL     1      -2.249   1.872   3.172  0.00  0.00    +0.023 A 
ATOM     19  C   UNL     1      -1.553   1.278   2.137  0.00  0.00    +0.005 A 
ENDBRANCH   9  17
ENDBRANCH   8  10
ENDBRANCH   1   8
BRANCH   4  20
ATOM     20  C   UNL     1      -8.112   6.151   7.881  0.00  0.00    +0.213 C 
BRANCH  20  21
ATOM     21  C   UNL     1      -7.180   6.894   8.803  0.00  0.00    +0.235 C 
ATOM     22  O   UNL     1      -5.982   6.851   8.618  0.00  0.00    -0.274 OA
ATOM     23  N   UNL     1      -7.678   7.606   9.834  0.00  0.00    -0.284 N 
ATOM     24  H   UNL     1      -8.755   7.575  10.054  0.00  0.00    +0.155 HD
BRANCH  23  25
ATOM     25  C   UNL     1      -6.824   8.384  10.624  0.00  0.00    +0.034 A 
ATOM     26  C   UNL     1      -7.088   8.552  11.977  0.00  0.00    +0.025 A 
ATOM     27  C   UNL     1      -6.241   9.316  12.755  0.00  0.00    +0.028 A 
ATOM     28  C   UNL     1      -5.136   9.923  12.185  0.00  0.00    +0.085 A 
ATOM     29  C   UNL     1      -4.874   9.763  10.837  0.00  0.00    +0.028 A 
ATOM     30  C   UNL     1      -5.714   8.995  10.055  0.00  0.00    +0.025 A 
BRANCH  28  31
ATOM     31  S   UNL     1      -4.062  10.903  13.180  0.00  0.00    -0.013 S 
ATOM     32  O   UNL     1      -4.563  12.232  13.132  0.00  0.00    -0.172 OA
ATOM     33  O   UNL     1      -3.884  10.199  14.401  0.00  0.00    -0.172 OA
ATOM     34  H   UNL     1      -2.863  10.923  12.570  0.00  0.00    +0.215 HD
ENDBRANCH  28  31
ENDBRANCH  23  25
ENDBRANCH  20  21
ENDBRANCH   4  20
TORSDOF 7
