REMARK  Name = ZINC56912518
REMARK  4 active torsions:
REMARK  status: ('A' for Active; 'I' for Inactive)
REMARK    1  A    between atoms: C_1  and  C_2
REMARK    2  A    between atoms: C_7  and  N_8
REMARK    3  A    between atoms: C_9  and  N_28
REMARK    4  A    between atoms: C_16  and  C_18
REMARK                            x       y       z     vdW  Elec       q    Type
REMARK                         _______ _______ _______ _____ _____    ______ ____
ROOT
ATOM      1  N   UNL     1       0.418   0.150   2.331  0.00  0.00    -0.215 N 
ATOM      2  C   UNL     1       0.379  -0.368   3.589  0.00  0.00    +0.146 A 
ATOM      3  C   UNL     1       0.131   0.661   4.446  0.00  0.00    +0.037 A 
ATOM      4  C   UNL     1       0.017   1.831   3.692  0.00  0.00    +0.087 A 
ATOM      5  N   UNL     1       0.194   1.528   2.429  0.00  0.00    -0.168 NA
ATOM      6  C   UNL     1      -0.258   2.981   4.629  0.00  0.00    +0.166 C 
ATOM      7  N   UNL     1      -0.304   2.446   5.993  0.00  0.00    -0.287 N 
ATOM      8  C   UNL     1      -0.064   1.002   5.901  0.00  0.00    +0.149 C 
ATOM      9  C   UNL     1      -0.526   3.150   7.121  0.00  0.00    +0.249 C 
ATOM     10  O   UNL     1      -0.539   2.584   8.198  0.00  0.00    -0.270 OA
ENDROOT
BRANCH   9  11
ATOM     11  C   UNL     1      -0.752   4.599   7.050  0.00  0.00    +0.062 A 
ATOM     12  C   UNL     1      -0.772   5.368   5.923  0.00  0.00    +0.096 A 
ATOM     13  N   UNL     1      -1.009   6.660   6.254  0.00  0.00    -0.360 N 
ATOM     14  H   UNL     1      -1.069   7.392   5.620  0.00  0.00    +0.165 HD
ATOM     15  C   UNL     1      -1.154   6.788   7.620  0.00  0.00    +0.047 A 
ATOM     16  C   UNL     1      -1.007   5.510   8.181  0.00  0.00    +0.012 A 
ATOM     17  C   UNL     1      -1.112   5.335   9.559  0.00  0.00    +0.011 A 
ATOM     18  C   UNL     1      -1.364   6.422  10.367  0.00  0.00    +0.001 A 
ATOM     19  C   UNL     1      -1.514   7.685   9.814  0.00  0.00    +0.002 A 
ATOM     20  C   UNL     1      -1.403   7.874   8.453  0.00  0.00    +0.026 A 
ENDBRANCH   9  11
BRANCH   1  27
ATOM     21  C   UNL     1      -1.334   0.584   0.131  0.00  0.00    +0.046 C 
ATOM     22  C   UNL     1      -0.183  -0.386   0.053  0.00  0.00    -0.025 A 
ATOM     23  C   UNL     1       0.049  -1.091  -1.113  0.00  0.00    +0.005 A 
ATOM     24  C   UNL     1       1.104  -1.981  -1.185  0.00  0.00    +0.000 A 
ATOM     25  C   UNL     1       1.931  -2.169  -0.092  0.00  0.00    +0.002 A 
ATOM     26  C   UNL     1       1.703  -1.467   1.076  0.00  0.00    +0.028 A 
ATOM     27  C   UNL     1       0.648  -0.568   1.150  0.00  0.00    +0.071 A 
ENDBRANCH   1  27
BRANCH   2  28
ATOM     28  N   UNL     1       0.560  -1.709   3.937  0.00  0.00    -0.308 N 
ATOM     29  C   UNL     1       1.445  -2.178   4.866  0.00  0.00    +0.092 A 
ATOM     30  C   UNL     1       1.325  -3.520   4.921  0.00  0.00    +0.019 A 
ATOM     31  C   UNL     1       0.332  -3.895   3.994  0.00  0.00    +0.019 A 
ATOM     32  C   UNL     1      -0.123  -2.768   3.410  0.00  0.00    +0.092 A 
ENDBRANCH   2  28
TORSDOF 3
