REMARK  Name = ZINC06343857
REMARK  5 active torsions:
REMARK  status: ('A' for Active; 'I' for Inactive)
REMARK    1  A    between atoms: C_5  and  C_7
REMARK    2  A    between atoms: N_10  and  C_12
REMARK    3  A    between atoms: C_12  and  C_13
REMARK    4  A    between atoms: N_15  and  C_16
REMARK    5  A    between atoms: C_17  and  C_25
REMARK                            x       y       z     vdW  Elec       q    Type
REMARK                         _______ _______ _______ _____ _____    ______ ____
ROOT
ATOM      1  C   UNL     1      -1.601  -1.157  -1.409  0.00  0.00    +0.241 C 
ATOM      2  O   UNL     1      -0.973  -0.687  -2.335  0.00  0.00    -0.273 OA
ATOM      3  N   UNL     1      -2.674  -1.937  -1.649  0.00  0.00    -0.278 N 
ATOM      4  H   UNL     1      -3.176  -2.312  -0.909  0.00  0.00    +0.155 HD
ENDROOT
BRANCH   3   5
ATOM      5  C   UNL     1      -3.059  -2.202  -2.954  0.00  0.00    +0.084 A 
ATOM      6  C   UNL     1      -4.121  -2.978  -3.398  0.00  0.00    +0.068 A 
ATOM      7  C   UNL     1      -4.314  -3.094  -4.834  0.00  0.00    -0.023 A 
ATOM      8  C   UNL     1      -3.413  -2.429  -5.590  0.00  0.00    -0.004 A 
ATOM      9  S   UNL     1      -2.329  -1.653  -4.426  0.00  0.00    -0.077 S 
ATOM     10  C   UNL     1      -3.358  -2.372  -7.086  0.00  0.00    +0.043 C 
ATOM     11  C   UNL     1      -4.253  -3.486  -7.646  0.00  0.00    +0.005 C 
ATOM     12  C   UNL     1      -5.604  -3.443  -6.925  0.00  0.00    +0.005 C 
ATOM     13  C   UNL     1      -5.434  -3.902  -5.476  0.00  0.00    +0.037 C 
BRANCH   6  14
ATOM     14  C   UNL     1      -5.017  -3.653  -2.454  0.00  0.00    +0.244 C 
ATOM     15  O   UNL     1      -6.015  -3.085  -2.050  0.00  0.00    -0.270 OA
ATOM     16  N   UNL     1      -4.736  -4.902  -2.033  0.00  0.00    -0.325 N 
ATOM     17  H   UNL     1      -3.941  -5.355  -2.355  0.00  0.00    +0.145 HD
ATOM     18  H   UNL     1      -5.329  -5.348  -1.408  0.00  0.00    +0.145 HD
ENDBRANCH   6  14
ENDBRANCH   3   5
BRANCH   1  19
ATOM     19  C   UNL     1      -1.181  -0.868   0.009  0.00  0.00    +0.264 C 
BRANCH  19  23
ATOM     20  C   UNL     1       2.005   0.648  -0.014  0.00  0.00    +0.206 A 
ATOM     21  N   UNL     1       1.199   1.718  -0.000  0.00  0.00    -0.108 NA
ATOM     22  N   UNL     1      -0.015   1.283   0.009  0.00  0.00    -0.045 NA
ATOM     23  N   UNL     1       0.002  -0.004   0.002  0.00  0.00    -0.154 N 
ATOM     24  N   UNL     1       1.224  -0.414  -0.012  0.00  0.00    -0.130 NA
BRANCH  20  29
ATOM     25  C   UNL     1       5.575  -0.532  -0.055  0.00  0.00    +0.001 A 
ATOM     26  C   UNL     1       6.259   0.671  -0.055  0.00  0.00    +0.001 A 
ATOM     27  C   UNL     1       5.564   1.867  -0.042  0.00  0.00    +0.021 A 
ATOM     28  C   UNL     1       4.183   1.865  -0.029  0.00  0.00    +0.052 A 
ATOM     29  C   UNL     1       3.490   0.656  -0.029  0.00  0.00    +0.041 A 
ATOM     30  C   UNL     1       4.195  -0.545  -0.037  0.00  0.00    +0.013 A 
ATOM     31 CL   UNL     1       3.312   3.367  -0.011  0.00  0.00    -0.083 Cl
ENDBRANCH  20  29
ENDBRANCH  19  23
ENDBRANCH   1  19
TORSDOF 5
