REMARK  Name = ZINC39777464
REMARK  7 active torsions:
REMARK  status: ('A' for Active; 'I' for Inactive)
REMARK    1  A    between atoms: C_1  and  C_2
REMARK    2  A    between atoms: C_2  and  C_4
REMARK    3  A    between atoms: C_2  and  S_19
REMARK    4  A    between atoms: C_12  and  C_14
REMARK    5  A    between atoms: S_19  and  C_20
REMARK    6  A    between atoms: C_24  and  C_29
REMARK    7  A    between atoms: N_25  and  C_26
REMARK                            x       y       z     vdW  Elec       q    Type
REMARK                         _______ _______ _______ _____ _____    ______ ____
ROOT
ATOM      1  C   UNL     1      -1.169  -1.642  -3.042  0.00  0.00    +0.238 C 
ATOM      2  N   UNL     1      -0.237  -2.429  -3.867  0.00  0.00    -0.237 N 
ATOM      3  N   UNL     1       0.270  -1.556  -4.837  0.00  0.00    -0.169 NA
ATOM      4  C   UNL     1      -0.231  -0.356  -4.704  0.00  0.00    +0.147 C 
ATOM      5  N   UNL     1      -1.130  -0.294  -3.632  0.00  0.00    -0.282 N 
ATOM      6  H   UNL     1      -0.018  -3.368  -3.759  0.00  0.00    +0.171 HD
ENDROOT
BRANCH   4   7
ATOM      7  C   UNL     1       0.090   0.731  -5.531  0.00  0.00    +0.022 C 
ATOM      8  C   UNL     1       0.893   0.715  -6.672  0.00  0.00    +0.006 A 
ATOM      9  C   UNL     1       1.597  -0.318  -7.328  0.00  0.00    +0.010 A 
ATOM     10  C   UNL     1       2.314  -0.039  -8.447  0.00  0.00    +0.001 A 
ATOM     11  C   UNL     1       2.376   1.253  -8.973  0.00  0.00    +0.002 A 
ATOM     12  C   UNL     1       1.725   2.293  -8.394  0.00  0.00    +0.026 A 
ATOM     13  C   UNL     1       0.955   2.079  -7.222  0.00  0.00    +0.043 A 
ATOM     14  N   UNL     1       0.242   2.906  -6.484  0.00  0.00    -0.380 N 
ATOM     15  C   UNL     1      -0.367   2.165  -5.375  0.00  0.00    +0.152 C 
ATOM     16  H   UNL     1       0.134   3.856  -6.650  0.00  0.00    +0.160 HD
ENDBRANCH   4   7
BRANCH   5  17
ATOM     17  C   UNL     1      -1.883   0.880  -3.185  0.00  0.00    +0.078 C 
ATOM     18  C   UNL     1      -2.763   0.724  -1.943  0.00  0.00    +0.024 C 
ATOM     19  C   UNL     1      -3.406   0.839  -3.327  0.00  0.00    +0.024 C 
ENDBRANCH   5  17
BRANCH   1  20
ATOM     20  S   UNL     1      -0.608  -1.597  -1.318  0.00  0.00    -0.106 S 
BRANCH  20  22
ATOM     21  C   UNL     1       1.155   0.453  -1.737  0.00  0.00    +0.029 C 
ATOM     22  C   UNL     1       1.117  -1.046  -1.433  0.00  0.00    +0.133 C 
BRANCH  22  23
ATOM     23  C   UNL     1       1.817  -1.311  -0.124  0.00  0.00    +0.228 C 
ATOM     24  O   UNL     1       1.169  -1.471   0.888  0.00  0.00    -0.274 OA
ATOM     25  N   UNL     1       3.162  -1.370  -0.080  0.00  0.00    -0.298 N 
ATOM     26  C   UNL     1       3.961  -1.173  -1.298  0.00  0.00    +0.127 C 
ATOM     27  C   UNL     1       4.966  -0.042  -1.047  0.00  0.00    +0.127 C 
ATOM     28  N   UNL     1       5.662  -0.305   0.221  0.00  0.00    -0.292 N 
ATOM     29  C   UNL     1       4.863  -0.502   1.439  0.00  0.00    +0.127 C 
ATOM     30  C   UNL     1       3.858  -1.627   1.189  0.00  0.00    +0.127 C 
ATOM     31  C   UNL     1       7.007  -0.364   0.266  0.00  0.00    +0.282 C 
ATOM     32  O   UNL     1       7.569  -0.669   1.301  0.00  0.00    -0.267 OA
BRANCH  31  33
ATOM     33  C   UNL     1       7.795  -0.061  -0.934  0.00  0.00    +0.189 A 
ATOM     34  C   UNL     1       9.144  -0.222  -1.070  0.00  0.00    +0.054 A 
ATOM     35  C   UNL     1       9.470   0.189  -2.372  0.00  0.00    +0.042 A 
ATOM     36  C   UNL     1       8.320   0.577  -2.966  0.00  0.00    +0.196 A 
ATOM     37  O   UNL     1       7.312   0.420  -2.098  0.00  0.00    -0.458 OA
ENDBRANCH  31  33
ENDBRANCH  22  23
ENDBRANCH  20  22
ENDBRANCH   1  20
TORSDOF 6
