REMARK  Name = ZINC37278852
REMARK  5 active torsions:
REMARK  status: ('A' for Active; 'I' for Inactive)
REMARK    1  A    between atoms: C_1  and  C_2
REMARK    2  A    between atoms: C_5  and  C_7
REMARK    3  A    between atoms: C_8  and  C_13
REMARK    4  A    between atoms: C_13  and  N_14
REMARK    5  A    between atoms: N_14  and  C_15
REMARK                            x       y       z     vdW  Elec       q    Type
REMARK                         _______ _______ _______ _____ _____    ______ ____
ROOT
ATOM      1  C   UNL     1       1.667  -3.226  -0.023  0.00  0.00    +0.132 A 
ATOM      2  C   UNL     1       2.915  -3.287  -0.678  0.00  0.00    +0.018 A 
ATOM      3  C   UNL     1       3.445  -4.506  -0.446  0.00  0.00    +0.110 A 
ATOM      4  N   UNL     1       2.578  -5.199   0.324  0.00  0.00    -0.284 N 
ATOM      5  H   UNL     1       2.702  -6.107   0.644  0.00  0.00    +0.188 HD
ATOM      6  N   UNL     1       1.472  -4.380   0.583  0.00  0.00    -0.170 NA
ENDROOT
BRANCH   1  11
ATOM      7  C   UNL     1      -0.018   1.503   0.010  0.00  0.00    +0.086 C 
ATOM      8  C   UNL     1       0.002  -0.004   0.002  0.00  0.00    +0.103 A 
ATOM      9  C   UNL     1      -1.081  -0.804   0.003  0.00  0.00    +0.045 A 
ATOM     10  C   UNL     1      -0.613  -2.134  -0.007  0.00  0.00    +0.052 A 
ATOM     11  C   UNL     1       0.745  -2.070  -0.013  0.00  0.00    +0.155 A 
ATOM     12  O   UNL     1       1.104  -0.772  -0.013  0.00  0.00    -0.458 OA
ENDBRANCH   1  11
BRANCH   2  13
ATOM     13  C   UNL     1       3.543  -2.186  -1.494  0.00  0.00    +0.140 C 
BRANCH  13  14
ATOM     14  N   UNL     1       4.168  -1.210  -0.597  0.00  0.00    -0.339 N 
ATOM     15  H   UNL     1       4.130  -1.340   0.363  0.00  0.00    +0.146 HD
BRANCH  14  16
ATOM     16  C   UNL     1       4.819  -0.092  -1.126  0.00  0.00    +0.042 A 
ATOM     17  C   UNL     1       4.870   0.098  -2.501  0.00  0.00    +0.025 A 
ATOM     18  C   UNL     1       5.514   1.204  -3.020  0.00  0.00    +0.017 A 
ATOM     19  C   UNL     1       6.108   2.123  -2.173  0.00  0.00    +0.019 A 
ATOM     20  C   UNL     1       6.059   1.936  -0.803  0.00  0.00    +0.032 A 
ATOM     21  C   UNL     1       5.412   0.835  -0.277  0.00  0.00    +0.040 A 
ATOM     22 BR   UNL     1       5.339   0.585   1.596  0.00  0.00    -0.048 Br
ATOM     23 BR   UNL     1       6.989   3.635  -2.889  0.00  0.00    -0.050 Br
ENDBRANCH  14  16
ENDBRANCH  13  14
ENDBRANCH   2  13
TORSDOF 4
