REMARK  Name = ZINC02231462
REMARK  8 active torsions:
REMARK  status: ('A' for Active; 'I' for Inactive)
REMARK    1  A    between atoms: C_1  and  C_2
REMARK    2  A    between atoms: C_2  and  CA_3
REMARK    3  A    between atoms: CA_3  and  C_5
REMARK    4  A    between atoms: CA_3  and  N_7
REMARK    5  A    between atoms: C_5  and  O_6
REMARK    6  A    between atoms: C_8  and  C_10
REMARK    7  A    between atoms: C_19  and  C_22
REMARK    8  A    between atoms: C_25  and  C_28
REMARK                            x       y       z     vdW  Elec       q    Type
REMARK                         _______ _______ _______ _____ _____    ______ ____
ROOT
ATOM      1  C   UNL     1      -0.018   1.476   0.010  0.00  0.00    +0.237 A 
ATOM      2  N   UNL     1      -1.120   2.236   0.019  0.00  0.00    -0.202 NA
ATOM      3  C   UNL     1      -0.778   3.506   0.028  0.00  0.00    +0.168 A 
ATOM      4  C   UNL     1      -1.553   4.764   0.042  0.00  0.00    +0.055 A 
ATOM      5  C   UNL     1      -2.961   4.934   0.058  0.00  0.00    -0.024 A 
ATOM      6  C   UNL     1      -3.441   6.198   0.068  0.00  0.00    -0.004 A 
ATOM      7  S   UNL     1      -1.996   7.226   0.057  0.00  0.00    -0.073 S 
ATOM      8  C   UNL     1      -0.776   5.935   0.039  0.00  0.00    +0.114 A 
ATOM      9  N   UNL     1       0.550   5.905   0.025  0.00  0.00    -0.225 NA
ATOM     10  C   UNL     1       1.219   4.786   0.014  0.00  0.00    +0.131 A 
ATOM     11  N   UNL     1       0.588   3.580   0.015  0.00  0.00    -0.198 N 
ATOM     12  N   UNL     1       1.048   2.255   0.004  0.00  0.00    -0.138 NA
ATOM     13  C   UNL     1       2.725   4.829   0.000  0.00  0.00    +0.088 C 
ATOM     14  C   UNL     1      -4.875   6.628   0.085  0.00  0.00    +0.043 C 
ATOM     15  C   UNL     1      -5.748   5.419  -0.281  0.00  0.00    +0.009 C 
ATOM     16  C   UNL     1      -5.289   4.215   0.547  0.00  0.00    -0.009 C 
ATOM     17  C   UNL     1      -3.917   3.743   0.065  0.00  0.00    +0.040 C 
ATOM     18  C   UNL     1      -6.301   3.077   0.393  0.00  0.00    +0.008 C 
ENDROOT
BRANCH   1  20
ATOM     19  N   UNL     1       1.178  -0.662  -0.012  0.00  0.00    -0.304 N 
ATOM     20  C   UNL     1       0.002  -0.004   0.002  0.00  0.00    +0.283 C 
ATOM     21  O   UNL     1      -1.042  -0.626   0.008  0.00  0.00    -0.267 OA
ATOM     22  H   UNL     1       2.012  -0.166  -0.017  0.00  0.00    +0.149 HD
BRANCH  19  23
ATOM     23  CA  UNL     1       1.198  -2.127  -0.020  0.00  0.00    +0.098 C 
BRANCH  23  25
ATOM     24  C   UNL     1      -0.270  -2.263   1.997  0.00  0.00    +0.006 C 
ATOM     25  C   UNL     1       1.092  -2.646   1.415  0.00  0.00    +0.021 C 
ENDBRANCH  23  25
BRANCH  23  26
ATOM     26  C   UNL     1       2.507  -2.616  -0.644  0.00  0.00    +0.178 C 
BRANCH  26  27
ATOM     27  O   UNL     1       3.604  -2.227   0.184  0.00  0.00    -0.393 OA
ATOM     28  H   UNL     1       4.468  -2.505  -0.151  0.00  0.00    +0.209 HD
ENDBRANCH  26  27
ENDBRANCH  23  26
ENDBRANCH  19  23
ENDBRANCH   1  20
TORSDOF 5
