REMARK  Name = ZINC13136086
REMARK  2 active torsions:
REMARK  status: ('A' for Active; 'I' for Inactive)
REMARK    1  A    between atoms: C_6  and  C_7
REMARK    2  A    between atoms: C_10  and  C_12
REMARK                            x       y       z     vdW  Elec       q    Type
REMARK                         _______ _______ _______ _____ _____    ______ ____
ROOT
ATOM      1  C   UNL     1      -1.263  -0.762   0.011  0.00  0.00    +0.072 C 
ATOM      2  N   UNL     1      -2.442  -0.241   0.019  0.00  0.00    -0.178 NA
ATOM      3  N   UNL     1      -3.476  -1.175   0.026  0.00  0.00    -0.146 N 
ATOM      4  C   UNL     1      -2.896  -2.527   0.020  0.00  0.00    +0.291 C 
ATOM      5  C   UNL     1      -1.377  -2.269   0.004  0.00  0.00    +0.127 C 
ATOM      6  O   UNL     1      -3.293  -3.240  -1.153  0.00  0.00    -0.195 OA
ATOM      7  C   UNL     1      -4.822  -0.880   0.035  0.00  0.00    +0.261 C 
ATOM      8  N   UNL     1      -5.665  -1.861   0.046  0.00  0.00    -0.135 NA
ATOM      9  N   UNL     1      -7.037  -1.771  -0.058  0.00  0.00    -0.265 N 
ATOM     10  C   UNL     1      -7.810  -0.925   0.544  0.00  0.00    +0.094 C 
ATOM     11  C   UNL     1      -7.241   0.111   1.486  0.00  0.00    +0.146 C 
ATOM     12  C   UNL     1      -6.263   0.951   0.700  0.00  0.00    +0.143 A 
ATOM     13  N   UNL     1      -5.201   0.450   0.039  0.00  0.00    -0.183 N 
ATOM     14  N   UNL     1      -4.587   1.534  -0.596  0.00  0.00    -0.151 NA
ATOM     15  C   UNL     1      -5.266   2.601  -0.254  0.00  0.00    +0.245 A 
ATOM     16  N   UNL     1      -6.274   2.242   0.529  0.00  0.00    -0.218 NA
ATOM     17  N   UNL     1      -9.169  -0.970   0.325  0.00  0.00    -0.347 N 
ATOM     18  H   UNL     1      -9.541  -1.633  -0.279  0.00  0.00    +0.143 HD
ATOM     19  H   UNL     1      -9.754  -0.340   0.773  0.00  0.00    +0.143 HD
ATOM     20  H   UNL     1      -7.470  -2.409  -0.647  0.00  0.00    +0.190 HD
ENDROOT
BRANCH   1  26
ATOM     21  C   UNL     1      -0.017   1.393   0.010  0.00  0.00    +0.011 A 
ATOM     22  C   UNL     1       1.170   2.096   0.002  0.00  0.00    +0.016 A 
ATOM     23  C   UNL     1       2.378   1.420  -0.013  0.00  0.00    +0.018 A 
ATOM     24  C   UNL     1       2.404   0.035  -0.021  0.00  0.00    +0.016 A 
ATOM     25  C   UNL     1       1.225  -0.680  -0.014  0.00  0.00    +0.011 A 
ATOM     26  C   UNL     1       0.002  -0.004   0.002  0.00  0.00    -0.002 A 
ATOM     27 BR   UNL     1       4.000   2.392  -0.024  0.00  0.00    -0.050 Br
ENDBRANCH   1  26
BRANCH   4  28
ATOM     28  C   UNL     1      -3.304  -3.293   1.280  0.00  0.00    +0.441 C 
ATOM     29  F   UNL     1      -4.696  -3.426   1.315  0.00  0.00    -0.166 F 
ATOM     30  F   UNL     1      -2.714  -4.561   1.267  0.00  0.00    -0.166 F 
ATOM     31  F   UNL     1      -2.874  -2.591   2.412  0.00  0.00    -0.166 F 
ENDBRANCH   4  28
TORSDOF 2
