REMARK  Name = ZINC11094988
REMARK  8 active torsions:
REMARK  status: ('A' for Active; 'I' for Inactive)
REMARK    1  A    between atoms: C_1  and  C_2
REMARK    2  A    between atoms: C_4  and  C_30
REMARK    3  A    between atoms: C_9  and  C_11
REMARK    4  A    between atoms: C_17  and  C_19
REMARK    5  A    between atoms: N_24  and  C_26
REMARK    6  A    between atoms: C_26  and  C_27
REMARK    7  A    between atoms: C_26  and  C_28
REMARK    8  A    between atoms: C_26  and  C_29
REMARK                            x       y       z     vdW  Elec       q    Type
REMARK                         _______ _______ _______ _____ _____    ______ ____
ROOT
ATOM      1  C   UNL     1       2.779  -4.320   5.322  0.00  0.00    +0.078 C 
ATOM      2  C   UNL     1       2.775  -4.297   3.792  0.00  0.00    +0.032 C 
ATOM      3  C   UNL     1       3.501  -3.040   3.302  0.00  0.00    +0.108 C 
ATOM      4  N   UNL     1       2.881  -1.863   3.926  0.00  0.00    -0.301 N 
ATOM      5  C   UNL     1       2.758  -1.821   5.389  0.00  0.00    +0.108 C 
ATOM      6  C   UNL     1       2.034  -3.094   5.855  0.00  0.00    +0.032 C 
ATOM      7  C   UNL     1       2.440  -0.838   3.170  0.00  0.00    +0.221 C 
ATOM      8  O   UNL     1       2.553  -0.882   1.963  0.00  0.00    -0.275 OA
ENDROOT
BRANCH   1  17
ATOM      9  C   UNL     1      -0.288  -9.898   6.065  0.00  0.00    +0.066 C 
ATOM     10  C   UNL     1       0.259  -8.928   7.080  0.00  0.00    +0.044 A 
ATOM     11  C   UNL     1       0.131  -9.186   8.436  0.00  0.00    +0.046 A 
ATOM     12  C   UNL     1       0.648  -8.268   9.336  0.00  0.00    +0.044 A 
ATOM     13  N   UNL     1       1.243  -7.179   8.877  0.00  0.00    -0.219 NA
ATOM     14  C   UNL     1       1.348  -6.963   7.575  0.00  0.00    +0.222 A 
ATOM     15  N   UNL     1       0.861  -7.817   6.689  0.00  0.00    -0.219 NA
ATOM     16  N   UNL     1       1.979  -5.809   7.128  0.00  0.00    -0.254 N 
ATOM     17  C   UNL     1       2.094  -5.572   5.807  0.00  0.00    +0.223 C 
ATOM     18  O   UNL     1       1.647  -6.367   5.007  0.00  0.00    -0.275 OA
ATOM     19  C   UNL     1       0.534  -8.507  10.820  0.00  0.00    +0.066 C 
ATOM     20  H   UNL     1       2.337  -5.173   7.768  0.00  0.00    +0.158 HD
ENDBRANCH   1  17
BRANCH   7  21
ATOM     21  C   UNL     1       1.807   0.363   3.824  0.00  0.00    +0.101 C 
ATOM     22  C   UNL     1       0.451  -0.009   4.468  0.00  0.00    +0.110 C 
ATOM     23  C   UNL     1      -0.570   0.310   3.397  0.00  0.00    +0.217 C 
ATOM     24  O   UNL     1      -1.716  -0.086   3.390  0.00  0.00    -0.276 OA
ATOM     25  N   UNL     1      -0.020   1.094   2.454  0.00  0.00    -0.296 N 
ATOM     26  C   UNL     1       1.379   1.406   2.768  0.00  0.00    +0.121 C 
BRANCH  25  27
ATOM     27  C   UNL     1      -0.729   1.579   1.267  0.00  0.00    +0.029 C 
ATOM     28  C   UNL     1      -0.013   1.086   0.008  0.00  0.00    +0.031 C 
ATOM     29  C   UNL     1      -0.750   3.109   1.275  0.00  0.00    +0.031 C 
ATOM     30  C   UNL     1      -2.164   1.050   1.278  0.00  0.00    +0.031 C 
ENDBRANCH  25  27
ENDBRANCH   7  21
TORSDOF 3
