REMARK  Name = ZINC39370979
REMARK  8 active torsions:
REMARK  status: ('A' for Active; 'I' for Inactive)
REMARK    1  A    between atoms: C_1  and  N_2
REMARK    2  A    between atoms: C_7  and  C_17
REMARK    3  A    between atoms: C_17  and  C_18
REMARK    4  A    between atoms: C_18  and  C_19
REMARK    5  A    between atoms: C_19  and  C_20
REMARK    6  A    between atoms: N_22  and  C_23
REMARK    7  A    between atoms: C_23  and  C_24
REMARK    8  A    between atoms: C_24  and  C_25
REMARK                            x       y       z     vdW  Elec       q    Type
REMARK                         _______ _______ _______ _____ _____    ______ ____
ROOT
ATOM      1  C   UNL     1      -4.065  -3.675  -2.427  0.00  0.00    +0.012 C 
ENDROOT
BRANCH   1   2
ATOM      2  C   UNL     1      -2.879  -3.533  -1.471  0.00  0.00    +0.040 C 
BRANCH   2   8
ATOM      3  C   UNL     1      -0.018   1.461   0.010  0.00  0.00    +0.135 C 
ATOM      4  N   UNL     1       0.002  -0.004   0.002  0.00  0.00    -0.268 N 
ATOM      5  C   UNL     1      -1.256  -0.741   0.004  0.00  0.00    +0.252 C 
ATOM      6  N   UNL     1      -2.344  -0.014  -0.677  0.00  0.00    -0.219 NA
ATOM      7  N   UNL     1      -3.223  -1.099  -1.158  0.00  0.00    -0.234 NA
ATOM      8  C   UNL     1      -2.265  -2.140  -1.624  0.00  0.00    +0.158 C 
ATOM      9  N   UNL     1      -1.101  -1.999  -0.760  0.00  0.00    -0.280 N 
ATOM     10  C   UNL     1       0.057  -2.769  -0.639  0.00  0.00    +0.053 A 
ATOM     11  C   UNL     1       0.286  -4.110  -0.826  0.00  0.00    +0.031 A 
ATOM     12  C   UNL     1       1.536  -4.606  -0.639  0.00  0.00    +0.048 A 
ATOM     13  S   UNL     1       2.459  -3.268  -0.199  0.00  0.00    -0.090 S 
ATOM     14  C   UNL     1       1.203  -2.035  -0.255  0.00  0.00    +0.095 A 
ATOM     15  C   UNL     1       1.195  -0.660  -0.013  0.00  0.00    +0.257 C 
ATOM     16  O   UNL     1       2.236  -0.060   0.185  0.00  0.00    -0.269 OA
ATOM     17  H   UNL     1      -2.833   0.589  -0.033  0.00  0.00    +0.144 HD
ATOM     18  H   UNL     1      -3.804  -1.451  -0.413  0.00  0.00    +0.143 HD
ENDBRANCH   2   8
ENDBRANCH   1   2
BRANCH   1  19
ATOM     19  C   UNL     1      -4.679  -5.068  -2.274  0.00  0.00    +0.096 C 
BRANCH  19  20
ATOM     20  C   UNL     1      -5.847  -5.209  -3.216  0.00  0.00    +0.213 C 
ATOM     21  O   UNL     1      -6.157  -4.286  -3.939  0.00  0.00    -0.276 OA
ATOM     22  N   UNL     1      -6.546  -6.360  -3.256  0.00  0.00    -0.315 N 
ATOM     23  H   UNL     1      -6.298  -7.099  -2.678  0.00  0.00    +0.149 HD
BRANCH  22  24
ATOM     24  C   UNL     1      -7.681  -6.497  -4.172  0.00  0.00    +0.109 C 
BRANCH  24  25
ATOM     25  C   UNL     1      -8.295  -7.890  -4.019  0.00  0.00    +0.056 C 
BRANCH  25  26
ATOM     26  C   UNL     1      -9.463  -8.031  -4.961  0.00  0.00    -0.021 A 
ATOM     27  C   UNL     1      -9.403  -8.425  -6.370  0.00  0.00    +0.003 A 
ATOM     28  C   UNL     1      -8.365  -8.770  -7.238  0.00  0.00    +0.010 A 
ATOM     29  C   UNL     1      -8.646  -9.098  -8.534  0.00  0.00    +0.001 A 
ATOM     30  C   UNL     1      -9.955  -9.092  -8.996  0.00  0.00    +0.002 A 
ATOM     31  C   UNL     1     -10.994  -8.755  -8.156  0.00  0.00    +0.026 A 
ATOM     32  C   UNL     1     -10.732  -8.417  -6.833  0.00  0.00    +0.047 A 
ATOM     33  N   UNL     1     -11.528  -8.044  -5.774  0.00  0.00    -0.360 N 
ATOM     34  C   UNL     1     -10.756  -7.824  -4.666  0.00  0.00    +0.087 A 
ATOM     35  H   UNL     1     -12.494  -7.955  -5.807  0.00  0.00    +0.165 HD
ENDBRANCH  25  26
ENDBRANCH  24  25
ENDBRANCH  22  24
ENDBRANCH  19  20
ENDBRANCH   1  19
TORSDOF 7
