REMARK  Name = ZINC39293316
REMARK  11 active torsions:
REMARK  status: ('A' for Active; 'I' for Inactive)
REMARK    1  A    between atoms: C_1  and  O_2
REMARK    2  A    between atoms: O_2  and  C_3
REMARK    3  A    between atoms: C_19  and  O_27
REMARK    4  A    between atoms: C_21  and  O_23
REMARK    5  A    between atoms: O_23  and  C_24
REMARK    6  A    between atoms: C_24  and  C_25
REMARK    7  A    between atoms: C_25  and  N_26
REMARK    8  A    between atoms: O_27  and  C_28
REMARK    9  A    between atoms: C_28  and  C_29
REMARK   10  A    between atoms: C_29  and  N_30
REMARK   11  A    between atoms: C_33  and  O_36
REMARK                            x       y       z     vdW  Elec       q    Type
REMARK                         _______ _______ _______ _____ _____    ______ ____
ROOT
ATOM      1  C   UNL     1       0.626  -0.619   1.042  0.00  0.00    +0.162 A 
ATOM      2  C   UNL     1       1.213   0.116   2.069  0.00  0.00    +0.050 A 
ATOM      3  C   UNL     1       1.804  -0.492   3.161  0.00  0.00    +0.009 A 
ATOM      4  C   UNL     1       1.864  -1.869   3.255  0.00  0.00    -0.022 A 
ATOM      5  C   UNL     1       1.377  -2.603   2.195  0.00  0.00    +0.016 A 
ATOM      6  C   UNL     1       0.698  -2.013   1.124  0.00  0.00    +0.167 A 
ATOM      7  O   UNL     1       0.173  -2.954   0.307  0.00  0.00    -0.484 OA
ATOM      8  C   UNL     1       0.196  -4.228   0.993  0.00  0.00    +0.191 C 
ATOM      9  C   UNL     1       1.412  -4.082   1.914  0.00  0.00    +0.056 C 
ATOM     10  C   UNL     1       1.274  -4.869   3.211  0.00  0.00    +0.038 C 
ATOM     11  C   UNL     1       2.671  -5.012   3.830  0.00  0.00    +0.109 C 
ATOM     12  N   UNL     1       3.238  -3.689   4.102  0.00  0.00    -0.295 N 
ATOM     13  C   UNL     1       2.355  -2.581   4.487  0.00  0.00    +0.143 C 
ATOM     14  C   UNL     1       4.598  -3.485   3.997  0.00  0.00    +0.227 A 
ATOM     15  N   UNL     1       5.396  -4.488   3.643  0.00  0.00    -0.161 NA
ATOM     16  C   UNL     1       6.705  -4.290   3.542  0.00  0.00    +0.325 A 
ATOM     17  N   UNL     1       7.217  -3.092   3.794  0.00  0.00    -0.141 NA
ATOM     18  C   UNL     1       6.421  -2.089   4.147  0.00  0.00    +0.325 A 
ATOM     19  N   UNL     1       5.112  -2.284   4.244  0.00  0.00    -0.161 NA
ATOM     20  C   UNL     1       2.699  -4.424   1.229  0.00  0.00    -0.013 C 
ATOM     21  C   UNL     1       2.796  -4.964   0.062  0.00  0.00    +0.001 C 
ATOM     22  C   UNL     1       1.625  -5.326  -0.794  0.00  0.00    +0.141 C 
ATOM     23  C   UNL     1       0.315  -5.366   0.011  0.00  0.00    +0.081 C 
ENDROOT
BRANCH   1  25
ATOM     24  C   UNL     1      -0.017   1.425   0.010  0.00  0.00    +0.277 C 
ATOM     25  O   UNL     1       0.002  -0.004   0.002  0.00  0.00    -0.491 OA
ENDBRANCH   1  25
BRANCH  22  26
ATOM     26  O   UNL     1       1.497  -4.359  -1.839  0.00  0.00    -0.388 OA
ATOM     27  H   UNL     1       2.271  -4.300  -2.417  0.00  0.00    +0.210 HD
ENDBRANCH  22  26
BRANCH  18  28
ATOM     28  O   UNL     1       6.944  -0.868   4.404  0.00  0.00    -0.464 OA
BRANCH  28  29
ATOM     29  C   UNL     1       8.361  -0.730   4.276  0.00  0.00    +0.213 C 
BRANCH  29  30
ATOM     30  C   UNL     1       8.764   0.710   4.604  0.00  0.00    -0.045 C 
BRANCH  30  31
ATOM     31  N   UNL     1       8.473   0.990   6.016  0.00  0.00    +0.380 N 
ATOM     32  H   UNL     1       7.485   0.871   6.186  0.00  0.00    -0.090 HD
ATOM     33  H   UNL     1       8.994   0.354   6.600  0.00  0.00    -0.090 HD
ATOM     34  H   UNL     1       8.739   1.939   6.232  0.00  0.00    -0.090 HD
ENDBRANCH  30  31
ENDBRANCH  29  30
ENDBRANCH  28  29
ENDBRANCH  18  28
BRANCH  16  35
ATOM     35  O   UNL     1       7.517  -5.311   3.182  0.00  0.00    -0.464 OA
BRANCH  35  36
ATOM     36  C   UNL     1       8.915  -5.028   3.093  0.00  0.00    +0.213 C 
BRANCH  36  37
ATOM     37  C   UNL     1       9.666  -6.293   2.677  0.00  0.00    -0.045 C 
BRANCH  37  38
ATOM     38  N   UNL     1       9.261  -6.680   1.319  0.00  0.00    +0.380 N 
ATOM     39  H   UNL     1       8.268  -6.857   1.302  0.00  0.00    -0.090 HD
ATOM     40  H   UNL     1       9.479  -5.932   0.677  0.00  0.00    -0.090 HD
ATOM     41  H   UNL     1       9.756  -7.514   1.044  0.00  0.00    -0.090 HD
ENDBRANCH  37  38
ENDBRANCH  36  37
ENDBRANCH  35  36
ENDBRANCH  16  35
TORSDOF 10
