REMARK  Name = ZINC15947338
REMARK  5 active torsions:
REMARK  status: ('A' for Active; 'I' for Inactive)
REMARK    1  A    between atoms: C_4  and  C_7
REMARK    2  A    between atoms: C_7  and  N_8
REMARK    3  A    between atoms: C_16  and  O_31
REMARK    4  A    between atoms: C_18  and  C_21
REMARK    5  A    between atoms: C_25  and  N_27
REMARK                            x       y       z     vdW  Elec       q    Type
REMARK                         _______ _______ _______ _____ _____    ______ ____
ROOT
ATOM      1  N   UNL     1       4.153  -0.953   1.342  0.00  0.00    +0.386 N 
ATOM      2  C   UNL     1       5.491  -1.559   1.326  0.00  0.00    -0.073 C 
ATOM      3  C   UNL     1       6.098  -1.536   2.732  0.00  0.00    +0.018 C 
ATOM      4  C   UNL     1       5.088  -2.156   3.689  0.00  0.00    -0.027 A 
ATOM      5  C   UNL     1       3.792  -2.285   3.315  0.00  0.00    -0.021 A 
ATOM      6  S   UNL     1       2.997  -3.039   4.705  0.00  0.00    -0.080 S 
ATOM      7  C   UNL     1       4.297  -3.173   5.726  0.00  0.00    +0.080 A 
ATOM      8  C   UNL     1       5.385  -2.645   5.020  0.00  0.00    +0.067 A 
ATOM      9  C   UNL     1       6.707  -2.650   5.697  0.00  0.00    +0.220 C 
ATOM     10  N   UNL     1       6.732  -2.906   6.977  0.00  0.00    -0.223 NA
ATOM     11  C   UNL     1       5.549  -3.125   7.799  0.00  0.00    +0.224 C 
ATOM     12  N   UNL     1       4.428  -3.662   7.006  0.00  0.00    -0.313 N 
ATOM     13  C   UNL     1       3.204  -1.866   2.006  0.00  0.00    -0.035 C 
ATOM     14  H   UNL     1       3.817  -4.324   7.366  0.00  0.00    +0.149 HD
ATOM     15  H   UNL     1       4.187  -0.079   1.845  0.00  0.00    -0.081 HD
ENDROOT
BRANCH  11  16
ATOM     16  C   UNL     1       5.130  -1.815   8.415  0.00  0.00    -0.003 A 
ATOM     17  C   UNL     1       3.797  -1.582   8.702  0.00  0.00    +0.009 A 
ATOM     18  C   UNL     1       3.413  -0.381   9.268  0.00  0.00    +0.022 A 
ATOM     19  C   UNL     1       4.361   0.587   9.547  0.00  0.00    +0.071 A 
ATOM     20  C   UNL     1       5.693   0.353   9.260  0.00  0.00    +0.145 A 
ATOM     21  C   UNL     1       6.078  -0.850   8.699  0.00  0.00    +0.041 A 
ATOM     22 CL   UNL     1       3.878   2.096  10.258  0.00  0.00    -0.081 Cl
BRANCH  20  23
ATOM     23  N   UNL     1       6.708   1.388   9.559  0.00  0.00    +0.058 N 
ATOM     24  O   UNL     1       7.873   1.183   9.308  0.00  0.00    -0.126 OA
ATOM     25  O   UNL     1       6.372   2.439  10.054  0.00  0.00    -0.126 OA
ENDBRANCH  20  23
ENDBRANCH  11  16
BRANCH   9  26
ATOM     26  O   UNL     1       7.846  -2.398   5.011  0.00  0.00    -0.492 OA
ATOM     27  H   UNL     1       8.647  -2.428   5.553  0.00  0.00    +0.294 HD
ENDBRANCH   9  26
BRANCH   1  28
ATOM     28  C   UNL     1       3.711  -0.707  -0.038  0.00  0.00    -0.043 C 
BRANCH  28  32
ATOM     29  C   UNL     1      -0.017   1.378   0.010  0.00  0.00    +0.000 A 
ATOM     30  C   UNL     1       1.171   2.086   0.002  0.00  0.00    +0.000 A 
ATOM     31  C   UNL     1       2.377   1.411  -0.013  0.00  0.00    +0.002 A 
ATOM     32  C   UNL     1       2.396   0.029  -0.020  0.00  0.00    -0.064 A 
ATOM     33  C   UNL     1       1.208  -0.679  -0.012  0.00  0.00    +0.002 A 
ATOM     34  C   UNL     1       0.002  -0.004   0.002  0.00  0.00    +0.000 A 
ENDBRANCH  28  32
ENDBRANCH   1  28
TORSDOF 5
