REMARK  Name = ZINC13450242
REMARK  2 active torsions:
REMARK  status: ('A' for Active; 'I' for Inactive)
REMARK    1  A    between atoms: C_6  and  C_7
REMARK    2  A    between atoms: C_12  and  C_14
REMARK                            x       y       z     vdW  Elec       q    Type
REMARK                         _______ _______ _______ _____ _____    ______ ____
ROOT
ATOM      1  C   UNL     1       9.043  -0.044  -0.866  0.00  0.00    +0.017 A 
ATOM      2  C   UNL     1       7.724   0.244  -0.614  0.00  0.00    +0.024 A 
ATOM      3  C   UNL     1       7.364   1.456  -0.014  0.00  0.00    +0.040 A 
ATOM      4  C   UNL     1       8.356   2.372   0.314  0.00  0.00    -0.024 A 
ATOM      5  C   UNL     1       9.681   2.091   0.065  0.00  0.00    +0.020 A 
ATOM      6  C   UNL     1      10.039   0.878  -0.529  0.00  0.00    +0.064 A 
ATOM      7  C   UNL     1       7.702   3.586   0.935  0.00  0.00    +0.056 C 
ATOM      8  C   UNL     1       6.199   3.263   0.921  0.00  0.00    +0.118 C 
ATOM      9  N   UNL     1       6.097   1.933   0.315  0.00  0.00    -0.271 N 
ATOM     10  C   UNL     1       4.944   1.265   0.110  0.00  0.00    +0.226 C 
ATOM     11  O   UNL     1       4.969   0.131  -0.318  0.00  0.00    -0.275 OA
ENDROOT
BRANCH  10  12
ATOM     12  C   UNL     1       3.625   1.928   0.412  0.00  0.00    +0.117 C 
ATOM     13  C   UNL     1       2.625   0.883   0.914  0.00  0.00    +0.055 C 
ATOM     14  C   UNL     1       1.239   1.475   0.933  0.00  0.00    -0.004 A 
ATOM     15  C   UNL     1       0.258   0.849   1.685  0.00  0.00    +0.027 A 
ATOM     16  C   UNL     1      -1.026   1.359   1.718  0.00  0.00    +0.041 A 
ATOM     17  C   UNL     1      -1.334   2.504   1.005  0.00  0.00    +0.023 A 
ATOM     18  C   UNL     1      -0.360   3.131   0.256  0.00  0.00    +0.047 A 
ATOM     19  C   UNL     1       0.933   2.619   0.218  0.00  0.00    +0.124 A 
ATOM     20  O   UNL     1       1.865   3.268  -0.527  0.00  0.00    -0.491 OA
ATOM     21  C   UNL     1       3.060   2.562  -0.865  0.00  0.00    +0.242 C 
ATOM     22 CL   UNL     1      -2.252   0.565   2.658  0.00  0.00    -0.084 Cl
ENDBRANCH  10  12
BRANCH   6  23
ATOM     23  C   UNL     1      11.456   0.572  -0.798  0.00  0.00    +0.387 C 
ATOM     24  O   UNL     1      12.317   1.376  -0.503  0.00  0.00    -0.241 OA
ATOM     25  O   UNL     1      11.795  -0.600  -1.371  0.00  0.00    -0.241 OA
ENDBRANCH   6  23
TORSDOF 2
