REMARK  Name = ZINC09331351
REMARK  5 active torsions:
REMARK  status: ('A' for Active; 'I' for Inactive)
REMARK    1  A    between atoms: C_1  and  C_2
REMARK    2  A    between atoms: C_5  and  C_8
REMARK    3  A    between atoms: C_8  and  C_10
REMARK    4  A    between atoms: C_12  and  C_29
REMARK    5  A    between atoms: C_32  and  N_35
REMARK                            x       y       z     vdW  Elec       q    Type
REMARK                         _______ _______ _______ _____ _____    ______ ____
ROOT
ATOM      1  C   UNL     1       2.259   2.729   0.523  0.00  0.00    +0.069 C 
ATOM      2  C   UNL     1       1.435   1.500   0.968  0.00  0.00    +0.016 C 
ATOM      3  C   UNL     1       1.167   1.766   2.461  0.00  0.00    -0.047 C 
ATOM      4  C   UNL     1      -0.117   1.050   2.912  0.00  0.00    +0.052 C 
ATOM      5  S   UNL     1      -1.371   2.365   2.807  0.00  0.00    -0.181 S 
ATOM      6  C   UNL     1      -0.286   3.741   2.253  0.00  0.00    -0.005 C 
ATOM      7  C   UNL     1       2.027   3.785   1.608  0.00  0.00    +0.052 C 
ATOM      8  C   UNL     1       3.320   4.170   2.275  0.00  0.00    -0.027 A 
ATOM      9  C   UNL     1       4.262   3.463   2.989  0.00  0.00    +0.004 A 
ATOM     10  C   UNL     1       5.378   4.109   3.490  0.00  0.00    +0.000 A 
ATOM     11  C   UNL     1       5.544   5.464   3.273  0.00  0.00    +0.002 A 
ATOM     12  C   UNL     1       4.603   6.176   2.559  0.00  0.00    +0.023 A 
ATOM     13  C   UNL     1       3.476   5.534   2.051  0.00  0.00    +0.036 A 
ATOM     14  N   UNL     1       2.400   6.027   1.311  0.00  0.00    -0.286 N 
ATOM     15  C   UNL     1       1.506   5.067   1.012  0.00  0.00    +0.212 C 
ATOM     16  O   UNL     1       0.477   5.206   0.383  0.00  0.00    -0.277 OA
ATOM     17  H   UNL     1       2.307   6.955   1.044  0.00  0.00    +0.155 HD
ATOM     18  N   UNL     1       1.091   3.233   2.569  0.00  0.00    +0.401 N 
ATOM     19  H   UNL     1       1.348   3.522   3.520  0.00  0.00    -0.078 HD
ENDROOT
BRANCH   2  20
ATOM     20  C   UNL     1       2.232   0.234   0.790  0.00  0.00    -0.045 A 
ATOM     21  C   UNL     1       2.788  -0.394   1.889  0.00  0.00    +0.006 A 
ATOM     22  C   UNL     1       3.515  -1.558   1.725  0.00  0.00    +0.033 A 
ATOM     23  C   UNL     1       3.694  -2.090   0.462  0.00  0.00    +0.126 A 
ATOM     24  C   UNL     1       3.142  -1.460  -0.638  0.00  0.00    +0.033 A 
ATOM     25  C   UNL     1       2.411  -0.298  -0.474  0.00  0.00    +0.006 A 
BRANCH  23  26
ATOM     26  N   UNL     1       4.476  -3.334   0.287  0.00  0.00    +0.056 N 
ATOM     27  O   UNL     1       4.634  -3.802  -0.827  0.00  0.00    -0.126 OA
ATOM     28  O   UNL     1       4.962  -3.889   1.256  0.00  0.00    -0.126 OA
ENDBRANCH  23  26
ENDBRANCH   2  20
BRANCH   1  29
ATOM     29  C   UNL     1       3.722   2.375   0.442  0.00  0.00    +0.166 C 
ATOM     30  O   UNL     1       4.200   1.588   1.231  0.00  0.00    -0.292 OA
BRANCH  29  35
ATOM     31  C   UNL     1       7.036   4.756  -3.607  0.00  0.00    +0.044 C 
ATOM     32  C   UNL     1       6.167   4.132  -2.546  0.00  0.00    -0.050 A 
ATOM     33  C   UNL     1       6.717   3.234  -1.647  0.00  0.00    +0.004 A 
ATOM     34  C   UNL     1       5.928   2.659  -0.672  0.00  0.00    +0.011 A 
ATOM     35  C   UNL     1       4.571   2.985  -0.594  0.00  0.00    +0.018 A 
ATOM     36  C   UNL     1       4.022   3.889  -1.510  0.00  0.00    +0.011 A 
ATOM     37  C   UNL     1       4.825   4.460  -2.475  0.00  0.00    +0.004 A 
ENDBRANCH  29  35
ENDBRANCH   1  29
TORSDOF 4
