REMARK  Name = ZINC67491753
REMARK  8 active torsions:
REMARK  status: ('A' for Active; 'I' for Inactive)
REMARK    1  A    between atoms: C_1  and  C_2
REMARK    2  A    between atoms: C_2  and  C_4
REMARK    3  A    between atoms: C_2  and  N_11
REMARK    4  A    between atoms: C_12  and  C_14
REMARK    5  A    between atoms: N_16  and  C_17
REMARK    6  A    between atoms: C_20  and  C_23
REMARK    7  A    between atoms: C_23  and  S_24
REMARK    8  A    between atoms: S_24  and  C_25
REMARK                            x       y       z     vdW  Elec       q    Type
REMARK                         _______ _______ _______ _____ _____    ______ ____
ROOT
ATOM      1  N   UNL     1      -1.371  -0.515   0.013  0.00  0.00    -0.301 N 
ATOM      2  C   UNL     1      -2.026  -0.661   1.181  0.00  0.00    +0.300 C 
ATOM      3  O   UNL     1      -1.476  -0.379   2.226  0.00  0.00    -0.265 OA
ATOM      4  H   UNL     1      -1.810  -0.741  -0.821  0.00  0.00    +0.150 HD
ENDROOT
BRANCH   2   5
ATOM      5  C   UNL     1      -3.430  -1.170   1.191  0.00  0.00    +0.303 C 
ATOM      6  O   UNL     1      -3.981  -1.452   0.147  0.00  0.00    -0.265 OA
ATOM      7  N   UNL     1      -4.086  -1.316   2.360  0.00  0.00    -0.278 N 
ATOM      8  H   UNL     1      -3.625  -1.155   3.198  0.00  0.00    +0.155 HD
BRANCH   7   9
ATOM      9  C   UNL     1      -5.430  -1.700   2.364  0.00  0.00    +0.034 A 
ATOM     10  C   UNL     1      -6.297  -1.189   3.322  0.00  0.00    +0.023 A 
ATOM     11  C   UNL     1      -7.624  -1.570   3.323  0.00  0.00    +0.006 A 
ATOM     12  C   UNL     1      -8.091  -2.459   2.371  0.00  0.00    -0.037 A 
ATOM     13  C   UNL     1      -7.230  -2.970   1.416  0.00  0.00    +0.006 A 
ATOM     14  C   UNL     1      -5.903  -2.588   1.406  0.00  0.00    +0.023 A 
BRANCH  12  15
ATOM     15  C   UNL     1      -9.540  -2.873   2.376  0.00  0.00    +0.104 C 
BRANCH  15  16
ATOM     16  S   UNL     1     -10.497  -1.732   1.340  0.00  0.00    -0.159 S 
ATOM     17  C   UNL     1     -12.195  -2.359   1.450  0.00  0.00    +0.084 C 
ENDBRANCH  15  16
ENDBRANCH  12  15
ENDBRANCH   7   9
ENDBRANCH   2   5
BRANCH   1  19
ATOM     18  C   UNL     1      -0.005   1.514   0.019  0.00  0.00    +0.033 C 
ATOM     19  C   UNL     1       0.007  -0.016   0.004  0.00  0.00    +0.101 C 
BRANCH  19  20
ATOM     20  C   UNL     1       0.708  -0.500  -1.240  0.00  0.00    -0.027 A 
ATOM     21  C   UNL     1       0.036  -0.522  -2.448  0.00  0.00    +0.007 A 
ATOM     22  C   UNL     1       0.679  -0.966  -3.588  0.00  0.00    +0.020 A 
ATOM     23  C   UNL     1       1.994  -1.388  -3.520  0.00  0.00    +0.041 A 
ATOM     24  C   UNL     1       2.666  -1.366  -2.311  0.00  0.00    +0.020 A 
ATOM     25  C   UNL     1       2.024  -0.917  -1.172  0.00  0.00    +0.007 A 
ATOM     26 CL   UNL     1       2.802  -1.946  -4.952  0.00  0.00    -0.084 Cl
ENDBRANCH  19  20
ENDBRANCH   1  19
TORSDOF 6
