REMARK  Name = ZINC08156409
REMARK  6 active torsions:
REMARK  status: ('A' for Active; 'I' for Inactive)
REMARK    1  A    between atoms: C_1  and  N_48
REMARK    2  A    between atoms: C_2  and  C_3
REMARK    3  A    between atoms: C_2  and  N_48
REMARK    4  A    between atoms: C_9  and  C_14
REMARK    5  A    between atoms: C_19  and  C_20
REMARK    6  A    between atoms: C_19  and  N_48
REMARK                            x       y       z     vdW  Elec       q    Type
REMARK                         _______ _______ _______ _____ _____    ______ ____
ROOT
ATOM      1  C   UNL     1      -4.687   0.169  -1.237  0.00  0.00    +0.094 A 
ATOM      2  N   UNL     1      -6.022   0.021  -1.042  0.00  0.00    -0.312 N 
ATOM      3  H   UNL     1      -6.347  -0.501  -0.253  0.00  0.00    +0.170 HD
ATOM      4  C   UNL     1      -6.917   0.562  -1.889  0.00  0.00    +0.260 A 
ATOM      5  O   UNL     1      -8.113   0.424  -1.697  0.00  0.00    -0.267 OA
ATOM      6  C   UNL     1      -6.443   1.298  -3.021  0.00  0.00    +0.083 A 
ATOM      7  C   UNL     1      -7.204   1.965  -4.072  0.00  0.00    +0.039 A 
ATOM      8  C   UNL     1      -6.527   2.608  -5.057  0.00  0.00    +0.059 A 
ATOM      9  S   UNL     1      -4.818   2.348  -4.622  0.00  0.00    -0.076 S 
ATOM     10  C   UNL     1      -5.048   1.393  -3.144  0.00  0.00    +0.116 A 
ATOM     11  N   UNL     1      -4.224   0.834  -2.261  0.00  0.00    -0.229 NA
ENDROOT
BRANCH   7  12
ATOM     12  C   UNL     1      -8.681   1.943  -4.063  0.00  0.00    +0.136 A 
ATOM     13  C   UNL     1      -9.496   3.024  -4.192  0.00  0.00    +0.050 A 
ATOM     14  C   UNL     1     -10.820   2.543  -4.131  0.00  0.00    +0.042 A 
ATOM     15  C   UNL     1     -10.748   1.209  -3.962  0.00  0.00    +0.196 A 
ATOM     16  O   UNL     1      -9.453   0.849  -3.921  0.00  0.00    -0.463 OA
ENDBRANCH   7  12
BRANCH   1  17
ATOM     17  C   UNL     1      -3.722  -0.450  -0.259  0.00  0.00    -0.003 C 
BRANCH  17  19
ATOM     18  C   UNL     1      -2.032  -0.831  -1.950  0.00  0.00    -0.095 C 
ATOM     19  N   UNL     1      -2.342  -0.134  -0.684  0.00  0.00    +0.385 N 
ATOM     20  H   UNL     1      -2.263   0.879  -0.834  0.00  0.00    -0.081 HD
BRANCH  19  21
ATOM     21  C   UNL     1      -1.384  -0.541   0.365  0.00  0.00    -0.030 C 
BRANCH  21  22
ATOM     22  C   UNL     1       0.002  -0.004   0.002  0.00  0.00    +0.194 C 
ATOM     23  C   UNL     1       1.028  -0.476   1.041  0.00  0.00    +0.271 C 
ATOM     24  O   UNL     1       2.308   0.053   0.679  0.00  0.00    -0.485 OA
ATOM     25  C   UNL     1       2.351   1.370   0.338  0.00  0.00    +0.162 A 
ATOM     26  C   UNL     1       3.570   2.031   0.328  0.00  0.00    +0.049 A 
ATOM     27  C   UNL     1       3.630   3.368  -0.019  0.00  0.00    +0.004 A 
ATOM     28  C   UNL     1       2.475   4.049  -0.357  0.00  0.00    +0.004 A 
ATOM     29  C   UNL     1       1.257   3.397  -0.347  0.00  0.00    +0.049 A 
ATOM     30  C   UNL     1       1.190   2.056   0.002  0.00  0.00    +0.162 A 
ATOM     31  O   UNL     1      -0.017   1.427   0.010  0.00  0.00    -0.484 OA
ENDBRANCH  21  22
ENDBRANCH  19  21
ENDBRANCH  17  19
ENDBRANCH   1  17
TORSDOF 5
