REMARK  Name = ZINC09428436
REMARK  8 active torsions:
REMARK  status: ('A' for Active; 'I' for Inactive)
REMARK    1  A    between atoms: C_1  and  O_2
REMARK    2  A    between atoms: O_2  and  C_3
REMARK    3  A    between atoms: C_3  and  C_5
REMARK    4  A    between atoms: C_5  and  C_6
REMARK    5  A    between atoms: N_9  and  N_10
REMARK    6  A    between atoms: C_15  and  C_18
REMARK    7  A    between atoms: C_18  and  C_19
REMARK    8  A    between atoms: N_21  and  C_22
REMARK                            x       y       z     vdW  Elec       q    Type
REMARK                         _______ _______ _______ _____ _____    ______ ____
ROOT
ATOM      1  N   UNL     1      -0.898  -4.154  -2.613  0.00  0.00    -0.125 NA
ATOM      2  C   UNL     1      -1.970  -4.900  -2.722  0.00  0.00    +0.183 C 
ATOM      3  N   UNL     1      -2.045  -6.275  -2.849  0.00  0.00    -0.263 N 
ATOM      4  C   UNL     1      -3.197  -6.915  -2.950  0.00  0.00    +0.233 C 
ATOM      5  O   UNL     1      -3.256  -8.121  -3.060  0.00  0.00    -0.274 OA
ATOM      6  C   UNL     1      -4.443  -6.045  -2.919  0.00  0.00    +0.149 C 
ATOM      7  S   UNL     1      -3.680  -4.381  -2.733  0.00  0.00    -0.075 S 
ATOM      8  H   UNL     1      -1.222  -6.788  -2.864  0.00  0.00    +0.157 HD
ENDROOT
BRANCH   1  11
ATOM      9  C   UNL     1       1.369  -2.493  -2.376  0.00  0.00    +0.132 C 
ATOM     10  C   UNL     1       1.435  -4.006  -2.517  0.00  0.00    +0.139 C 
ATOM     11  N   UNL     1       0.372  -4.746  -2.625  0.00  0.00    -0.135 NA
ATOM     12  N   UNL     1       2.693  -4.526  -2.523  0.00  0.00    -0.262 N 
ATOM     13  C   UNL     1       3.793  -3.761  -2.413  0.00  0.00    +0.278 C 
ATOM     14  O   UNL     1       4.955  -4.122  -2.407  0.00  0.00    -0.263 OA
ATOM     15  S   UNL     1       3.162  -2.095  -2.277  0.00  0.00    -0.056 S 
ATOM     16  H   UNL     1       2.800  -5.486  -2.610  0.00  0.00    +0.157 HD
BRANCH   9  17
ATOM     17  C   UNL     1       0.638  -2.087  -1.095  0.00  0.00    +0.142 C 
BRANCH  17  18
ATOM     18  C   UNL     1       0.572  -0.583  -1.010  0.00  0.00    +0.308 C 
ATOM     19  O   UNL     1       1.058   0.093  -1.884  0.00  0.00    -0.251 OA
BRANCH  18  21
ATOM     20  C   UNL     1      -0.055   1.432   0.054  0.00  0.00    +0.280 C 
ATOM     21  O   UNL     1      -0.029   0.004   0.038  0.00  0.00    -0.468 OA
ENDBRANCH  18  21
ENDBRANCH  17  18
ENDBRANCH   9  17
ENDBRANCH   1  11
BRANCH   6  22
ATOM     22  C   UNL     1      -5.231  -6.158  -4.226  0.00  0.00    +0.120 C 
BRANCH  22  23
ATOM     23  C   UNL     1      -6.516  -5.380  -4.107  0.00  0.00    +0.219 C 
ATOM     24  O   UNL     1      -6.777  -4.793  -3.078  0.00  0.00    -0.275 OA
ATOM     25  N   UNL     1      -7.375  -5.336  -5.144  0.00  0.00    -0.285 N 
ATOM     26  H   UNL     1      -7.137  -5.749  -5.989  0.00  0.00    +0.155 HD
BRANCH  25  27
ATOM     27  C   UNL     1      -8.612  -4.696  -5.002  0.00  0.00    +0.033 A 
ATOM     28  C   UNL     1      -9.734  -5.198  -5.648  0.00  0.00    +0.024 A 
ATOM     29  C   UNL     1     -10.952  -4.564  -5.505  0.00  0.00    +0.017 A 
ATOM     30  C   UNL     1     -11.056  -3.430  -4.720  0.00  0.00    +0.018 A 
ATOM     31  C   UNL     1      -9.940  -2.928  -4.074  0.00  0.00    +0.017 A 
ATOM     32  C   UNL     1      -8.720  -3.561  -4.209  0.00  0.00    +0.024 A 
ATOM     33 BR   UNL     1     -12.727  -2.565  -4.527  0.00  0.00    -0.050 Br
ENDBRANCH  25  27
ENDBRANCH  22  23
ENDBRANCH   6  22
TORSDOF 7
