REMARK  Name = ZINC35834935
REMARK  11 active torsions:
REMARK  status: ('A' for Active; 'I' for Inactive)
REMARK    1  A    between atoms: C_1  and  C_2
REMARK    2  A    between atoms: C_5  and  C_8
REMARK    3  A    between atoms: C_8  and  N_9
REMARK    4  A    between atoms: C_16  and  C_18
REMARK    5  A    between atoms: N_20  and  C_21
REMARK    6  A    between atoms: C_21  and  C_23
REMARK    7  A    between atoms: C_21  and  C_24
REMARK    8  A    between atoms: N_26  and  C_27
REMARK    9  A    between atoms: C_27  and  C_28
REMARK   10  A    between atoms: C_28  and  C_29
REMARK   11  A    between atoms: C_28  and  C_30
REMARK                            x       y       z     vdW  Elec       q    Type
REMARK                         _______ _______ _______ _____ _____    ______ ____
ROOT
ATOM      1  N   UNL     1       1.447  -4.746  -0.032  0.00  0.00    -0.292 N 
ATOM      2  C   UNL     1       2.139  -4.970  -1.291  0.00  0.00    +0.110 C 
ATOM      3  C   UNL     1       2.977  -3.776  -1.747  0.00  0.00    +0.042 C 
ATOM      4  C   UNL     1       3.769  -3.214  -0.560  0.00  0.00    +0.146 C 
ATOM      5  N   UNL     1       4.330  -4.311   0.233  0.00  0.00    -0.258 N 
ATOM      6  C   UNL     1       3.567  -5.138   1.016  0.00  0.00    +0.124 A 
ATOM      7  C   UNL     1       4.394  -6.040   1.598  0.00  0.00    +0.067 A 
ATOM      8  C   UNL     1       5.685  -5.707   1.130  0.00  0.00    +0.148 A 
ATOM      9  N   UNL     1       5.559  -4.666   0.324  0.00  0.00    -0.166 NA
ATOM     10  C   UNL     1       2.103  -4.973   1.133  0.00  0.00    +0.265 C 
ATOM     11  O   UNL     1       1.527  -5.039   2.201  0.00  0.00    -0.268 OA
ENDROOT
BRANCH   8  12
ATOM     12  C   UNL     1       6.945  -6.396   1.476  0.00  0.00    +0.265 C 
ATOM     13  O   UNL     1       6.929  -7.347   2.233  0.00  0.00    -0.268 OA
ATOM     14  N   UNL     1       8.112  -5.970   0.954  0.00  0.00    -0.299 N 
ATOM     15  H   UNL     1       8.125  -5.210   0.350  0.00  0.00    +0.150 HD
BRANCH  14  16
ATOM     16  C   UNL     1       9.361  -6.653   1.297  0.00  0.00    +0.156 C 
ATOM     17  C   UNL     1       9.910  -6.085   2.608  0.00  0.00    +0.038 C 
BRANCH  16  18
ATOM     18  C   UNL     1      10.369  -6.440   0.197  0.00  0.00    +0.233 C 
ATOM     19  O   UNL     1      10.073  -5.783  -0.778  0.00  0.00    -0.274 OA
ATOM     20  N   UNL     1      11.600  -6.981   0.297  0.00  0.00    -0.314 N 
ATOM     21  H   UNL     1      11.837  -7.507   1.077  0.00  0.00    +0.149 HD
BRANCH  20  22
ATOM     22  C   UNL     1      12.580  -6.774  -0.773  0.00  0.00    +0.107 C 
BRANCH  22  23
ATOM     23  C   UNL     1      13.884  -7.488  -0.414  0.00  0.00    -0.000 C 
ATOM     24  C   UNL     1      14.864  -7.378  -1.584  0.00  0.00    +0.009 C 
ATOM     25  C   UNL     1      14.497  -6.837   0.828  0.00  0.00    +0.009 C 
ENDBRANCH  22  23
ENDBRANCH  20  22
ENDBRANCH  16  18
ENDBRANCH  14  16
ENDBRANCH   8  12
BRANCH   1  26
ATOM     26  C   UNL     1       0.059  -4.275  -0.021  0.00  0.00    +0.143 C 
BRANCH  26  31
ATOM     27  C   UNL     1      -0.018   1.503   0.010  0.00  0.00    +0.044 C 
ATOM     28  C   UNL     1       0.002  -0.004   0.002  0.00  0.00    -0.050 A 
ATOM     29  C   UNL     1       0.006  -0.689  -1.199  0.00  0.00    +0.003 A 
ATOM     30  C   UNL     1       0.025  -2.071  -1.206  0.00  0.00    +0.005 A 
ATOM     31  C   UNL     1       0.040  -2.768  -0.013  0.00  0.00    -0.030 A 
ATOM     32  C   UNL     1       0.037  -2.084   1.188  0.00  0.00    +0.005 A 
ATOM     33  C   UNL     1       0.023  -0.702   1.195  0.00  0.00    +0.003 A 
ENDBRANCH  26  31
ENDBRANCH   1  26
TORSDOF 7
