REMARK  Name = ZINC01004601
REMARK  5 active torsions:
REMARK  status: ('A' for Active; 'I' for Inactive)
REMARK    1  A    between atoms: C_3  and  C_9
REMARK    2  A    between atoms: C_9  and  O_10
REMARK    3  A    between atoms: O_10  and  C_11
REMARK    4  A    between atoms: C_16  and  C_17
REMARK    5  A    between atoms: C_17  and  N_18
REMARK                            x       y       z     vdW  Elec       q    Type
REMARK                         _______ _______ _______ _____ _____    ______ ____
ROOT
ATOM      1  C   UNL     1      -0.194   1.208  -2.360  0.00  0.00    +0.126 A 
ATOM      2  C   UNL     1       0.951   0.428  -2.431  0.00  0.00    +0.047 A 
ATOM      3  C   UNL     1       1.465   0.067  -3.661  0.00  0.00    +0.019 A 
ATOM      4  C   UNL     1       0.844   0.492  -4.822  0.00  0.00    +0.018 A 
ATOM      5  C   UNL     1      -0.295   1.274  -4.754  0.00  0.00    +0.024 A 
ATOM      6  C   UNL     1      -0.815   1.633  -3.525  0.00  0.00    +0.012 A 
ATOM      7 BR   UNL     1       1.553   0.002  -6.505  0.00  0.00    -0.050 Br
ENDROOT
BRANCH   1   8
ATOM      8  O   UNL     1      -0.704   1.559  -1.150  0.00  0.00    -0.487 OA
BRANCH   8   9
ATOM      9  C   UNL     1      -0.013   1.086   0.008  0.00  0.00    +0.266 C 
BRANCH   9  12
ATOM     10  C   UNL     1      -2.501   2.797   2.273  0.00  0.00    +0.020 A 
ATOM     11  C   UNL     1      -1.853   2.352   1.136  0.00  0.00    +0.010 A 
ATOM     12  C   UNL     1      -0.718   1.572   1.248  0.00  0.00    +0.008 A 
ATOM     13  C   UNL     1      -0.232   1.232   2.498  0.00  0.00    +0.049 A 
ATOM     14  C   UNL     1      -0.877   1.683   3.636  0.00  0.00    +0.040 A 
ATOM     15  C   UNL     1      -2.013   2.463   3.523  0.00  0.00    +0.042 A 
ATOM     16 CL   UNL     1      -2.827   3.024   4.951  0.00  0.00    -0.083 Cl
ATOM     17 CL   UNL     1       1.190   0.247   2.639  0.00  0.00    -0.083 Cl
ENDBRANCH   9  12
ENDBRANCH   8   9
ENDBRANCH   1   8
BRANCH   6  18
ATOM     18  C   UNL     1      -2.056   2.484  -3.451  0.00  0.00    +0.143 C 
BRANCH  18  19
ATOM     19  N   UNL     1      -1.678   3.875  -3.188  0.00  0.00    -0.310 N 
ATOM     20  C   UNL     1      -2.664   4.857  -3.077  0.00  0.00    +0.211 A 
ATOM     21  N   UNL     1      -3.980   4.655  -3.195  0.00  0.00    -0.202 NA
ATOM     22  C   UNL     1      -4.618   5.787  -3.032  0.00  0.00    +0.246 A 
ATOM     23  N   UNL     1      -3.711   6.751  -2.802  0.00  0.00    -0.160 NA
ATOM     24  H   UNL     1      -1.540   6.725  -2.679  0.00  0.00    +0.192 HD
ATOM     25  N   UNL     1      -2.452   6.130  -2.838  0.00  0.00    -0.247 N 
ATOM     26  H   UNL     1      -0.618   4.146  -3.079  0.00  0.00    +0.149 HD
ENDBRANCH  18  19
ENDBRANCH   6  18
TORSDOF 5
