REMARK  Name = ZINC04801940
REMARK  4 active torsions:
REMARK  status: ('A' for Active; 'I' for Inactive)
REMARK    1  A    between atoms: C_4  and  C_7
REMARK    2  A    between atoms: C_7  and  O_27
REMARK    3  A    between atoms: N_16  and  C_17
REMARK    4  A    between atoms: C_20  and  N_24
REMARK                            x       y       z     vdW  Elec       q    Type
REMARK                         _______ _______ _______ _____ _____    ______ ____
ROOT
ATOM      1  C   UNL     1       3.899  -0.374  -0.052  0.00  0.00    +0.193 C 
ATOM      2  C   UNL     1       2.444  -0.012   0.105  0.00  0.00    +0.019 A 
ATOM      3  C   UNL     1       1.295  -0.759   0.227  0.00  0.00    +0.009 A 
ATOM      4  C   UNL     1       0.070  -0.127   0.358  0.00  0.00    +0.000 A 
ATOM      5  C   UNL     1      -0.002   1.255   0.368  0.00  0.00    +0.001 A 
ATOM      6  C   UNL     1       1.143   2.014   0.246  0.00  0.00    +0.013 A 
ATOM      7  C   UNL     1       2.382   1.383   0.113  0.00  0.00    +0.045 A 
ATOM      8  C   UNL     1       3.753   1.907  -0.033  0.00  0.00    +0.254 C 
ATOM      9  O   UNL     1       4.047   3.087  -0.064  0.00  0.00    -0.270 OA
ATOM     10  N   UNL     1       4.632   0.895  -0.129  0.00  0.00    -0.229 N 
ENDROOT
BRANCH  10  11
ATOM     11  C   UNL     1       6.017   1.028  -0.277  0.00  0.00    +0.058 A 
ATOM     12  C   UNL     1       6.822   1.215   0.839  0.00  0.00    +0.027 A 
ATOM     13  C   UNL     1       8.189   1.341   0.689  0.00  0.00    +0.034 A 
ATOM     14  C   UNL     1       8.756   1.293  -0.571  0.00  0.00    +0.128 A 
ATOM     15  C   UNL     1       7.958   1.113  -1.686  0.00  0.00    +0.054 A 
ATOM     16  C   UNL     1       6.589   0.980  -1.543  0.00  0.00    +0.065 A 
ATOM     17 CL   UNL     1       5.587   0.755  -2.942  0.00  0.00    -0.082 Cl
BRANCH  14  18
ATOM     18  N   UNL     1      10.221   1.434  -0.728  0.00  0.00    +0.056 N 
ATOM     19  O   UNL     1      10.722   1.392  -1.837  0.00  0.00    -0.126 OA
ATOM     20  O   UNL     1      10.926   1.593   0.253  0.00  0.00    -0.126 OA
ENDBRANCH  14  18
ENDBRANCH  10  11
BRANCH   1  24
ATOM     21  C   UNL     1       5.221  -2.631   3.326  0.00  0.00    +0.000 A 
ATOM     22  C   UNL     1       5.203  -1.249   3.382  0.00  0.00    +0.000 A 
ATOM     23  C   UNL     1       4.776  -0.519   2.288  0.00  0.00    +0.008 A 
ATOM     24  C   UNL     1       4.366  -1.170   1.140  0.00  0.00    +0.007 A 
ATOM     25  C   UNL     1       4.379  -2.552   1.087  0.00  0.00    +0.008 A 
ATOM     26  C   UNL     1       4.812  -3.282   2.178  0.00  0.00    +0.000 A 
ENDBRANCH   1  24
BRANCH   1  27
ATOM     27  O   UNL     1       4.093  -1.126  -1.251  0.00  0.00    -0.364 OA
ATOM     28  H   UNL     1       3.611  -1.965  -1.272  0.00  0.00    +0.213 HD
ENDBRANCH   1  27
TORSDOF 4
