REMARK  Name = ZINC36890224
REMARK  1 active torsions:
REMARK  status: ('A' for Active; 'I' for Inactive)
REMARK    1  A    between atoms: N_10  and  C_11
REMARK                            x       y       z     vdW  Elec       q    Type
REMARK                         _______ _______ _______ _____ _____    ______ ____
ROOT
ATOM      1  C   UNL     1      -0.017   1.383   0.010  0.00  0.00    +0.022 A 
ATOM      2  C   UNL     1       1.164   2.098   0.002  0.00  0.00    +0.030 A 
ATOM      3  C   UNL     1       2.377   1.428  -0.013  0.00  0.00    +0.075 A 
ATOM      4  C   UNL     1       2.402   0.023  -0.021  0.00  0.00    +0.093 A 
ATOM      5  C   UNL     1       1.199  -0.687  -0.013  0.00  0.00    +0.050 A 
ATOM      6  C   UNL     1       0.002  -0.004   0.002  0.00  0.00    +0.043 A 
ATOM      7 CL   UNL     1      -1.493  -0.886   0.012  0.00  0.00    -0.083 Cl
ATOM      8  N   UNL     1       3.708  -0.354  -0.035  0.00  0.00    -0.214 NA
ATOM      9  C   UNL     1       4.474   0.709  -0.037  0.00  0.00    +0.199 A 
ATOM     10  N   UNL     1       3.702   1.837  -0.023  0.00  0.00    -0.278 N 
ATOM     11  N   UNL     1       5.853   0.692  -0.049  0.00  0.00    -0.329 N 
ATOM     12  H   UNL     1       6.327  -0.154  -0.058  0.00  0.00    +0.145 HD
ATOM     13  H   UNL     1       6.348   1.526  -0.049  0.00  0.00    +0.145 HD
ENDROOT
BRANCH  10  14
ATOM     14  C   UNL     1       4.164   3.162  -0.021  0.00  0.00    +0.086 A 
ATOM     15  C   UNL     1       4.410   3.810   1.181  0.00  0.00    +0.044 A 
ATOM     16  C   UNL     1       4.865   5.115   1.181  0.00  0.00    +0.020 A 
ATOM     17  C   UNL     1       5.075   5.776  -0.016  0.00  0.00    +0.018 A 
ATOM     18  C   UNL     1       4.831   5.134  -1.216  0.00  0.00    +0.041 A 
ATOM     19  C   UNL     1       4.382   3.826  -1.222  0.00  0.00    +0.147 A 
ATOM     20  F   UNL     1       4.149   3.196  -2.395  0.00  0.00    -0.203 F 
ATOM     21 BR   UNL     1       5.200   5.998   2.819  0.00  0.00    -0.050 Br
ENDBRANCH  10  14
TORSDOF 1
