REMARK  Name = ZINC13617327
REMARK  3 active torsions:
REMARK  status: ('A' for Active; 'I' for Inactive)
REMARK    1  A    between atoms: C_3  and  O_33
REMARK    2  A    between atoms: C_6  and  C_7
REMARK    3  A    between atoms: N_23  and  C_26
REMARK                            x       y       z     vdW  Elec       q    Type
REMARK                         _______ _______ _______ _____ _____    ______ ____
ROOT
ATOM      1  C   UNL     1      -1.293  -0.774   0.011  0.00  0.00    +0.072 C 
ATOM      2  C   UNL     1      -1.374  -1.641  -1.214  0.00  0.00    +0.033 A 
ATOM      3  C   UNL     1      -1.833  -2.905  -1.343  0.00  0.00    +0.088 A 
ATOM      4  N   UNL     1      -1.751  -3.426  -2.610  0.00  0.00    -0.311 N 
ATOM      5  H   UNL     1      -2.051  -4.333  -2.782  0.00  0.00    +0.170 HD
ATOM      6  C   UNL     1      -1.254  -2.679  -3.614  0.00  0.00    +0.289 A 
ATOM      7  O   UNL     1      -1.115  -2.984  -4.786  0.00  0.00    -0.260 OA
ATOM      8  S   UNL     1      -0.870  -1.224  -2.863  0.00  0.00    -0.030 S 
ATOM      9  S   UNL     1      -2.506  -3.789   0.057  0.00  0.00    -0.093 S 
ATOM     10  C   UNL     1      -2.707  -2.424   1.230  0.00  0.00    +0.152 C 
ATOM     11  C   UNL     1      -1.350  -1.657   1.232  0.00  0.00    +0.110 C 
ATOM     12  C   UNL     1      -1.389  -1.027   2.588  0.00  0.00    +0.232 C 
ATOM     13  O   UNL     1      -0.882   0.023   2.919  0.00  0.00    -0.274 OA
ATOM     14  N   UNL     1      -2.110  -1.870   3.374  0.00  0.00    -0.209 N 
ATOM     15  C   UNL     1      -2.793  -2.841   2.672  0.00  0.00    +0.240 C 
ATOM     16  O   UNL     1      -3.344  -3.826   3.113  0.00  0.00    -0.274 OA
ENDROOT
BRANCH  14  17
ATOM     17  C   UNL     1      -2.165  -1.758   4.771  0.00  0.00    +0.044 A 
ATOM     18  C   UNL     1      -1.468  -0.746   5.416  0.00  0.00    +0.025 A 
ATOM     19  C   UNL     1      -1.524  -0.638   6.791  0.00  0.00    +0.017 A 
ATOM     20  C   UNL     1      -2.276  -1.538   7.527  0.00  0.00    +0.018 A 
ATOM     21  C   UNL     1      -2.972  -2.547   6.886  0.00  0.00    +0.017 A 
ATOM     22  C   UNL     1      -2.923  -2.656   5.510  0.00  0.00    +0.025 A 
ATOM     23 BR   UNL     1      -2.350  -1.387   9.410  0.00  0.00    -0.050 Br
ENDBRANCH  14  17
BRANCH   1  29
ATOM     24  C   UNL     1      -0.017   1.378   0.010  0.00  0.00    +0.008 A 
ATOM     25  C   UNL     1       1.169   2.087   0.002  0.00  0.00    +0.045 A 
ATOM     26  C   UNL     1       2.380   1.409  -0.013  0.00  0.00    +0.117 A 
ATOM     27  C   UNL     1       2.396   0.022  -0.021  0.00  0.00    +0.045 A 
ATOM     28  C   UNL     1       1.207  -0.681  -0.013  0.00  0.00    +0.008 A 
ATOM     29  C   UNL     1       0.002  -0.004   0.002  0.00  0.00    -0.038 A 
BRANCH  26  30
ATOM     30  O   UNL     1       3.548   2.104  -0.021  0.00  0.00    -0.507 OA
ATOM     31  H   UNL     1       3.895   2.300   0.860  0.00  0.00    +0.292 HD
ENDBRANCH  26  30
ENDBRANCH   1  29
TORSDOF 3
