REMARK  Name = ZINC08131730
REMARK  7 active torsions:
REMARK  status: ('A' for Active; 'I' for Inactive)
REMARK    1  A    between atoms: C_1  and  C_2
REMARK    2  A    between atoms: C_2  and  C_4
REMARK    3  A    between atoms: C_2  and  N_14
REMARK    4  A    between atoms: C_7  and  S_10
REMARK    5  A    between atoms: S_10  and  N_13
REMARK    6  A    between atoms: N_14  and  S_15
REMARK    7  A    between atoms: S_15  and  C_18
REMARK                            x       y       z     vdW  Elec       q    Type
REMARK                         _______ _______ _______ _____ _____    ______ ____
ROOT
ATOM      1  C   UNL     1      -2.258   2.891   6.150  0.00  0.00    +0.031 C 
ATOM      2  C   UNL     1      -3.131   3.072   4.906  0.00  0.00    +0.103 C 
ENDROOT
BRANCH   2   3
ATOM      3  C   UNL     1      -2.353   2.659   3.683  0.00  0.00    -0.029 A 
ATOM      4  C   UNL     1      -2.559   1.412   3.122  0.00  0.00    +0.007 A 
ATOM      5  C   UNL     1      -1.846   1.033   2.000  0.00  0.00    +0.029 A 
ATOM      6  C   UNL     1      -0.927   1.900   1.439  0.00  0.00    +0.105 A 
ATOM      7  C   UNL     1      -0.717   3.145   2.004  0.00  0.00    +0.029 A 
ATOM      8  C   UNL     1      -1.434   3.526   3.123  0.00  0.00    +0.007 A 
BRANCH   6   9
ATOM      9  S   UNL     1      -0.017   1.417   0.010  0.00  0.00    +0.056 S 
ATOM     10  O   UNL     1       0.002  -0.004   0.002  0.00  0.00    -0.153 OA
ATOM     11  O   UNL     1       1.172   2.195   0.003  0.00  0.00    -0.153 OA
BRANCH   9  12
ATOM     12  N   UNL     1      -0.897   1.885  -1.312  0.00  0.00    -0.204 NA
ATOM     13  H   UNL     1      -1.201   1.223  -1.952  0.00  0.00    +0.144 HD
ATOM     14  H   UNL     1      -1.110   2.822  -1.446  0.00  0.00    +0.144 HD
ENDBRANCH   9  12
ENDBRANCH   6   9
ENDBRANCH   2   3
BRANCH   2  15
ATOM     15  N   UNL     1      -3.522   4.478   4.784  0.00  0.00    -0.182 NA
ATOM     16  H   UNL     1      -2.930   5.110   4.347  0.00  0.00    +0.149 HD
BRANCH  15  17
ATOM     17  S   UNL     1      -4.974   4.989   5.393  0.00  0.00    +0.065 S 
ATOM     18  O   UNL     1      -5.049   6.387   5.146  0.00  0.00    -0.153 OA
ATOM     19  O   UNL     1      -5.957   4.079   4.919  0.00  0.00    -0.153 OA
BRANCH  17  20
ATOM     20  C   UNL     1      -4.905   4.790   7.143  0.00  0.00    +0.144 A 
ATOM     21  C   UNL     1      -4.488   5.669   8.086  0.00  0.00    +0.038 A 
ATOM     22  C   UNL     1      -4.522   5.293   9.416  0.00  0.00    +0.030 A 
ATOM     23  C   UNL     1      -4.973   4.054   9.736  0.00  0.00    +0.080 A 
ATOM     24  S   UNL     1      -5.374   3.380   8.132  0.00  0.00    -0.057 S 
ATOM     25 CL   UNL     1      -5.127   3.318  11.301  0.00  0.00    -0.076 Cl
ENDBRANCH  17  20
ENDBRANCH  15  17
ENDBRANCH   2  15
TORSDOF 6
