REMARK  Name = ZINC18196366
REMARK  3 active torsions:
REMARK  status: ('A' for Active; 'I' for Inactive)
REMARK    1  A    between atoms: C_4  and  C_28
REMARK    2  A    between atoms: C_5  and  C_7
REMARK    3  A    between atoms: C_12  and  C_17
REMARK                            x       y       z     vdW  Elec       q    Type
REMARK                         _______ _______ _______ _____ _____    ______ ____
ROOT
ATOM      1  C   UNL     1       4.642   7.266   0.316  0.00  0.00    +0.176 C 
ATOM      2  C   UNL     1       3.762   6.122  -0.135  0.00  0.00    +0.041 C 
ATOM      3  C   UNL     1       3.362   5.984  -1.417  0.00  0.00    +0.020 C 
ATOM      4  C   UNL     1       2.479   4.833  -1.837  0.00  0.00    +0.060 C 
ATOM      5  C   UNL     1       2.769   3.615  -0.957  0.00  0.00    +0.039 C 
ATOM      6  C   UNL     1       2.517   4.003   0.504  0.00  0.00    +0.088 C 
ATOM      7  C   UNL     1       3.370   5.192   0.846  0.00  0.00    +0.164 C 
ATOM      8  O   UNL     1       3.731   5.354   1.996  0.00  0.00    -0.292 OA
ATOM      9  N   UNL     1       3.733   6.881  -2.391  0.00  0.00    -0.287 N 
ATOM     10  C   UNL     1       4.266   8.095  -1.989  0.00  0.00    +0.218 A 
ATOM     11  N   UNL     1       4.693   8.293  -0.717  0.00  0.00    -0.221 N 
ATOM     12  N   UNL     1       5.152   9.608  -0.654  0.00  0.00    -0.156 NA
ATOM     13  C   UNL     1       4.992  10.122  -1.849  0.00  0.00    +0.247 A 
ATOM     14  N   UNL     1       4.455   9.200  -2.655  0.00  0.00    -0.201 NA
ATOM     15  H   UNL     1       3.624   6.670  -3.331  0.00  0.00    +0.155 HD
ENDROOT
BRANCH   1  20
ATOM     16  C   UNL     1       7.794   5.196   0.110  0.00  0.00    +0.000 A 
ATOM     17  C   UNL     1       8.600   5.808   1.054  0.00  0.00    +0.001 A 
ATOM     18  C   UNL     1       8.133   6.894   1.764  0.00  0.00    +0.015 A 
ATOM     19  C   UNL     1       6.843   7.376   1.530  0.00  0.00    +0.069 A 
ATOM     20  C   UNL     1       6.035   6.754   0.576  0.00  0.00    -0.004 A 
ATOM     21  C   UNL     1       6.513   5.665  -0.124  0.00  0.00    +0.007 A 
BRANCH  19  22
ATOM     22  C   UNL     1       6.336   8.538   2.287  0.00  0.00    +0.387 C 
ATOM     23  O   UNL     1       5.257   9.022   2.007  0.00  0.00    -0.241 OA
ATOM     24  O   UNL     1       7.070   9.062   3.288  0.00  0.00    -0.241 OA
ENDBRANCH  19  22
ENDBRANCH   1  20
BRANCH   5  25
ATOM     25  C   UNL     1       1.856   2.480  -1.345  0.00  0.00    -0.006 A 
ATOM     26  C   UNL     1       2.178   1.241  -1.790  0.00  0.00    +0.011 A 
ATOM     27  C   UNL     1       1.162   0.352  -2.089  0.00  0.00    +0.008 A 
ATOM     28  C   UNL     1      -0.125   0.747  -1.934  0.00  0.00    +0.045 A 
ATOM     29  S   UNL     1       0.072   2.419  -1.338  0.00  0.00    -0.101 S 
ENDBRANCH   5  25
TORSDOF 3
