REMARK  Name = ZINC66818896
REMARK  4 active torsions:
REMARK  status: ('A' for Active; 'I' for Inactive)
REMARK    1  A    between atoms: C_6  and  C_7
REMARK    2  A    between atoms: C_7  and  N_8
REMARK    3  A    between atoms: N_8  and  C_9
REMARK    4  A    between atoms: C_10  and  N_17
REMARK                            x       y       z     vdW  Elec       q    Type
REMARK                         _______ _______ _______ _____ _____    ______ ____
ROOT
ATOM      1  N   UNL     1      -1.727  -1.014  -1.368  0.00  0.00    -0.322 N 
ATOM      2  H   UNL     1      -1.192  -0.689  -2.109  0.00  0.00    +0.148 HD
ENDROOT
BRANCH   1   3
ATOM      3  C   UNL     1      -2.917  -1.717  -1.617  0.00  0.00    +0.170 A 
ATOM      4  C   UNL     1      -3.422  -2.009  -2.833  0.00  0.00    +0.242 A 
ATOM      5  N   UNL     1      -4.612  -2.716  -2.637  0.00  0.00    -0.273 N 
ATOM      6  C   UNL     1      -5.600  -3.296  -3.402  0.00  0.00    +0.102 A 
ATOM      7  C   UNL     1      -6.634  -3.911  -2.828  0.00  0.00    +0.067 A 
ATOM      8  S   UNL     1      -6.268  -3.704  -1.092  0.00  0.00    -0.058 S 
ATOM      9  C   UNL     1      -4.747  -2.803  -1.278  0.00  0.00    +0.181 A 
ATOM     10  N   UNL     1      -3.744  -2.219  -0.685  0.00  0.00    -0.204 NA
BRANCH   4  11
ATOM     11  N   UNL     1      -2.821  -1.646  -4.145  0.00  0.00    +0.077 N 
ATOM     12  O   UNL     1      -3.111  -0.598  -4.673  0.00  0.00    -0.125 OA
ATOM     13  O   UNL     1      -2.044  -2.399  -4.683  0.00  0.00    -0.125 OA
ENDBRANCH   4  11
ENDBRANCH   1   3
BRANCH   1  14
ATOM     14  C   UNL     1      -1.294  -0.773   0.010  0.00  0.00    +0.138 C 
BRANCH  14  20
ATOM     15  C   UNL     1      -0.017   1.378   0.010  0.00  0.00    +0.009 A 
ATOM     16  C   UNL     1       1.170   2.091   0.002  0.00  0.00    +0.050 A 
ATOM     17  C   UNL     1       2.377   1.413  -0.013  0.00  0.00    +0.162 A 
ATOM     18  C   UNL     1       2.396   0.025  -0.020  0.00  0.00    +0.162 A 
ATOM     19  C   UNL     1       1.207  -0.684  -0.013  0.00  0.00    +0.054 A 
ATOM     20  C   UNL     1       0.002  -0.004   0.002  0.00  0.00    -0.027 A 
ATOM     21  O   UNL     1       3.591  -0.632  -0.034  0.00  0.00    -0.488 OA
ATOM     22  C   UNL     1       4.358  -0.510  -1.234  0.00  0.00    +0.232 C 
ATOM     23  C   UNL     1       5.186   0.764  -1.217  0.00  0.00    +0.082 C 
ATOM     24  C   UNL     1       4.323   2.016  -1.220  0.00  0.00    +0.232 C 
ATOM     25  O   UNL     1       3.554   2.104  -0.019  0.00  0.00    -0.488 OA
ENDBRANCH  14  20
ENDBRANCH   1  14
TORSDOF 4
