REMARK  Name = ZINC41393872
REMARK  6 active torsions:
REMARK  status: ('A' for Active; 'I' for Inactive)
REMARK    1  A    between atoms: C_1  and  C_2
REMARK    2  A    between atoms: C_4  and  C_30
REMARK    3  A    between atoms: N_5  and  C_7
REMARK    4  A    between atoms: C_7  and  C_8
REMARK    5  A    between atoms: C_12  and  N_14
REMARK    6  A    between atoms: N_28  and  C_29
REMARK                            x       y       z     vdW  Elec       q    Type
REMARK                         _______ _______ _______ _____ _____    ______ ____
ROOT
ATOM      1  N   UNL     1       4.102  -2.993   4.259  0.00  0.00    -0.285 N 
ATOM      2  C   UNL     1       5.367  -3.426   4.578  0.00  0.00    +0.203 A 
ATOM      3  N   UNL     1       5.992  -4.256   3.770  0.00  0.00    -0.208 NA
ATOM      4  C   UNL     1       7.215  -4.690   4.054  0.00  0.00    +0.117 A 
ATOM      5  C   UNL     1       7.897  -4.293   5.216  0.00  0.00    +0.076 A 
ATOM      6  C   UNL     1       9.237  -4.855   5.394  0.00  0.00    -0.023 A 
ATOM      7  C   UNL     1       9.683  -5.691   4.434  0.00  0.00    -0.004 A 
ATOM      8  S   UNL     1       8.364  -5.780   3.252  0.00  0.00    -0.073 S 
ATOM      9  C   UNL     1      11.007  -6.391   4.383  0.00  0.00    +0.043 C 
ATOM     10  C   UNL     1      11.944  -5.731   5.404  0.00  0.00    +0.005 C 
ATOM     11  C   UNL     1      11.198  -5.586   6.734  0.00  0.00    +0.005 C 
ATOM     12  C   UNL     1      10.107  -4.523   6.604  0.00  0.00    +0.037 C 
ATOM     13  C   UNL     1       7.193  -3.390   6.074  0.00  0.00    +0.264 A 
ATOM     14  O   UNL     1       7.707  -2.991   7.106  0.00  0.00    -0.267 OA
ATOM     15  N   UNL     1       5.959  -2.985   5.725  0.00  0.00    -0.283 N 
ATOM     16  C   UNL     1       5.234  -2.056   6.596  0.00  0.00    +0.155 C 
ATOM     17  H   UNL     1       3.602  -2.450   4.888  0.00  0.00    +0.155 HD
ENDROOT
BRANCH   1  22
ATOM     18  C   UNL     1       1.631  -3.996   1.728  0.00  0.00    -0.024 A 
ATOM     19  C   UNL     1       2.416  -4.017   0.590  0.00  0.00    +0.005 A 
ATOM     20  C   UNL     1       3.759  -3.699   0.667  0.00  0.00    +0.002 A 
ATOM     21  C   UNL     1       4.322  -3.359   1.882  0.00  0.00    +0.023 A 
ATOM     22  C   UNL     1       3.536  -3.336   3.027  0.00  0.00    +0.034 A 
ATOM     23  C   UNL     1       2.185  -3.651   2.945  0.00  0.00    +0.028 A 
BRANCH  18  24
ATOM     24  C   UNL     1       0.167  -4.344   1.640  0.00  0.00    +0.179 C 
BRANCH  24  29
ATOM     25  C   UNL     1      -2.502  -0.155   2.368  0.00  0.00    +0.067 C 
ATOM     26  C   UNL     1      -1.773  -1.301   1.713  0.00  0.00    +0.060 A 
ATOM     27  C   UNL     1      -1.643  -1.510   0.337  0.00  0.00    +0.047 A 
ATOM     28  C   UNL     1      -0.923  -2.641   0.154  0.00  0.00    +0.037 A 
ATOM     29  N   UNL     1      -0.608  -3.130   1.372  0.00  0.00    -0.264 N 
ATOM     30  N   UNL     1      -1.149  -2.268   2.335  0.00  0.00    -0.176 NA
ATOM     31  C   UNL     1      -0.540  -3.247  -1.172  0.00  0.00    +0.065 C 
ENDBRANCH  24  29
ENDBRANCH  18  24
ENDBRANCH   1  22
TORSDOF 3
