REMARK  Name = ZINC10652062
REMARK  6 active torsions:
REMARK  status: ('A' for Active; 'I' for Inactive)
REMARK    1  A    between atoms: C_1  and  C_2
REMARK    2  A    between atoms: C_2  and  N_3
REMARK    3  A    between atoms: N_12  and  C_13
REMARK    4  A    between atoms: C_13  and  C_15
REMARK    5  A    between atoms: C_19  and  C_28
REMARK    6  A    between atoms: N_20  and  C_22
REMARK                            x       y       z     vdW  Elec       q    Type
REMARK                         _______ _______ _______ _____ _____    ______ ____
ROOT
ATOM      1  C   UNL     1       3.991  -0.722  -0.348  0.00  0.00    +0.294 C 
ATOM      2  O   UNL     1       4.221  -1.037  -1.503  0.00  0.00    -0.266 OA
ENDROOT
BRANCH   1  12
ATOM      3  N   UNL     1       0.466  -0.099  -0.610  0.00  0.00    -0.312 N 
ATOM      4  C   UNL     1      -0.258  -0.237  -1.790  0.00  0.00    +0.068 A 
ATOM      5  C   UNL     1      -1.603  -0.086  -2.099  0.00  0.00    +0.028 A 
ATOM      6  C   UNL     1      -2.039  -0.296  -3.392  0.00  0.00    +0.002 A 
ATOM      7  C   UNL     1      -1.141  -0.657  -4.382  0.00  0.00    +0.002 A 
ATOM      8  C   UNL     1       0.199  -0.810  -4.085  0.00  0.00    +0.028 A 
ATOM      9  C   UNL     1       0.648  -0.601  -2.789  0.00  0.00    +0.066 A 
ATOM     10  N   UNL     1       1.904  -0.676  -2.196  0.00  0.00    -0.326 N 
ATOM     11  C   UNL     1       1.773  -0.364  -0.879  0.00  0.00    +0.201 A 
ATOM     12  N   UNL     1       2.763  -0.326   0.005  0.00  0.00    -0.141 NA
ATOM     13  H   UNL     1       2.732  -0.908  -2.646  0.00  0.00    +0.169 HD
BRANCH   3  15
ATOM     14  C   UNL     1      -0.055   1.797   0.845  0.00  0.00    +0.027 C 
ATOM     15  C   UNL     1      -0.084   0.275   0.695  0.00  0.00    +0.122 C 
ENDBRANCH   3  15
ENDBRANCH   1  12
BRANCH   1  16
ATOM     16  C   UNL     1       5.070  -0.777   0.662  0.00  0.00    +0.194 A 
ATOM     17  C   UNL     1       6.427  -1.204   0.287  0.00  0.00    +0.213 A 
ATOM     18  O   UNL     1       6.699  -1.523  -0.860  0.00  0.00    -0.285 OA
ATOM     19  C   UNL     1       7.406  -1.230   1.313  0.00  0.00    +0.076 A 
ATOM     20  C   UNL     1       7.024  -0.861   2.560  0.00  0.00    +0.044 A 
ATOM     21  N   UNL     1       5.748  -0.482   2.812  0.00  0.00    -0.236 N 
ATOM     22  N   UNL     1       4.836  -0.440   1.912  0.00  0.00    -0.158 NA
ATOM     23  C   UNL     1       8.032  -0.874   3.680  0.00  0.00    +0.066 C 
BRANCH  21  24
ATOM     24  C   UNL     1       5.410  -0.112   4.118  0.00  0.00    +0.066 A 
ATOM     25  C   UNL     1       6.090   0.924   4.745  0.00  0.00    +0.028 A 
ATOM     26  C   UNL     1       5.753   1.287   6.035  0.00  0.00    +0.002 A 
ATOM     27  C   UNL     1       4.742   0.620   6.701  0.00  0.00    +0.000 A 
ATOM     28  C   UNL     1       4.063  -0.412   6.079  0.00  0.00    +0.002 A 
ATOM     29  C   UNL     1       4.391  -0.776   4.788  0.00  0.00    +0.028 A 
ENDBRANCH  21  24
ENDBRANCH   1  16
TORSDOF 4
