REMARK  Name = ZINC07206525
REMARK  9 active torsions:
REMARK  status: ('A' for Active; 'I' for Inactive)
REMARK    1  A    between atoms: C_1  and  C_2
REMARK    2  A    between atoms: C_6  and  O_8
REMARK    3  A    between atoms: O_8  and  C_9
REMARK    4  A    between atoms: C_9  and  C_10
REMARK    5  A    between atoms: C_10  and  C_12
REMARK    6  A    between atoms: C_10  and  O_30
REMARK    7  A    between atoms: C_12  and  N_13
REMARK    8  A    between atoms: C_16  and  C_20
REMARK    9  A    between atoms: C_16  and  C_21
REMARK                            x       y       z     vdW  Elec       q    Type
REMARK                         _______ _______ _______ _____ _____    ______ ____
ROOT
ATOM      1  N   UNL     1       1.342   1.530   2.443  0.00  0.00    -0.221 N 
ATOM      2  C   UNL     1       0.413   0.779   3.066  0.00  0.00    +0.251 C 
ATOM      3  O   UNL     1       0.029  -0.326   2.746  0.00  0.00    -0.272 OA
ATOM      4  C   UNL     1      -0.054   1.603   4.249  0.00  0.00    +0.135 C 
ATOM      5  N   UNL     1       0.741   2.839   4.146  0.00  0.00    -0.281 N 
ATOM      6  C   UNL     1       1.529   2.700   3.065  0.00  0.00    +0.310 C 
ATOM      7  O   UNL     1       2.320   3.544   2.692  0.00  0.00    -0.252 OA
ATOM      8  C   UNL     1       0.246   0.878   5.563  0.00  0.00    +0.047 C 
ATOM      9  H   UNL     1       0.705   3.603   4.743  0.00  0.00    +0.152 HD
ENDROOT
BRANCH   4  10
ATOM     10  C   UNL     1      -1.526   1.905   4.137  0.00  0.00    -0.012 A 
ATOM     11  C   UNL     1      -2.366   1.016   3.492  0.00  0.00    +0.010 A 
ATOM     12  C   UNL     1      -3.717   1.288   3.386  0.00  0.00    +0.050 A 
ATOM     13  C   UNL     1      -4.234   2.454   3.929  0.00  0.00    +0.166 A 
ATOM     14  C   UNL     1      -3.388   3.350   4.579  0.00  0.00    +0.167 A 
ATOM     15  C   UNL     1      -2.036   3.068   4.684  0.00  0.00    +0.055 A 
ATOM     16  O   UNL     1      -4.129   4.408   5.019  0.00  0.00    -0.453 OA
ATOM     17  C   UNL     1      -5.363   4.348   4.279  0.00  0.00    +0.466 C 
ATOM     18  O   UNL     1      -5.505   2.951   3.962  0.00  0.00    -0.453 OA
ENDBRANCH   4  10
BRANCH   1  19
ATOM     19  C   UNL     1       2.064   1.114   1.238  0.00  0.00    +0.152 C 
BRANCH  19  20
ATOM     20  C   UNL     1       1.286   1.562  -0.002  0.00  0.00    +0.170 C 
BRANCH  20  21
ATOM     21  O   UNL     1      -0.011   0.963   0.007  0.00  0.00    -0.387 OA
ATOM     22  H   UNL     1       0.002  -0.004   0.002  0.00  0.00    +0.210 HD
ENDBRANCH  20  21
BRANCH  20  23
ATOM     23  C   UNL     1       2.040   1.127  -1.261  0.00  0.00    +0.261 C 
BRANCH  23  24
ATOM     24  O   UNL     1       1.376   1.645  -2.415  0.00  0.00    -0.489 OA
BRANCH  24  30
ATOM     25  C   UNL     1       1.240   2.027  -7.279  0.00  0.00    +0.044 C 
ATOM     26  C   UNL     1       1.884   1.517  -6.016  0.00  0.00    -0.047 A 
ATOM     27  C   UNL     1       3.030   0.747  -6.087  0.00  0.00    +0.003 A 
ATOM     28  C   UNL     1       3.622   0.277  -4.929  0.00  0.00    +0.004 A 
ATOM     29  C   UNL     1       3.073   0.581  -3.698  0.00  0.00    +0.045 A 
ATOM     30  C   UNL     1       1.921   1.349  -3.625  0.00  0.00    +0.121 A 
ATOM     31  C   UNL     1       1.328   1.819  -4.788  0.00  0.00    +0.049 A 
ENDBRANCH  24  30
ENDBRANCH  23  24
ENDBRANCH  20  23
ENDBRANCH  19  20
ENDBRANCH   1  19
TORSDOF 7
