REMARK  Name = ZINC67079771
REMARK  6 active torsions:
REMARK  status: ('A' for Active; 'I' for Inactive)
REMARK    1  A    between atoms: C_1  and  C_2
REMARK    2  A    between atoms: C_12  and  C_16
REMARK    3  A    between atoms: N_18  and  C_19
REMARK    4  A    between atoms: C_19  and  C_20
REMARK    5  A    between atoms: C_20  and  C_21
REMARK    6  A    between atoms: N_25  and  C_26
REMARK                            x       y       z     vdW  Elec       q    Type
REMARK                         _______ _______ _______ _____ _____    ______ ____
ROOT
ATOM      1  C   UNL     1       1.333  -7.030   1.291  0.00  0.00    +0.246 C 
ATOM      2  O   UNL     1       0.357  -7.120   0.572  0.00  0.00    -0.270 OA
ATOM      3  N   UNL     1       1.693  -8.069   2.071  0.00  0.00    -0.311 N 
ATOM      4  H   UNL     1       2.472  -7.997   2.645  0.00  0.00    +0.149 HD
ENDROOT
BRANCH   1  15
ATOM      5  C   UNL     1       1.821   0.725  -2.289  0.00  0.00    +0.008 C 
ATOM      6  C   UNL     1       1.630  -0.773  -2.043  0.00  0.00    -0.009 C 
ATOM      7  C   UNL     1       0.136  -1.086  -1.925  0.00  0.00    +0.009 C 
ATOM      8  C   UNL     1      -0.070  -2.604  -1.929  0.00  0.00    +0.054 C 
ATOM      9  C   UNL     1       0.860  -3.219  -0.910  0.00  0.00    +0.020 A 
ATOM     10  C   UNL     1       1.927  -2.579  -0.385  0.00  0.00    -0.019 A 
ATOM     11  C   UNL     1       2.556  -3.494   0.545  0.00  0.00    +0.004 A 
ATOM     12  C   UNL     1       3.679  -3.385   1.370  0.00  0.00    +0.010 A 
ATOM     13  C   UNL     1       4.000  -4.484   2.149  0.00  0.00    +0.001 A 
ATOM     14  C   UNL     1       3.253  -5.646   2.125  0.00  0.00    +0.015 A 
ATOM     15  C   UNL     1       2.124  -5.785   1.310  0.00  0.00    +0.061 A 
ATOM     16  C   UNL     1       1.779  -4.681   0.509  0.00  0.00    +0.059 A 
ATOM     17  N   UNL     1       0.769  -4.479  -0.377  0.00  0.00    -0.357 N 
ATOM     18  H   UNL     1       0.085  -5.130  -0.600  0.00  0.00    +0.166 HD
ATOM     19  C   UNL     1       2.338  -1.173  -0.743  0.00  0.00    +0.040 C 
ENDBRANCH   1  15
BRANCH   3  20
ATOM     20  C   UNL     1       0.908  -9.306   2.052  0.00  0.00    +0.112 C 
BRANCH  20  21
ATOM     21  C   UNL     1       1.525 -10.316   3.021  0.00  0.00    +0.095 C 
BRANCH  21  22
ATOM     22  C   UNL     1       0.718 -11.589   3.001  0.00  0.00    +0.134 A 
ATOM     23  N   UNL     1      -0.333 -11.803   2.276  0.00  0.00    -0.158 NA
ATOM     24  N   UNL     1      -0.791 -13.100   2.545  0.00  0.00    -0.254 N 
ATOM     25  C   UNL     1       0.040 -13.637   3.462  0.00  0.00    +0.176 A 
ATOM     26  N   UNL     1       0.979 -12.713   3.746  0.00  0.00    -0.304 N 
ATOM     27  S   UNL     1      -0.073 -15.207   4.136  0.00  0.00    -0.011 S 
ATOM     28  H   UNL     1      -1.563 -13.531   2.145  0.00  0.00    +0.191 HD
BRANCH  26  29
ATOM     29  C   UNL     1       2.087 -12.877   4.690  0.00  0.00    +0.091 C 
ATOM     30  C   UNL     1       2.433 -14.301   5.132  0.00  0.00    +0.027 C 
ATOM     31  C   UNL     1       1.745 -13.343   6.106  0.00  0.00    +0.027 C 
ENDBRANCH  26  29
ENDBRANCH  21  22
ENDBRANCH  20  21
ENDBRANCH   3  20
TORSDOF 5
