REMARK  Name = ZINC08845608
REMARK  4 active torsions:
REMARK  status: ('A' for Active; 'I' for Inactive)
REMARK    1  A    between atoms: C_1  and  N_2
REMARK    2  A    between atoms: C_3  and  C_20
REMARK    3  A    between atoms: C_6  and  C_13
REMARK    4  A    between atoms: C_18  and  O_19
REMARK                            x       y       z     vdW  Elec       q    Type
REMARK                         _______ _______ _______ _____ _____    ______ ____
ROOT
ATOM      1  C   UNL     1      -0.117   1.459  -0.272  0.00  0.00    +0.133 C 
ATOM      2  N   UNL     1      -0.040  -0.001  -0.177  0.00  0.00    -0.288 N 
ATOM      3  C   UNL     1      -1.183  -0.924  -0.163  0.00  0.00    +0.141 C 
ATOM      4  C   UNL     1      -0.600  -2.306  -0.055  0.00  0.00    +0.035 A 
ATOM      5  C   UNL     1      -0.836  -3.683   0.023  0.00  0.00    +0.102 A 
ATOM      6  N   UNL     1       0.336  -4.280   0.104  0.00  0.00    -0.173 NA
ATOM      7  N   UNL     1       1.289  -3.418   0.086  0.00  0.00    -0.272 N 
ATOM      8  H   UNL     1       2.234  -3.631   0.134  0.00  0.00    +0.189 HD
ATOM      9  C   UNL     1       0.773  -2.157  -0.012  0.00  0.00    +0.126 A 
ATOM     10  C   UNL     1       1.090  -0.727  -0.095  0.00  0.00    +0.265 C 
ATOM     11  O   UNL     1       2.214  -0.263  -0.087  0.00  0.00    -0.268 OA
ENDROOT
BRANCH   3  12
ATOM     12  C   UNL     1      -2.065  -0.637   1.024  0.00  0.00    -0.022 A 
ATOM     13  C   UNL     1      -1.503  -0.438   2.271  0.00  0.00    +0.008 A 
ATOM     14  C   UNL     1      -2.312  -0.174   3.361  0.00  0.00    +0.038 A 
ATOM     15  C   UNL     1      -3.686  -0.111   3.203  0.00  0.00    +0.123 A 
ATOM     16  C   UNL     1      -4.248  -0.311   1.954  0.00  0.00    +0.038 A 
ATOM     17  C   UNL     1      -3.437  -0.569   0.865  0.00  0.00    +0.008 A 
ATOM     18  F   UNL     1      -4.477   0.146   4.267  0.00  0.00    -0.205 F 
ENDBRANCH   3  12
BRANCH   5  19
ATOM     19  C   UNL     1      -2.163  -4.348   0.015  0.00  0.00    +0.044 A 
ATOM     20  C   UNL     1      -3.125  -3.980  -0.922  0.00  0.00    +0.014 A 
ATOM     21  C   UNL     1      -4.357  -4.602  -0.925  0.00  0.00    +0.001 A 
ATOM     22  C   UNL     1      -4.641  -5.591   0.000  0.00  0.00    +0.004 A 
ATOM     23  C   UNL     1      -3.693  -5.964   0.934  0.00  0.00    +0.046 A 
ATOM     24  C   UNL     1      -2.450  -5.351   0.945  0.00  0.00    +0.126 A 
BRANCH  24  25
ATOM     25  O   UNL     1      -1.516  -5.721   1.860  0.00  0.00    -0.506 OA
ATOM     26  H   UNL     1      -1.554  -5.219   2.686  0.00  0.00    +0.292 HD
ENDBRANCH  24  25
ENDBRANCH   5  19
TORSDOF 3
