REMARK  Name = ZINC13700061
REMARK  12 active torsions:
REMARK  status: ('A' for Active; 'I' for Inactive)
REMARK    1  A    between atoms: C_1  and  C_2
REMARK    2  A    between atoms: C_2  and  N_3
REMARK    3  A    between atoms: C_4  and  C_9
REMARK    4  A    between atoms: C_6  and  C_8
REMARK    5  A    between atoms: C_9  and  N_11
REMARK    6  A    between atoms: N_13  and  C_25
REMARK    7  A    between atoms: C_17  and  S_21
REMARK    8  A    between atoms: S_21  and  N_24
REMARK    9  A    between atoms: C_25  and  C_26
REMARK   10  A    between atoms: C_26  and  O_27
REMARK   11  A    between atoms: O_27  and  C_28
REMARK   12  A    between atoms: C_28  and  C_29
REMARK                            x       y       z     vdW  Elec       q    Type
REMARK                         _______ _______ _______ _____ _____    ______ ____
ROOT
ATOM      1  N   UNL     1      -2.707  -0.546  -1.698  0.00  0.00    -0.151 NA
ATOM      2  C   UNL     1      -3.842  -0.106  -2.228  0.00  0.00    +0.167 A 
ATOM      3  N   UNL     1      -4.277  -0.204  -3.516  0.00  0.00    -0.319 N 
ATOM      4  C   UNL     1      -5.503   0.322  -3.880  0.00  0.00    +0.058 A 
ATOM      5  C   UNL     1      -6.096   0.308  -5.155  0.00  0.00    +0.029 A 
ATOM      6  C   UNL     1      -7.330   0.876  -5.365  0.00  0.00    +0.030 A 
ATOM      7  C   UNL     1      -8.029   1.479  -4.332  0.00  0.00    +0.106 A 
ATOM      8  C   UNL     1      -7.470   1.507  -3.067  0.00  0.00    +0.045 A 
ATOM      9  C   UNL     1      -6.236   0.940  -2.856  0.00  0.00    +0.041 A 
ATOM     10  S   UNL     1      -5.189   0.754  -1.433  0.00  0.00    -0.052 S 
ENDROOT
BRANCH   7  11
ATOM     11  S   UNL     1      -9.609   2.201  -4.627  0.00  0.00    +0.056 S 
ATOM     12  O   UNL     1      -9.804   3.178  -3.613  0.00  0.00    -0.153 OA
ATOM     13  O   UNL     1      -9.658   2.519  -6.011  0.00  0.00    -0.153 OA
BRANCH  11  14
ATOM     14  N   UNL     1     -10.742   1.021  -4.372  0.00  0.00    -0.204 NA
ATOM     15  H   UNL     1     -10.463   0.129  -4.110  0.00  0.00    +0.144 HD
ATOM     16  H   UNL     1     -11.684   1.221  -4.484  0.00  0.00    +0.144 HD
ENDBRANCH  11  14
ENDBRANCH   7  11
BRANCH   1  17
ATOM     17  C   UNL     1      -1.744  -1.035  -2.488  0.00  0.00    +0.287 C 
ATOM     18  O   UNL     1      -1.626  -2.240  -2.632  0.00  0.00    -0.266 OA
BRANCH  17  20
ATOM     19  N   UNL     1      -0.771   1.242  -3.043  0.00  0.00    -0.259 N 
ATOM     20  C   UNL     1      -0.824  -0.115  -3.186  0.00  0.00    +0.126 A 
ATOM     21  C   UNL     1       0.143  -0.465  -4.104  0.00  0.00    +0.057 A 
ATOM     22  C   UNL     1       0.781   0.705  -4.512  0.00  0.00    +0.061 A 
ATOM     23  N   UNL     1       0.237   1.720  -3.890  0.00  0.00    -0.176 NA
ATOM     24  C   UNL     1       1.906   0.788  -5.511  0.00  0.00    +0.067 C 
BRANCH  19  26
ATOM     25  C   UNL     1      -2.802   2.603  -2.968  0.00  0.00    +0.029 C 
ATOM     26  C   UNL     1      -1.620   2.053  -2.167  0.00  0.00    +0.141 C 
ENDBRANCH  19  26
ENDBRANCH  17  20
ENDBRANCH   1  17
BRANCH   3  27
ATOM     27  C   UNL     1      -3.441  -0.867  -4.519  0.00  0.00    +0.152 C 
BRANCH  27  28
ATOM     28  C   UNL     1      -3.671  -2.379  -4.457  0.00  0.00    +0.181 C 
BRANCH  28  29
ATOM     29  O   UNL     1      -5.019  -2.671  -4.833  0.00  0.00    -0.378 OA
BRANCH  29  30
ATOM     30  C   UNL     1      -5.340  -4.063  -4.808  0.00  0.00    +0.156 C 
ATOM     31  C   UNL     1      -6.799  -4.258  -5.226  0.00  0.00    +0.034 C 
ENDBRANCH  29  30
ENDBRANCH  28  29
ENDBRANCH  27  28
ENDBRANCH   3  27
TORSDOF 9
