REMARK  Name = ZINC64789231
REMARK  9 active torsions:
REMARK  status: ('A' for Active; 'I' for Inactive)
REMARK    1  A    between atoms: C_1  and  C_2
REMARK    2  A    between atoms: C_2  and  C_3
REMARK    3  A    between atoms: C_3  and  C_4
REMARK    4  A    between atoms: C_4  and  N_5
REMARK    5  A    between atoms: C_18  and  C_21
REMARK    6  A    between atoms: C_26  and  O_27
REMARK    7  A    between atoms: O_27  and  C_28
REMARK    8  A    between atoms: C_29  and  C_31
REMARK    9  A    between atoms: C_31  and  C_32
REMARK                            x       y       z     vdW  Elec       q    Type
REMARK                         _______ _______ _______ _____ _____    ______ ____
ROOT
ATOM      1  N   UNL     1      -2.787  -2.571   0.015  0.00  0.00    -0.222 N 
ATOM      2  C   UNL     1      -3.396  -2.800   1.196  0.00  0.00    +0.261 C 
ATOM      3  O   UNL     1      -2.819  -2.591   2.247  0.00  0.00    -0.269 OA
ATOM      4  C   UNL     1      -4.779  -3.309   1.180  0.00  0.00    +0.117 C 
ATOM      5  C   UNL     1      -5.396  -3.532  -0.139  0.00  0.00    +0.258 C 
ATOM      6  N   UNL     1      -4.666  -3.258  -1.240  0.00  0.00    -0.235 N 
ATOM      7  H   UNL     1      -5.058  -3.398  -2.116  0.00  0.00    +0.159 HD
ATOM      8  C   UNL     1      -3.412  -2.791  -1.150  0.00  0.00    +0.315 C 
ATOM      9  O   UNL     1      -2.810  -2.559  -2.180  0.00  0.00    -0.252 OA
ATOM     10  O   UNL     1      -6.535  -3.951  -0.234  0.00  0.00    -0.270 OA
ATOM     11  C   UNL     1      -5.466  -3.568   2.352  0.00  0.00    +0.041 C 
ATOM     12  N   UNL     1      -4.989  -3.391   3.592  0.00  0.00    -0.264 N 
ATOM     13  N   UNL     1      -5.905  -3.734   4.584  0.00  0.00    -0.215 N 
ATOM     14  C   UNL     1      -7.150  -4.198   3.956  0.00  0.00    +0.136 C 
ATOM     15  C   UNL     1      -6.882  -4.090   2.444  0.00  0.00    +0.082 C 
ATOM     16  C   UNL     1      -5.684  -3.654   5.911  0.00  0.00    +0.232 C 
ATOM     17  O   UNL     1      -6.553  -3.980   6.691  0.00  0.00    -0.274 OA
ATOM     18  H   UNL     1      -4.097  -3.059   3.780  0.00  0.00    +0.170 HD
ENDROOT
BRANCH  14  19
ATOM     19  C   UNL     1      -7.436  -5.626   4.347  0.00  0.00    +0.017 A 
ATOM     20  C   UNL     1      -6.426  -6.419   4.856  0.00  0.00    +0.009 A 
ATOM     21  C   UNL     1      -6.687  -7.728   5.214  0.00  0.00    +0.001 A 
ATOM     22  C   UNL     1      -7.960  -8.248   5.064  0.00  0.00    +0.004 A 
ATOM     23  C   UNL     1      -8.973  -7.459   4.555  0.00  0.00    +0.046 A 
ATOM     24  C   UNL     1      -8.715  -6.142   4.200  0.00  0.00    +0.125 A 
BRANCH  24  25
ATOM     25  O   UNL     1      -9.711  -5.362   3.705  0.00  0.00    -0.495 OA
ATOM     26  C   UNL     1     -11.003  -5.961   3.582  0.00  0.00    +0.277 C 
ENDBRANCH  24  25
ENDBRANCH  14  19
BRANCH  16  27
ATOM     27  C   UNL     1      -4.356  -3.159   6.425  0.00  0.00    +0.094 C 
ATOM     28  C   UNL     1      -4.368  -3.166   7.955  0.00  0.00    +0.013 C 
ENDBRANCH  16  27
BRANCH   1  29
ATOM     29  C   UNL     1      -1.413  -2.063   0.004  0.00  0.00    +0.118 C 
BRANCH  29  30
ATOM     30  C   UNL     1      -1.433  -0.534   0.013  0.00  0.00    +0.019 C 
BRANCH  30  32
ATOM     31  C   UNL     1      -0.019   1.526   0.010  0.00  0.00    +0.004 C 
ATOM     32  C   UNL     1       0.002  -0.004   0.002  0.00  0.00    -0.002 C 
ENDBRANCH  30  32
ENDBRANCH  29  30
ENDBRANCH   1  29
TORSDOF 6
