REMARK  Name = ZINC58414418
REMARK  5 active torsions:
REMARK  status: ('A' for Active; 'I' for Inactive)
REMARK    1  A    between atoms: C_1  and  N_2
REMARK    2  A    between atoms: C_3  and  C_23
REMARK    3  A    between atoms: C_6  and  S_7
REMARK    4  A    between atoms: S_7  and  C_8
REMARK    5  A    between atoms: C_8  and  C_9
REMARK                            x       y       z     vdW  Elec       q    Type
REMARK                         _______ _______ _______ _____ _____    ______ ____
ROOT
ATOM      1  C   UNL     1       0.064  -1.452   5.147  0.00  0.00    +0.143 A 
ATOM      2  N   UNL     1       1.222  -1.319   5.771  0.00  0.00    -0.216 NA
ATOM      3  C   UNL     1       1.308  -1.256   7.090  0.00  0.00    +0.128 A 
ATOM      4  C   UNL     1       0.119  -1.335   7.867  0.00  0.00    +0.051 A 
ATOM      5  C   UNL     1      -0.030  -1.290   9.322  0.00  0.00    -0.025 A 
ATOM      6  C   UNL     1      -1.283  -1.385   9.812  0.00  0.00    -0.004 A 
ATOM      7  S   UNL     1      -2.326  -1.538   8.387  0.00  0.00    -0.073 S 
ATOM      8  C   UNL     1      -1.075  -1.475   7.131  0.00  0.00    +0.114 A 
ATOM      9  N   UNL     1      -1.072  -1.524   5.813  0.00  0.00    -0.224 NA
ATOM     10  C   UNL     1      -1.698  -1.367  11.251  0.00  0.00    +0.043 C 
ATOM     11  C   UNL     1      -0.452  -1.596  12.119  0.00  0.00    +0.005 C 
ATOM     12  C   UNL     1       0.665  -0.671  11.627  0.00  0.00    +0.005 C 
ATOM     13  C   UNL     1       1.165  -1.142  10.260  0.00  0.00    +0.037 C 
ATOM     14  N   UNL     1       2.539  -1.116   7.705  0.00  0.00    -0.343 N 
ATOM     15  H   UNL     1       3.311  -0.835   7.189  0.00  0.00    +0.144 HD
ATOM     16  H   UNL     1       2.631  -1.298   8.653  0.00  0.00    +0.144 HD
ENDROOT
BRANCH   1  17
ATOM     17  C   UNL     1       0.042  -1.517   3.642  0.00  0.00    +0.153 C 
BRANCH  17  18
ATOM     18  S   UNL     1      -0.117   0.159   2.967  0.00  0.00    -0.078 S 
BRANCH  18  24
ATOM     19  C   UNL     1      -0.354   2.330   0.484  0.00  0.00    +0.152 C 
ATOM     20  N   UNL     1      -0.232   0.887   0.267  0.00  0.00    -0.309 N 
ATOM     21  C   UNL     1      -0.192   0.232  -0.933  0.00  0.00    +0.139 A 
ATOM     22  N   UNL     1      -0.077  -1.040  -0.677  0.00  0.00    -0.133 NA
ATOM     23  N   UNL     1      -0.043  -1.234   0.593  0.00  0.00    -0.122 NA
ATOM     24  C   UNL     1      -0.129  -0.084   1.222  0.00  0.00    +0.192 A 
BRANCH  21  25
ATOM     25  C   UNL     1      -0.266   0.866  -2.298  0.00  0.00    +0.079 C 
ATOM     26  C   UNL     1       1.008   0.524  -3.090  0.00  0.00    +0.035 C 
ATOM     27  C   UNL     1       0.773   0.914  -4.577  0.00  0.00    +0.166 C 
ATOM     28  S   UNL     1      -0.967   0.350  -4.803  0.00  0.00    -0.030 S 
ATOM     29  O   UNL     1      -0.961  -0.981  -5.299  0.00  0.00    -0.174 OA
ATOM     30  O   UNL     1      -1.691   1.354  -5.501  0.00  0.00    -0.174 OA
ATOM     31  C   UNL     1      -1.510   0.330  -3.046  0.00  0.00    +0.177 C 
ENDBRANCH  21  25
ENDBRANCH  18  24
ENDBRANCH  17  18
ENDBRANCH   1  17
TORSDOF 4
