REMARK  Name = ZINC00710626
REMARK  7 active torsions:
REMARK  status: ('A' for Active; 'I' for Inactive)
REMARK    1  A    between atoms: C_1  and  O_2
REMARK    2  A    between atoms: O_2  and  C_3
REMARK    3  A    between atoms: C_5  and  C_12
REMARK    4  A    between atoms: C_7  and  O_10
REMARK    5  A    between atoms: C_8  and  O_9
REMARK    6  A    between atoms: O_10  and  C_11
REMARK    7  A    between atoms: C_17  and  C_22
REMARK                            x       y       z     vdW  Elec       q    Type
REMARK                         _______ _______ _______ _____ _____    ______ ____
ROOT
ATOM      1  C   UNL     1       0.652   2.023   0.441  0.00  0.00    +0.136 C 
ATOM      2  C   UNL     1       1.228   1.625  -0.897  0.00  0.00    +0.036 C 
ATOM      3  C   UNL     1       0.784   0.630  -1.682  0.00  0.00    +0.017 C 
ATOM      4  C   UNL     1       1.486   0.315  -2.993  0.00  0.00    +0.059 C 
ATOM      5  C   UNL     1       2.031   1.601  -3.611  0.00  0.00    +0.032 C 
ATOM      6  C   UNL     1       3.024   2.213  -2.616  0.00  0.00    +0.088 C 
ATOM      7  C   UNL     1       2.325   2.420  -1.306  0.00  0.00    +0.163 C 
ATOM      8  O   UNL     1       2.716   3.302  -0.567  0.00  0.00    -0.292 OA
ATOM      9  N   UNL     1      -0.275  -0.170  -1.399  0.00  0.00    -0.316 N 
ATOM     10  C   UNL     1      -0.497  -0.785  -0.172  0.00  0.00    +0.052 A 
ATOM     11  C   UNL     1      -0.540  -2.162  -0.034  0.00  0.00    +0.025 A 
ATOM     12  C   UNL     1      -0.873  -2.711   1.193  0.00  0.00    +0.002 A 
ATOM     13  C   UNL     1      -1.158  -1.891   2.269  0.00  0.00    +0.002 A 
ATOM     14  C   UNL     1      -1.095  -0.514   2.138  0.00  0.00    +0.025 A 
ATOM     15  C   UNL     1      -0.746   0.038   0.916  0.00  0.00    +0.049 A 
ATOM     16  N   UNL     1      -0.625   1.416   0.747  0.00  0.00    -0.331 N 
ATOM     17  H   UNL     1      -0.923  -0.323  -2.104  0.00  0.00    +0.152 HD
ATOM     18  H   UNL     1      -1.412   1.977   0.832  0.00  0.00    +0.147 HD
ENDROOT
BRANCH   1  21
ATOM     19  C   UNL     1       2.857  -0.049   2.706  0.00  0.00    +0.165 A 
ATOM     20  C   UNL     1       1.954   0.309   1.716  0.00  0.00    +0.055 A 
ATOM     21  C   UNL     1       1.634   1.639   1.518  0.00  0.00    -0.016 A 
ATOM     22  C   UNL     1       2.217   2.618   2.301  0.00  0.00    +0.055 A 
ATOM     23  C   UNL     1       3.117   2.268   3.296  0.00  0.00    +0.165 A 
ATOM     24  C   UNL     1       3.441   0.932   3.499  0.00  0.00    +0.201 A 
BRANCH  19  26
ATOM     25  C   UNL     1       2.532  -2.312   2.049  0.00  0.00    +0.277 C 
ATOM     26  O   UNL     1       3.170  -1.358   2.901  0.00  0.00    -0.491 OA
ENDBRANCH  19  26
BRANCH  24  27
ATOM     27  O   UNL     1       4.327   0.584   4.471  0.00  0.00    -0.501 OA
ATOM     28  H   UNL     1       5.247   0.557   4.173  0.00  0.00    +0.292 HD
ENDBRANCH  24  27
BRANCH  23  29
ATOM     29  O   UNL     1       3.685   3.231   4.070  0.00  0.00    -0.491 OA
ATOM     30  C   UNL     1       3.224   4.571   3.881  0.00  0.00    +0.277 C 
ENDBRANCH  23  29
ENDBRANCH   1  21
BRANCH   5  31
ATOM     31  C   UNL     1       2.734   1.288  -4.907  0.00  0.00    -0.044 A 
ATOM     32  C   UNL     1       3.802   0.410  -4.919  0.00  0.00    +0.004 A 
ATOM     33  C   UNL     1       4.443   0.119  -6.108  0.00  0.00    +0.000 A 
ATOM     34  C   UNL     1       4.024   0.713  -7.283  0.00  0.00    +0.000 A 
ATOM     35  C   UNL     1       2.959   1.595  -7.270  0.00  0.00    +0.000 A 
ATOM     36  C   UNL     1       2.314   1.882  -6.082  0.00  0.00    +0.004 A 
ENDBRANCH   5  31
TORSDOF 5
