REMARK  Name = ZINC26805389
REMARK  8 active torsions:
REMARK  status: ('A' for Active; 'I' for Inactive)
REMARK    1  A    between atoms: C_1  and  C_2
REMARK    2  A    between atoms: C_3  and  N_15
REMARK    3  A    between atoms: N_6  and  C_9
REMARK    4  A    between atoms: N_7  and  C_8
REMARK    5  A    between atoms: C_16  and  C_18
REMARK    6  A    between atoms: C_18  and  N_27
REMARK    7  A    between atoms: C_19  and  C_20
REMARK    8  A    between atoms: C_28  and  C_30
REMARK                            x       y       z     vdW  Elec       q    Type
REMARK                         _______ _______ _______ _____ _____    ______ ____
ROOT
ATOM      1  N   UNL     1      -1.058  -0.020   2.393  0.00  0.00    -0.275 N 
ATOM      2  C   UNL     1      -1.384  -0.469   3.621  0.00  0.00    +0.263 C 
ATOM      3  O   UNL     1      -1.909   0.281   4.424  0.00  0.00    -0.268 OA
ATOM      4  H   UNL     1      -0.667  -0.718   1.638  0.00  0.00    +0.155 HD
ENDROOT
BRANCH   1   7
ATOM      5  C   UNL     1      -0.111   1.289  -0.215  0.00  0.00    +0.067 C 
ATOM      6  C   UNL     1      -0.816   1.954   0.939  0.00  0.00    +0.059 A 
ATOM      7  C   UNL     1      -1.219   1.342   2.075  0.00  0.00    +0.122 A 
ATOM      8  C   UNL     1      -1.853   2.360   2.914  0.00  0.00    +0.293 A 
ATOM      9  O   UNL     1      -2.341   2.190   4.017  0.00  0.00    -0.264 OA
ATOM     10  N   UNL     1      -1.793   3.523   2.233  0.00  0.00    -0.216 N 
ATOM     11  N   UNL     1      -1.149   3.280   1.015  0.00  0.00    -0.282 N 
ATOM     12  C   UNL     1      -0.878   4.284  -0.017  0.00  0.00    +0.171 C 
BRANCH  10  13
ATOM     13  C   UNL     1      -2.284   4.757   2.671  0.00  0.00    +0.067 A 
ATOM     14  C   UNL     1      -2.011   5.197   3.960  0.00  0.00    +0.028 A 
ATOM     15  C   UNL     1      -2.492   6.419   4.387  0.00  0.00    +0.002 A 
ATOM     16  C   UNL     1      -3.255   7.199   3.537  0.00  0.00    +0.000 A 
ATOM     17  C   UNL     1      -3.534   6.761   2.256  0.00  0.00    +0.002 A 
ATOM     18  C   UNL     1      -3.051   5.543   1.820  0.00  0.00    +0.028 A 
ENDBRANCH  10  13
ENDBRANCH   1   7
BRANCH   2  19
ATOM     19  C   UNL     1      -1.106  -1.864   3.992  0.00  0.00    +0.097 C 
ATOM     20  C   UNL     1      -1.333  -2.286   5.257  0.00  0.00    +0.036 C 
BRANCH  20  21
ATOM     21  C   UNL     1      -1.218  -3.715   5.588  0.00  0.00    -0.023 A 
ATOM     22  C   UNL     1      -1.273  -4.677   4.574  0.00  0.00    +0.009 A 
ATOM     23  C   UNL     1      -1.160  -6.014   4.891  0.00  0.00    +0.020 A 
ATOM     24  C   UNL     1      -1.004  -6.406   6.210  0.00  0.00    +0.041 A 
ATOM     25  C   UNL     1      -0.954  -5.459   7.220  0.00  0.00    +0.020 A 
ATOM     26  C   UNL     1      -1.060  -4.118   6.918  0.00  0.00    +0.009 A 
ATOM     27 CL   UNL     1      -0.870  -8.092   6.600  0.00  0.00    -0.084 Cl
ENDBRANCH  20  21
BRANCH  19  28
ATOM     28  N   UNL     1      -0.606  -2.754   3.037  0.00  0.00    -0.275 N 
ATOM     29  C   UNL     1      -1.287  -2.968   1.894  0.00  0.00    +0.284 C 
ATOM     30  O   UNL     1      -2.283  -2.313   1.647  0.00  0.00    -0.266 OA
ATOM     31  H   UNL     1       0.343  -3.280   3.219  0.00  0.00    +0.155 HD
BRANCH  29  32
ATOM     32  C   UNL     1      -0.827  -3.989   0.947  0.00  0.00    +0.189 A 
ATOM     33  C   UNL     1      -1.420  -4.306  -0.242  0.00  0.00    +0.054 A 
ATOM     34  C   UNL     1      -0.650  -5.329  -0.817  0.00  0.00    +0.042 A 
ATOM     35  C   UNL     1       0.366  -5.589   0.036  0.00  0.00    +0.196 A 
ATOM     36  O   UNL     1       0.259  -4.776   1.095  0.00  0.00    -0.458 OA
ENDBRANCH  29  32
ENDBRANCH  19  28
ENDBRANCH   2  19
TORSDOF 6
