REMARK  Name = ZINC63680755
REMARK  7 active torsions:
REMARK  status: ('A' for Active; 'I' for Inactive)
REMARK    1  A    between atoms: C_1  and  C_2
REMARK    2  A    between atoms: C_7  and  N_8
REMARK    3  A    between atoms: N_8  and  C_9
REMARK    4  A    between atoms: C_9  and  N_11
REMARK    5  A    between atoms: N_11  and  N_12
REMARK    6  A    between atoms: C_13  and  C_15
REMARK    7  A    between atoms: C_18  and  C_20
REMARK                            x       y       z     vdW  Elec       q    Type
REMARK                         _______ _______ _______ _____ _____    ______ ____
ROOT
ATOM      1  N   UNL     1       4.668   0.942   1.166  0.00  0.00    -0.230 N 
ATOM      2  C   UNL     1       5.933   1.409   1.156  0.00  0.00    +0.279 C 
ATOM      3  O   UNL     1       6.545   1.528   2.201  0.00  0.00    -0.267 OA
ATOM      4  H   UNL     1       4.180   0.848   0.333  0.00  0.00    +0.173 HD
ENDROOT
BRANCH   2   5
ATOM      5  C   UNL     1       6.573   1.775  -0.119  0.00  0.00    +0.135 A 
ATOM      6  C   UNL     1       7.859   2.245  -0.140  0.00  0.00    +0.080 A 
ATOM      7  S   UNL     1       8.123   2.511  -1.781  0.00  0.00    -0.075 S 
ATOM      8  C   UNL     1       6.525   1.993  -2.382  0.00  0.00    +0.112 A 
ATOM      9  N   UNL     1       5.914   1.649  -1.263  0.00  0.00    -0.234 NA
BRANCH   8  10
ATOM     10  C   UNL     1       6.019   1.953  -3.771  0.00  0.00    +0.042 A 
ATOM     11  C   UNL     1       4.720   1.514  -4.031  0.00  0.00    +0.013 A 
ATOM     12  C   UNL     1       4.254   1.480  -5.329  0.00  0.00    +0.001 A 
ATOM     13  C   UNL     1       5.070   1.878  -6.373  0.00  0.00    +0.003 A 
ATOM     14  C   UNL     1       6.358   2.314  -6.124  0.00  0.00    +0.039 A 
ATOM     15  C   UNL     1       6.837   2.360  -4.828  0.00  0.00    +0.133 A 
ATOM     16  F   UNL     1       8.094   2.792  -4.584  0.00  0.00    -0.205 F 
ENDBRANCH   8  10
ENDBRANCH   2   5
BRANCH   1  17
ATOM     17  N   UNL     1       4.059   0.594   2.379  0.00  0.00    -0.246 N 
ATOM     18  H   UNL     1       4.548   0.689   3.211  0.00  0.00    +0.172 HD
BRANCH  17  19
ATOM     19  C   UNL     1       2.795   0.128   2.388  0.00  0.00    +0.147 C 
ATOM     20  S   UNL     1       2.051  -0.298   3.870  0.00  0.00    -0.017 S 
BRANCH  19  21
ATOM     21  N   UNL     1       2.116  -0.004   1.231  0.00  0.00    -0.322 N 
ATOM     22  H   UNL     1       2.538   0.237   0.392  0.00  0.00    +0.148 HD
BRANCH  21  29
ATOM     23  C   UNL     1      -0.019   1.526   0.010  0.00  0.00    +0.009 C 
ATOM     24  C   UNL     1       0.002  -0.004   0.002  0.00  0.00    +0.006 C 
ATOM     25  C   UNL     1      -1.433  -0.534   0.013  0.00  0.00    +0.005 C 
ATOM     26  C   UNL     1      -1.413  -2.063   0.004  0.00  0.00    +0.000 C 
ATOM     27  C   UNL     1      -0.673  -2.570   1.244  0.00  0.00    +0.002 C 
ATOM     28  C   UNL     1       0.763  -2.041   1.233  0.00  0.00    +0.022 C 
ATOM     29  C   UNL     1       0.742  -0.511   1.242  0.00  0.00    +0.075 C 
ENDBRANCH  21  29
ENDBRANCH  19  21
ENDBRANCH  17  19
ENDBRANCH   1  17
TORSDOF 6
