REMARK  Name = ZINC09575547
REMARK  5 active torsions:
REMARK  status: ('A' for Active; 'I' for Inactive)
REMARK    1  A    between atoms: C_1  and  C_2
REMARK    2  A    between atoms: C_2  and  C_16
REMARK    3  A    between atoms: N_5  and  C_9
REMARK    4  A    between atoms: C_9  and  C_10
REMARK    5  A    between atoms: C_19  and  N_22
REMARK                            x       y       z     vdW  Elec       q    Type
REMARK                         _______ _______ _______ _____ _____    ______ ____
ROOT
ATOM      1  C   UNL     1       2.583  -2.165  -4.591  0.00  0.00    +0.047 C 
ATOM      2  C   UNL     1       2.297  -3.186  -3.488  0.00  0.00    +0.135 C 
ATOM      3  C   UNL     1       2.692  -2.632  -2.134  0.00  0.00    +0.251 C 
ATOM      4  O   UNL     1       3.799  -2.293  -1.776  0.00  0.00    -0.272 OA
ATOM      5  N   UNL     1       1.556  -2.597  -1.409  0.00  0.00    -0.219 N 
ATOM      6  C   UNL     1       0.510  -3.051  -2.109  0.00  0.00    +0.310 C 
ATOM      7  O   UNL     1      -0.620  -3.120  -1.667  0.00  0.00    -0.252 OA
ATOM      8  N   UNL     1       0.848  -3.420  -3.357  0.00  0.00    -0.281 N 
ATOM      9  H   UNL     1       0.255  -3.774  -4.038  0.00  0.00    +0.152 HD
ENDROOT
BRANCH   2  10
ATOM     10  C   UNL     1       3.020  -4.479  -3.764  0.00  0.00    -0.015 A 
ATOM     11  C   UNL     1       4.278  -4.694  -3.232  0.00  0.00    +0.008 A 
ATOM     12  C   UNL     1       4.939  -5.882  -3.482  0.00  0.00    +0.033 A 
ATOM     13  C   UNL     1       4.348  -6.850  -4.271  0.00  0.00    +0.126 A 
ATOM     14  C   UNL     1       3.092  -6.633  -4.808  0.00  0.00    +0.033 A 
ATOM     15  C   UNL     1       2.429  -5.447  -4.554  0.00  0.00    +0.008 A 
BRANCH  13  16
ATOM     16  N   UNL     1       5.059  -8.120  -4.543  0.00  0.00    +0.056 N 
ATOM     17  O   UNL     1       4.537  -8.973  -5.238  0.00  0.00    -0.126 OA
ATOM     18  O   UNL     1       6.165  -8.312  -4.070  0.00  0.00    -0.126 OA
ENDBRANCH  13  16
ENDBRANCH   2  10
BRANCH   5  19
ATOM     19  C   UNL     1       1.478  -2.126  -0.024  0.00  0.00    +0.160 C 
BRANCH  19  20
ATOM     20  C   UNL     1       1.196  -0.645  -0.013  0.00  0.00    +0.009 A 
ATOM     21  C   UNL     1       0.002  -0.004   0.002  0.00  0.00    +0.014 A 
ATOM     22  C   UNL     1      -0.017   1.379   0.010  0.00  0.00    +0.028 A 
ATOM     23  C   UNL     1       1.161   2.052   0.002  0.00  0.00    +0.078 A 
ATOM     24  S   UNL     1       2.348   0.718  -0.017  0.00  0.00    -0.080 S 
ATOM     25 CL   UNL     1       1.441   3.765   0.008  0.00  0.00    -0.076 Cl
ENDBRANCH  19  20
ENDBRANCH   5  19
TORSDOF 4
