REMARK  Name = ZINC07547161
REMARK  9 active torsions:
REMARK  status: ('A' for Active; 'I' for Inactive)
REMARK    1  A    between atoms: C_1  and  N_2
REMARK    2  A    between atoms: N_2  and  C_3
REMARK    3  A    between atoms: C_4  and  C_6
REMARK    4  A    between atoms: C_6  and  C_8
REMARK    5  A    between atoms: C_6  and  N_53
REMARK    6  A    between atoms: C_14  and  C_15
REMARK    7  A    between atoms: C_14  and  N_53
REMARK    8  A    between atoms: C_15  and  C_17
REMARK    9  A    between atoms: C_15  and  C_22
REMARK                            x       y       z     vdW  Elec       q    Type
REMARK                         _______ _______ _______ _____ _____    ______ ____
ROOT
ATOM      1  C   UNL     1      -2.468  -0.106  -1.298  0.00  0.00    -0.068 C 
ENDROOT
BRANCH   1   2
ATOM      2  N   UNL     1      -3.941  -0.042  -1.301  0.00  0.00    +0.390 N 
ATOM      3  H   UNL     1      -4.302  -0.513  -0.463  0.00  0.00    -0.084 HD
ATOM      4  H   UNL     1      -4.238   0.941  -1.295  0.00  0.00    -0.084 HD
BRANCH   2   5
ATOM      5  C   UNL     1      -4.481  -0.707  -2.502  0.00  0.00    +0.047 C 
BRANCH   5   6
ATOM      6  C   UNL     1      -5.838  -0.134  -2.817  0.00  0.00    -0.053 A 
ATOM      7  C   UNL     1      -6.779   0.005  -1.813  0.00  0.00    +0.002 A 
ATOM      8  C   UNL     1      -8.024   0.534  -2.101  0.00  0.00    +0.000 A 
ATOM      9  C   UNL     1      -8.330   0.917  -3.394  0.00  0.00    +0.000 A 
ATOM     10  C   UNL     1      -7.391   0.773  -4.398  0.00  0.00    +0.000 A 
ATOM     11  C   UNL     1      -6.145   0.248  -4.109  0.00  0.00    +0.002 A 
ENDBRANCH   5   6
BRANCH   5  15
ATOM     12  C   UNL     1      -4.758  -4.485  -3.039  0.00  0.00    +0.131 C 
ATOM     13  N   UNL     1      -4.523  -3.057  -3.270  0.00  0.00    -0.309 N 
ATOM     14  C   UNL     1      -4.197  -2.577  -4.615  0.00  0.00    +0.131 C 
ATOM     15  C   UNL     1      -4.607  -2.186  -2.245  0.00  0.00    +0.205 C 
ATOM     16  O   UNL     1      -4.784  -2.593  -1.117  0.00  0.00    -0.277 OA
ENDBRANCH   5  15
ENDBRANCH   2   5
ENDBRANCH   1   2
BRANCH   1  17
ATOM     17  C   UNL     1      -1.938   0.589  -0.042  0.00  0.00    +0.041 C 
BRANCH  17  18
ATOM     18  C   UNL     1      -0.433   0.637  -0.091  0.00  0.00    -0.016 A 
ATOM     19  C   UNL     1       0.398  -0.416  -0.155  0.00  0.00    +0.087 A 
ATOM     20  N   UNL     1       1.696   0.015  -0.190  0.00  0.00    -0.360 N 
ATOM     21  H   UNL     1       2.474  -0.562  -0.240  0.00  0.00    +0.165 HD
ATOM     22  C   UNL     1       1.734   1.391  -0.143  0.00  0.00    +0.047 A 
ATOM     23  C   UNL     1       0.402   1.840  -0.076  0.00  0.00    +0.003 A 
ATOM     24  C   UNL     1       0.131   3.208  -0.018  0.00  0.00    +0.010 A 
ATOM     25  C   UNL     1       1.162   4.105  -0.026  0.00  0.00    +0.001 A 
ATOM     26  C   UNL     1       2.477   3.667  -0.092  0.00  0.00    +0.002 A 
ATOM     27  C   UNL     1       2.768   2.321  -0.151  0.00  0.00    +0.026 A 
ENDBRANCH  17  18
BRANCH  17  28
ATOM     28  C   UNL     1      -2.377  -0.177   1.179  0.00  0.00    -0.005 A 
ATOM     29  C   UNL     1      -3.133   0.242   2.223  0.00  0.00    +0.012 A 
ATOM     30  C   UNL     1      -3.416  -0.646   3.244  0.00  0.00    +0.008 A 
ATOM     31  C   UNL     1      -2.921  -1.906   3.176  0.00  0.00    +0.045 A 
ATOM     32  S   UNL     1      -2.029  -1.869   1.630  0.00  0.00    -0.101 S 
ENDBRANCH  17  28
ENDBRANCH   1  17
TORSDOF 7
