REMARK  Name = ZINC39634271
REMARK  7 active torsions:
REMARK  status: ('A' for Active; 'I' for Inactive)
REMARK    1  A    between atoms: C_1  and  C_2
REMARK    2  A    between atoms: C_5  and  C_8
REMARK    3  A    between atoms: C_8  and  N_9
REMARK    4  A    between atoms: C_10  and  C_12
REMARK    5  A    between atoms: C_23  and  C_25
REMARK    6  A    between atoms: C_28  and  O_31
REMARK    7  A    between atoms: O_31  and  C_32
REMARK                            x       y       z     vdW  Elec       q    Type
REMARK                         _______ _______ _______ _____ _____    ______ ____
ROOT
ATOM      1  C   UNL     1       2.764  -6.568  -0.634  0.00  0.00    +0.100 C 
ATOM      2  C   UNL     1       3.728  -6.157  -1.770  0.00  0.00    +0.121 C 
ATOM      3  N   UNL     1       4.597  -7.340  -1.969  0.00  0.00    -0.296 N 
ATOM      4  C   UNL     1       3.682  -8.498  -1.828  0.00  0.00    +0.115 C 
ATOM      5  C   UNL     1       2.737  -8.105  -0.676  0.00  0.00    -0.004 C 
ATOM      6  C   UNL     1       3.245  -8.679   0.643  0.00  0.00    -0.010 C 
ATOM      7  C   UNL     1       3.155 -10.207   0.598  0.00  0.00    -0.082 C 
ATOM      8  N   UNL     1       1.762 -10.610   0.370  0.00  0.00    +0.379 N 
ATOM      9  C   UNL     1       1.310 -10.132  -0.942  0.00  0.00    -0.082 C 
ATOM     10  C   UNL     1       1.323  -8.601  -0.962  0.00  0.00    -0.010 C 
ATOM     11  C   UNL     1       5.921  -7.359  -2.222  0.00  0.00    +0.247 C 
ATOM     12  O   UNL     1       6.562  -6.327  -2.183  0.00  0.00    -0.270 OA
ATOM     13  H   UNL     1       1.696 -11.616   0.401  0.00  0.00    -0.086 HD
ATOM     14  H   UNL     1       1.177 -10.214   1.090  0.00  0.00    -0.086 HD
ENDROOT
BRANCH  11  15
ATOM     15  C   UNL     1       6.592  -8.633  -2.548  0.00  0.00    +0.037 A 
ATOM     16  C   UNL     1       5.847  -9.716  -3.020  0.00  0.00    +0.016 A 
ATOM     17  C   UNL     1       6.476 -10.903  -3.323  0.00  0.00    +0.047 A 
ATOM     18  C   UNL     1       7.851 -11.023  -3.159  0.00  0.00    +0.130 A 
ATOM     19  C   UNL     1       8.596  -9.948  -2.689  0.00  0.00    +0.047 A 
ATOM     20  C   UNL     1       7.975  -8.756  -2.390  0.00  0.00    +0.016 A 
BRANCH  18  21
ATOM     21  O   UNL     1       8.468 -12.195  -3.458  0.00  0.00    -0.406 OA
BRANCH  21  22
ATOM     22  C   UNL     1       9.883 -12.250  -3.266  0.00  0.00    +0.575 C 
ATOM     23  F   UNL     1      10.182 -12.000  -1.922  0.00  0.00    -0.133 F 
ATOM     24  F   UNL     1      10.352 -13.520  -3.619  0.00  0.00    -0.133 F 
ATOM     25  F   UNL     1      10.501 -11.285  -4.069  0.00  0.00    -0.133 F 
ENDBRANCH  21  22
ENDBRANCH  18  21
ENDBRANCH  11  15
BRANCH   1  27
ATOM     26  N   UNL     1       0.583  -5.705   0.150  0.00  0.00    -0.311 N 
ATOM     27  C   UNL     1       1.387  -6.011  -0.887  0.00  0.00    +0.218 C 
ATOM     28  O   UNL     1       1.002  -5.839  -2.024  0.00  0.00    -0.275 OA
ATOM     29  H   UNL     1       0.890  -5.842   1.060  0.00  0.00    +0.149 HD
BRANCH  26  30
ATOM     30  C   UNL     1      -0.756  -5.164  -0.096  0.00  0.00    +0.139 C 
BRANCH  30  35
ATOM     31  C   UNL     1      -3.398  -4.181   4.949  0.00  0.00    +0.044 C 
ATOM     32  C   UNL     1      -2.709  -4.438   3.634  0.00  0.00    -0.050 A 
ATOM     33  C   UNL     1      -1.946  -3.445   3.048  0.00  0.00    +0.003 A 
ATOM     34  C   UNL     1      -1.315  -3.679   1.841  0.00  0.00    +0.005 A 
ATOM     35  C   UNL     1      -1.444  -4.908   1.220  0.00  0.00    -0.030 A 
ATOM     36  C   UNL     1      -2.206  -5.901   1.807  0.00  0.00    +0.005 A 
ATOM     37  C   UNL     1      -2.835  -5.668   3.016  0.00  0.00    +0.003 A 
ENDBRANCH  30  35
ENDBRANCH  26  30
ENDBRANCH   1  27
TORSDOF 6
