REMARK  Name = ZINC06405731
REMARK  9 active torsions:
REMARK  status: ('A' for Active; 'I' for Inactive)
REMARK    1  A    between atoms: C_1  and  C_2
REMARK    2  A    between atoms: C_5  and  C_40
REMARK    3  A    between atoms: C_9  and  C_14
REMARK    4  A    between atoms: C_14  and  C_16
REMARK    5  A    between atoms: C_14  and  N_74
REMARK    6  A    between atoms: N_20  and  C_21
REMARK    7  A    between atoms: C_21  and  C_22
REMARK    8  A    between atoms: C_30  and  C_33
REMARK    9  A    between atoms: C_33  and  C_34
REMARK                            x       y       z     vdW  Elec       q    Type
REMARK                         _______ _______ _______ _____ _____    ______ ____
ROOT
ATOM      1  C   UNL     1       1.134   7.465   0.029  0.00  0.00    +0.039 C 
ENDROOT
BRANCH   1  10
ATOM      2  C   UNL     1      -2.594   3.829   0.045  0.00  0.00    +0.044 C 
ATOM      3  C   UNL     1      -1.269   3.112   0.029  0.00  0.00    -0.041 A 
ATOM      4  C   UNL     1      -1.228   1.746   0.017  0.00  0.00    +0.004 A 
ATOM      5  C   UNL     1      -0.013   1.076   0.008  0.00  0.00    +0.005 A 
ATOM      6  C   UNL     1       1.176   1.774   0.000  0.00  0.00    -0.026 A 
ATOM      7  C   UNL     1       1.159   3.165   0.007  0.00  0.00    +0.052 A 
ATOM      8  C   UNL     1      -0.075   3.841   0.022  0.00  0.00    +0.002 A 
ATOM      9  C   UNL     1      -0.083   5.305   0.030  0.00  0.00    +0.018 A 
ATOM     10  C   UNL     1       1.105   5.959   0.022  0.00  0.00    +0.011 A 
ATOM     11  C   UNL     1       2.316   5.233   0.007  0.00  0.00    +0.251 A 
ATOM     12  O   UNL     1       3.373   5.840  -0.000  0.00  0.00    -0.268 OA
ATOM     13  N   UNL     1       2.333   3.889  -0.000  0.00  0.00    -0.322 N 
ATOM     14  H   UNL     1       3.183   3.421  -0.011  0.00  0.00    +0.169 HD
ATOM     15  C   UNL     1       2.488   1.033  -0.016  0.00  0.00    +0.046 C 
ENDBRANCH   1  10
BRANCH   1  21
ATOM     16  C   UNL     1       1.452   7.386   2.428  0.00  0.00    -0.077 C 
ATOM     17  C   UNL     1       2.406   7.776   3.560  0.00  0.00    -0.015 C 
ATOM     18  C   UNL     1       2.496   9.302   3.642  0.00  0.00    -0.010 C 
ATOM     19  C   UNL     1       2.967   9.851   2.293  0.00  0.00    -0.015 C 
ATOM     20  C   UNL     1       1.998   9.402   1.198  0.00  0.00    -0.077 C 
ATOM     21  N   UNL     1       1.975   7.924   1.154  0.00  0.00    +0.389 N 
ATOM     22  H   UNL     1       2.933   7.580   1.015  0.00  0.00    -0.080 HD
BRANCH  18  23
ATOM     23  C   UNL     1       3.493   9.698   4.732  0.00  0.00    +0.038 C 
BRANCH  23  24
ATOM     24  C   UNL     1       2.968   9.264   6.076  0.00  0.00    -0.047 A 
ATOM     25  C   UNL     1       2.177  10.121   6.819  0.00  0.00    +0.003 A 
ATOM     26  C   UNL     1       1.691   9.721   8.050  0.00  0.00    +0.000 A 
ATOM     27  C   UNL     1       2.004   8.468   8.542  0.00  0.00    +0.000 A 
ATOM     28  C   UNL     1       2.799   7.613   7.802  0.00  0.00    +0.000 A 
ATOM     29  C   UNL     1       3.281   8.011   6.569  0.00  0.00    +0.003 A 
ENDBRANCH  23  24
ENDBRANCH  18  23
ENDBRANCH   1  21
BRANCH   1  30
ATOM     30  C   UNL     1       1.731   7.963  -1.262  0.00  0.00    +0.143 A 
ATOM     31  N   UNL     1       2.999   7.950  -1.593  0.00  0.00    -0.115 NA
ATOM     32  N   UNL     1       3.107   8.458  -2.772  0.00  0.00    -0.023 NA
ATOM     33  N   UNL     1       1.942   8.801  -3.199  0.00  0.00    -0.044 NA
ATOM     34  N   UNL     1       1.067   8.512  -2.296  0.00  0.00    -0.228 N 
BRANCH  34  35
ATOM     35  C   UNL     1      -0.378   8.738  -2.380  0.00  0.00    +0.178 C 
BRANCH  35  36
ATOM     36  C   UNL     1      -0.710  10.125  -1.825  0.00  0.00    +0.140 C 
ATOM     37  C   UNL     1      -2.228  10.406  -1.955  0.00  0.00    +0.035 C 
ATOM     38  C   UNL     1      -2.432  11.453  -0.826  0.00  0.00    +0.031 C 
ATOM     39  C   UNL     1      -1.423  10.981   0.244  0.00  0.00    +0.160 C 
ATOM     40  O   UNL     1      -0.439  10.175  -0.415  0.00  0.00    -0.375 OA
ENDBRANCH  35  36
ENDBRANCH  34  35
ENDBRANCH   1  30
TORSDOF 7
