REMARK  Name = ZINC13207591
REMARK  2 active torsions:
REMARK  status: ('A' for Active; 'I' for Inactive)
REMARK    1  A    between atoms: C_4  and  C_7
REMARK    2  A    between atoms: C_8  and  C_23
REMARK                            x       y       z     vdW  Elec       q    Type
REMARK                         _______ _______ _______ _____ _____    ______ ____
ROOT
ATOM      1  C   UNL     1       2.247   0.863   1.159  0.00  0.00    +0.098 A 
ATOM      2  C   UNL     1       2.191  -0.361   0.455  0.00  0.00    +0.098 A 
ATOM      3  N   UNL     1       1.022  -0.875   0.107  0.00  0.00    -0.242 NA
ATOM      4  C   UNL     1      -0.102  -0.236   0.422  0.00  0.00    +0.102 A 
ATOM      5  C   UNL     1      -0.049   0.992   1.128  0.00  0.00    +0.091 A 
ATOM      6  N   UNL     1       1.134   1.503   1.475  0.00  0.00    -0.243 NA
ATOM      7  C   UNL     1      -1.248   1.661   1.462  0.00  0.00    +0.032 A 
ATOM      8  C   UNL     1      -2.455   1.163   1.115  0.00  0.00    +0.031 A 
ATOM      9  C   UNL     1      -2.572  -0.055   0.411  0.00  0.00    +0.080 A 
ATOM     10  C   UNL     1      -1.410  -0.772   0.054  0.00  0.00    +0.067 A 
ATOM     11  C   UNL     1      -1.553  -1.986  -0.648  0.00  0.00    +0.131 A 
ATOM     12  N   UNL     1      -2.778  -2.402  -0.944  0.00  0.00    -0.199 NA
ATOM     13  C   UNL     1      -3.848  -1.698  -0.590  0.00  0.00    +0.215 A 
ATOM     14  N   UNL     1      -3.764  -0.556   0.069  0.00  0.00    -0.214 NA
ATOM     15  N   UNL     1      -5.100  -2.181  -0.924  0.00  0.00    -0.327 N 
ATOM     16  N   UNL     1      -0.447  -2.723  -1.020  0.00  0.00    -0.342 N 
ATOM     17  H   UNL     1      -5.894  -1.683  -0.675  0.00  0.00    +0.145 HD
ATOM     18  H   UNL     1      -5.184  -3.018  -1.408  0.00  0.00    +0.145 HD
ATOM     19  H   UNL     1       0.443  -2.350  -0.913  0.00  0.00    +0.144 HD
ATOM     20  H   UNL     1      -0.558  -3.613  -1.387  0.00  0.00    +0.144 HD
ENDROOT
BRANCH   1  24
ATOM     21  C   UNL     1       6.012   2.496   2.267  0.00  0.00    +0.000 A 
ATOM     22  C   UNL     1       5.047   3.311   1.701  0.00  0.00    +0.001 A 
ATOM     23  C   UNL     1       3.823   2.786   1.340  0.00  0.00    +0.010 A 
ATOM     24  C   UNL     1       3.559   1.432   1.545  0.00  0.00    +0.002 A 
ATOM     25  C   UNL     1       4.534   0.618   2.121  0.00  0.00    +0.010 A 
ATOM     26  C   UNL     1       5.756   1.152   2.473  0.00  0.00    +0.001 A 
ENDBRANCH   1  24
BRANCH   2  27
ATOM     27  C   UNL     1       3.444  -1.071   0.107  0.00  0.00    +0.002 A 
ATOM     28  C   UNL     1       4.519  -0.368  -0.435  0.00  0.00    +0.010 A 
ATOM     29  C   UNL     1       5.686  -1.034  -0.752  0.00  0.00    +0.001 A 
ATOM     30  C   UNL     1       5.785  -2.398  -0.545  0.00  0.00    +0.000 A 
ATOM     31  C   UNL     1       4.719  -3.102  -0.013  0.00  0.00    +0.001 A 
ATOM     32  C   UNL     1       3.550  -2.446   0.314  0.00  0.00    +0.010 A 
ENDBRANCH   2  27
TORSDOF 2
