REMARK  Name = ZINC06182951
REMARK  18 active torsions:
REMARK  status: ('A' for Active; 'I' for Inactive)
REMARK    1  A    between atoms: C_1  and  N_62
REMARK    2  A    between atoms: C_2  and  N_62
REMARK    3  A    between atoms: C_3  and  C_4
REMARK    4  A    between atoms: C_3  and  N_62
REMARK    5  A    between atoms: C_4  and  C_6
REMARK    6  A    between atoms: C_4  and  O_33
REMARK    7  A    between atoms: C_6  and  O_7
REMARK    8  A    between atoms: O_7  and  C_8
REMARK    9  A    between atoms: C_11  and  S_15
REMARK   10  A    between atoms: S_15  and  C_18
REMARK   11  A    between atoms: C_21  and  O_25
REMARK   12  A    between atoms: O_25  and  C_26
REMARK   13  A    between atoms: C_26  and  C_27
REMARK   14  A    between atoms: C_27  and  C_29
REMARK   15  A    between atoms: C_27  and  O_32
REMARK   16  A    between atoms: C_29  and  N_64
REMARK   17  A    between atoms: C_30  and  N_64
REMARK   18  A    between atoms: C_31  and  N_64
REMARK                            x       y       z     vdW  Elec       q    Type
REMARK                         _______ _______ _______ _____ _____    ______ ____
ROOT
ATOM      1  S   UNL     1       0.677   0.536  -0.188  0.00  0.00    +0.025 S 
ATOM      2  O   UNL     1       0.758  -0.870   0.002  0.00  0.00    -0.164 OA
ATOM      3  O   UNL     1       1.810   1.326  -0.522  0.00  0.00    -0.164 OA
ENDROOT
BRANCH   1   7
ATOM      4  C   UNL     1      -2.388   1.225  -3.450  0.00  0.00    +0.139 A 
ATOM      5  C   UNL     1      -2.425   0.061  -2.697  0.00  0.00    +0.049 A 
ATOM      6  C   UNL     1      -1.485  -0.149  -1.706  0.00  0.00    +0.031 A 
ATOM      7  C   UNL     1      -0.515   0.804  -1.458  0.00  0.00    +0.095 A 
ATOM      8  C   UNL     1      -0.476   1.966  -2.207  0.00  0.00    +0.051 A 
ATOM      9  C   UNL     1      -1.411   2.179  -3.203  0.00  0.00    +0.084 A 
ATOM     10 CL   UNL     1      -1.361   3.637  -4.144  0.00  0.00    -0.080 Cl
BRANCH   4  11
ATOM     11  O   UNL     1      -3.308   1.431  -4.429  0.00  0.00    -0.488 OA
BRANCH  11  12
ATOM     12  C   UNL     1      -4.285   0.407  -4.628  0.00  0.00    +0.258 C 
BRANCH  12  13
ATOM     13  C   UNL     1      -5.227   0.814  -5.763  0.00  0.00    +0.135 C 
BRANCH  13  14
ATOM     14  O   UNL     1      -4.495   0.881  -6.989  0.00  0.00    -0.390 OA
ATOM     15  H   UNL     1      -4.082   0.046  -7.246  0.00  0.00    +0.210 HD
ENDBRANCH  13  14
BRANCH  13  16
ATOM     16  C   UNL     1      -6.346  -0.222  -5.893  0.00  0.00    -0.045 C 
BRANCH  16  19
ATOM     17  C   UNL     1      -8.129  -0.930  -7.369  0.00  0.00    -0.096 C 
ATOM     18  C   UNL     1      -8.077   1.343  -6.539  0.00  0.00    -0.096 C 
ATOM     19  N   UNL     1      -7.256   0.197  -6.980  0.00  0.00    +0.378 N 
ATOM     20  H   UNL     1      -6.696   0.481  -7.793  0.00  0.00    -0.083 HD
ENDBRANCH  16  19
ENDBRANCH  13  16
ENDBRANCH  12  13
ENDBRANCH  11  12
ENDBRANCH   4  11
ENDBRANCH   1   7
BRANCH   1  21
ATOM     21  C   UNL     1       0.015   1.209   1.300  0.00  0.00    +0.095 A 
ATOM     22  C   UNL     1       0.267   2.527   1.633  0.00  0.00    +0.031 A 
ATOM     23  C   UNL     1      -0.256   3.059   2.796  0.00  0.00    +0.049 A 
ATOM     24  C   UNL     1      -1.024   2.266   3.636  0.00  0.00    +0.139 A 
ATOM     25  C   UNL     1      -1.271   0.941   3.302  0.00  0.00    +0.084 A 
ATOM     26  C   UNL     1      -0.750   0.416   2.134  0.00  0.00    +0.051 A 
ATOM     27 CL   UNL     1      -2.232  -0.054   4.351  0.00  0.00    -0.080 Cl
BRANCH  24  28
ATOM     28  O   UNL     1      -1.534   2.785   4.784  0.00  0.00    -0.488 OA
BRANCH  28  29
ATOM     29  C   UNL     1      -1.240   4.156   5.063  0.00  0.00    +0.258 C 
BRANCH  29  30
ATOM     30  C   UNL     1      -1.894   4.559   6.386  0.00  0.00    +0.135 C 
BRANCH  30  31
ATOM     31  O   UNL     1      -1.301   3.819   7.455  0.00  0.00    -0.390 OA
ATOM     32  H   UNL     1      -0.349   3.962   7.552  0.00  0.00    +0.210 HD
ENDBRANCH  30  31
BRANCH  30  33
ATOM     33  C   UNL     1      -1.684   6.055   6.623  0.00  0.00    -0.045 C 
BRANCH  33  36
ATOM     34  C   UNL     1      -1.867   7.762   8.332  0.00  0.00    -0.096 C 
ATOM     35  C   UNL     1      -3.806   6.445   7.723  0.00  0.00    -0.096 C 
ATOM     36  N   UNL     1      -2.338   6.431   7.895  0.00  0.00    +0.378 N 
ATOM     37  H   UNL     1      -2.093   5.738   8.613  0.00  0.00    -0.083 HD
ENDBRANCH  33  36
ENDBRANCH  30  33
ENDBRANCH  29  30
ENDBRANCH  28  29
ENDBRANCH  24  28
ENDBRANCH   1  21
TORSDOF 14
