REMARK  Name = ZINC61599380
REMARK  3 active torsions:
REMARK  status: ('A' for Active; 'I' for Inactive)
REMARK    1  A    between atoms: C_8  and  C_13
REMARK    2  A    between atoms: N_19  and  C_21
REMARK    3  A    between atoms: C_21  and  C_22
REMARK                            x       y       z     vdW  Elec       q    Type
REMARK                         _______ _______ _______ _____ _____    ______ ____
ROOT
ATOM      1  C   UNL     1       2.546  -4.219  -0.043  0.00  0.00    +0.255 C 
ATOM      2  O   UNL     1       1.525  -4.873   0.062  0.00  0.00    -0.270 OA
ATOM      3  N   UNL     1       3.736  -4.841  -0.160  0.00  0.00    -0.265 N 
ATOM      4  C   UNL     1       3.789  -6.236  -0.272  0.00  0.00    +0.147 A 
ATOM      5  C   UNL     1       2.686  -7.106  -0.283  0.00  0.00    +0.065 A 
ATOM      6  C   UNL     1       3.155  -8.368  -0.407  0.00  0.00    +0.110 A 
ATOM      7  N   UNL     1       4.502  -8.306  -0.472  0.00  0.00    -0.265 N 
ATOM      8  N   UNL     1       4.878  -6.959  -0.391  0.00  0.00    -0.156 NA
ATOM      9  H   UNL     1       4.555  -4.322  -0.165  0.00  0.00    +0.157 HD
ENDROOT
BRANCH   1  17
ATOM     10  C   UNL     1      -0.019   1.359  -0.030  0.00  0.00    +0.001 A 
ATOM     11  C   UNL     1       1.167   2.082  -0.034  0.00  0.00    +0.002 A 
ATOM     12  C   UNL     1       2.383   1.436  -0.040  0.00  0.00    +0.026 A 
ATOM     13  C   UNL     1       2.430   0.044  -0.042  0.00  0.00    +0.049 A 
ATOM     14  C   UNL     1       1.227  -0.687  -0.037  0.00  0.00    -0.001 A 
ATOM     15  C   UNL     1       0.000  -0.005  -0.031  0.00  0.00    +0.010 A 
ATOM     16  C   UNL     1       1.257  -2.102  -0.037  0.00  0.00    +0.028 A 
ATOM     17  C   UNL     1       2.480  -2.748  -0.043  0.00  0.00    +0.102 A 
ATOM     18  C   UNL     1       3.712  -1.951  -0.048  0.00  0.00    +0.261 A 
ATOM     19  O   UNL     1       4.795  -2.506  -0.053  0.00  0.00    -0.267 OA
ATOM     20  N   UNL     1       3.646  -0.606  -0.047  0.00  0.00    -0.321 N 
ATOM     21  H   UNL     1       4.466  -0.088  -0.050  0.00  0.00    +0.169 HD
ENDBRANCH   1  17
BRANCH   7  22
ATOM     22  C   UNL     1       5.410  -9.447  -0.608  0.00  0.00    +0.180 C 
BRANCH  22  23
ATOM     23  C   UNL     1       6.300  -9.240  -1.807  0.00  0.00    -0.000 A 
ATOM     24  C   UNL     1       5.960  -9.777  -3.011  0.00  0.00    +0.007 A 
ATOM     25  C   UNL     1       6.767  -9.598  -4.132  0.00  0.00    +0.001 A 
ATOM     26  C   UNL     1       7.921  -8.880  -4.054  0.00  0.00    +0.010 A 
ATOM     27  C   UNL     1       8.303  -8.311  -2.828  0.00  0.00    +0.001 A 
ATOM     28  C   UNL     1       7.481  -8.487  -1.688  0.00  0.00    +0.076 A 
ATOM     29  N   UNL     1       7.838  -7.944  -0.520  0.00  0.00    -0.255 NA
ATOM     30  C   UNL     1       8.938  -7.242  -0.403  0.00  0.00    +0.111 A 
ATOM     31  C   UNL     1       9.789  -7.026  -1.486  0.00  0.00    +0.020 A 
ATOM     32  C   UNL     1       9.489  -7.562  -2.705  0.00  0.00    +0.011 A 
ENDBRANCH  22  23
ENDBRANCH   7  22
TORSDOF 3
