REMARK  Name = ZINC16098468
REMARK  5 active torsions:
REMARK  status: ('A' for Active; 'I' for Inactive)
REMARK    1  A    between atoms: C_3  and  S_22
REMARK    2  A    between atoms: C_6  and  N_7
REMARK    3  A    between atoms: N_7  and  S_8
REMARK    4  A    between atoms: S_8  and  C_11
REMARK    5  A    between atoms: S_22  and  N_25
REMARK                            x       y       z     vdW  Elec       q    Type
REMARK                         _______ _______ _______ _____ _____    ______ ____
ROOT
ATOM      1  C   UNL     1      -5.854   4.402   4.683  0.00  0.00    +0.026 A 
ATOM      2  C   UNL     1      -4.653   4.470   4.006  0.00  0.00    +0.031 A 
ATOM      3  C   UNL     1      -4.626   4.347   2.628  0.00  0.00    +0.113 A 
ATOM      4  C   UNL     1      -5.802   4.160   1.925  0.00  0.00    +0.031 A 
ATOM      5  C   UNL     1      -7.006   4.085   2.597  0.00  0.00    +0.026 A 
ATOM      6  C   UNL     1      -7.037   4.209   3.980  0.00  0.00    +0.048 A 
ENDROOT
BRANCH   3   7
ATOM      7  S   UNL     1      -3.091   4.435   1.768  0.00  0.00    +0.100 S 
ATOM      8  O   UNL     1      -2.200   5.165   2.600  0.00  0.00    -0.146 OA
ATOM      9  O   UNL     1      -3.393   4.837   0.439  0.00  0.00    -0.146 OA
BRANCH   7  10
ATOM     10  N   UNL     1      -2.494   2.893   1.673  0.00  0.00    -0.118 NA
ATOM     11  C   UNL     1      -1.364   2.672   1.083  0.00  0.00    +0.117 C 
ATOM     12  C   UNL     1      -0.618   3.820   0.496  0.00  0.00    +0.073 C 
ATOM     13  C   UNL     1      -0.965   3.970  -1.000  0.00  0.00    +0.008 C 
ATOM     14  C   UNL     1      -0.394   2.849  -1.779  0.00  0.00    +0.002 C 
ATOM     15  C   UNL     1      -0.955   1.481  -1.420  0.00  0.00    +0.019 C 
ATOM     16  C   UNL     1      -0.225   0.908  -0.230  0.00  0.00    +0.102 C 
ATOM     17  N   UNL     1      -0.881   1.374   1.015  0.00  0.00    -0.331 N 
ATOM     18  H   UNL     1      -0.973   0.776   1.773  0.00  0.00    +0.147 HD
ENDBRANCH   7  10
ENDBRANCH   3   7
BRANCH   6  19
ATOM     19  N   UNL     1      -8.253   4.139   4.662  0.00  0.00    -0.216 N 
ATOM     20  H   UNL     1      -8.332   3.592   5.459  0.00  0.00    +0.174 HD
BRANCH  19  21
ATOM     21  S   UNL     1      -9.561   4.992   4.111  0.00  0.00    +0.072 S 
ATOM     22  O   UNL     1      -9.715   4.658   2.738  0.00  0.00    -0.150 OA
ATOM     23  O   UNL     1     -10.600   4.802   5.062  0.00  0.00    -0.150 OA
BRANCH  21  24
ATOM     24  C   UNL     1      -9.132   6.700   4.168  0.00  0.00    +0.112 A 
ATOM     25  C   UNL     1      -9.297   7.413   5.341  0.00  0.00    +0.032 A 
ATOM     26  C   UNL     1      -8.957   8.753   5.395  0.00  0.00    +0.051 A 
ATOM     27  C   UNL     1      -8.460   9.381   4.266  0.00  0.00    +0.162 A 
ATOM     28  C   UNL     1      -8.300   8.667   3.087  0.00  0.00    +0.164 A 
ATOM     29  C   UNL     1      -8.636   7.325   3.038  0.00  0.00    +0.078 A 
ATOM     30  O   UNL     1      -7.809   9.295   1.979  0.00  0.00    -0.488 OA
ATOM     31  C   UNL     1      -8.661  10.280   1.390  0.00  0.00    +0.232 C 
ATOM     32  C   UNL     1      -8.497  11.621   2.087  0.00  0.00    +0.082 C 
ATOM     33  C   UNL     1      -8.953  11.580   3.537  0.00  0.00    +0.232 C 
ATOM     34  O   UNL     1      -8.125  10.703   4.304  0.00  0.00    -0.488 OA
ENDBRANCH  21  24
ENDBRANCH  19  21
ENDBRANCH   6  19
TORSDOF 5
