REMARK  Name = ZINC05071494
REMARK  6 active torsions:
REMARK  status: ('A' for Active; 'I' for Inactive)
REMARK    1  A    between atoms: C_1  and  C_2
REMARK    2  A    between atoms: C_15  and  C_17
REMARK    3  A    between atoms: C_17  and  S_18
REMARK    4  A    between atoms: S_18  and  C_19
REMARK    5  A    between atoms: N_27  and  C_28
REMARK    6  A    between atoms: C_28  and  C_29
REMARK                            x       y       z     vdW  Elec       q    Type
REMARK                         _______ _______ _______ _____ _____    ______ ____
ROOT
ATOM      1  C   UNL     1      -1.447  -2.674   1.411  0.00  0.00    +0.029 C 
ATOM      2  C   UNL     1      -1.153  -2.157   0.002  0.00  0.00    +0.087 C 
ATOM      3  C   UNL     1      -2.224  -2.673  -0.962  0.00  0.00    +0.118 C 
ATOM      4  C   UNL     1      -2.194  -1.881  -2.242  0.00  0.00    +0.219 C 
ATOM      5  O   UNL     1      -1.712  -2.370  -3.242  0.00  0.00    -0.275 OA
ATOM      6  N   UNL     1      -2.699  -0.627  -2.286  0.00  0.00    -0.284 N 
ATOM      7  C   UNL     1      -3.178  -0.012  -1.123  0.00  0.00    +0.055 A 
ATOM      8  C   UNL     1      -4.415   0.609  -1.105  0.00  0.00    +0.025 A 
ATOM      9  C   UNL     1      -4.853   1.237   0.064  0.00  0.00    +0.002 A 
ATOM     10  C   UNL     1      -4.054   1.243   1.194  0.00  0.00    +0.002 A 
ATOM     11  C   UNL     1      -2.823   0.614   1.181  0.00  0.00    +0.025 A 
ATOM     12  C   UNL     1      -2.386  -0.024   0.030  0.00  0.00    +0.058 A 
ATOM     13  N   UNL     1      -1.156  -0.694   0.009  0.00  0.00    -0.266 N 
ATOM     14  C   UNL     1       0.002  -0.004   0.002  0.00  0.00    +0.230 C 
ATOM     15  O   UNL     1       1.061  -0.596  -0.011  0.00  0.00    -0.274 OA
ATOM     16  H   UNL     1      -2.729  -0.150  -3.130  0.00  0.00    +0.155 HD
ENDROOT
BRANCH  14  17
ATOM     17  C   UNL     1      -0.018   1.503   0.010  0.00  0.00    +0.173 C 
BRANCH  17  18
ATOM     18  S   UNL     1       1.680   2.129  -0.003  0.00  0.00    -0.078 S 
BRANCH  18  19
ATOM     19  C   UNL     1       1.366   3.863   0.010  0.00  0.00    +0.171 A 
ATOM     20  N   UNL     1       0.177   4.413   0.025  0.00  0.00    -0.222 NA
ATOM     21  C   UNL     1       0.300   5.766   0.030  0.00  0.00    +0.090 A 
ATOM     22  C   UNL     1      -0.624   6.814   0.045  0.00  0.00    +0.030 A 
ATOM     23  C   UNL     1      -0.180   8.118   0.048  0.00  0.00    +0.002 A 
ATOM     24  C   UNL     1       1.178   8.399   0.035  0.00  0.00    +0.002 A 
ATOM     25  C   UNL     1       2.103   7.375   0.020  0.00  0.00    +0.028 A 
ATOM     26  C   UNL     1       1.675   6.057   0.018  0.00  0.00    +0.070 A 
ATOM     27  N   UNL     1       2.327   4.835   0.011  0.00  0.00    -0.315 N 
BRANCH  27  28
ATOM     28  C   UNL     1       3.776   4.624   0.004  0.00  0.00    +0.151 C 
BRANCH  28  29
ATOM     29  C   UNL     1       4.267   4.560  -1.420  0.00  0.00    -0.013 C 
ATOM     30  C   UNL     1       5.223   5.362  -1.820  0.00  0.00    +0.005 C 
ENDBRANCH  28  29
ENDBRANCH  27  28
ENDBRANCH  18  19
ENDBRANCH  17  18
ENDBRANCH  14  17
TORSDOF 5
