REMARK  Name = ZINC44112335
REMARK  5 active torsions:
REMARK  status: ('A' for Active; 'I' for Inactive)
REMARK    1  A    between atoms: C_1  and  C_2
REMARK    2  A    between atoms: C_2  and  C_20
REMARK    3  A    between atoms: N_5  and  C_9
REMARK    4  A    between atoms: C_9  and  C_10
REMARK    5  A    between atoms: C_12  and  C_15
REMARK                            x       y       z     vdW  Elec       q    Type
REMARK                         _______ _______ _______ _____ _____    ______ ____
ROOT
ATOM      1  C   UNL     1      -0.019   1.526   0.010  0.00  0.00    +0.047 C 
ATOM      2  C   UNL     1       0.002  -0.004   0.002  0.00  0.00    +0.135 C 
ATOM      3  C   UNL     1      -1.403  -0.557   0.139  0.00  0.00    +0.251 C 
ATOM      4  O   UNL     1      -2.332  -0.392  -0.621  0.00  0.00    -0.272 OA
ATOM      5  N   UNL     1      -1.403  -1.272   1.282  0.00  0.00    -0.215 N 
ATOM      6  C   UNL     1      -0.206  -1.247   1.879  0.00  0.00    +0.310 C 
ATOM      7  O   UNL     1       0.040  -1.819   2.924  0.00  0.00    -0.252 OA
ATOM      8  N   UNL     1       0.695  -0.520   1.195  0.00  0.00    -0.281 N 
ATOM      9  H   UNL     1       1.621  -0.365   1.440  0.00  0.00    +0.152 HD
ENDROOT
BRANCH   2  10
ATOM     10  C   UNL     1       0.657  -0.517  -1.255  0.00  0.00    -0.015 A 
ATOM     11  C   UNL     1      -0.107  -0.772  -2.378  0.00  0.00    +0.006 A 
ATOM     12  C   UNL     1       0.495  -1.242  -3.529  0.00  0.00    +0.004 A 
ATOM     13  C   UNL     1       1.863  -1.459  -3.561  0.00  0.00    -0.044 A 
ATOM     14  C   UNL     1       2.627  -1.204  -2.438  0.00  0.00    -0.044 A 
ATOM     15  C   UNL     1       2.022  -0.727  -1.287  0.00  0.00    +0.010 A 
ATOM     16  C   UNL     1       4.079  -1.518  -2.724  0.00  0.00    +0.036 C 
ATOM     17  C   UNL     1       4.060  -2.401  -3.990  0.00  0.00    +0.009 C 
ATOM     18  C   UNL     1       2.750  -1.962  -4.680  0.00  0.00    +0.036 C 
ENDBRANCH   2  10
BRANCH   5  19
ATOM     19  C   UNL     1      -2.569  -1.986   1.805  0.00  0.00    +0.216 C 
BRANCH  19  20
ATOM     20  C   UNL     1      -2.585  -3.391   1.260  0.00  0.00    +0.246 A 
ATOM     21  N   UNL     1      -2.025  -4.428   1.814  0.00  0.00    -0.187 NA
ATOM     22  C   UNL     1      -2.234  -5.524   1.059  0.00  0.00    +0.237 A 
ATOM     23  N   UNL     1      -2.939  -5.177   0.007  0.00  0.00    -0.053 NA
ATOM     24  O   UNL     1      -3.181  -3.783   0.126  0.00  0.00    -0.336 OA
BRANCH  22  25
ATOM     25  C   UNL     1      -1.752  -6.886   1.364  0.00  0.00    +0.175 A 
ATOM     26  C   UNL     1      -1.956  -7.994   0.602  0.00  0.00    +0.053 A 
ATOM     27  C   UNL     1      -1.325  -9.064   1.265  0.00  0.00    +0.042 A 
ATOM     28  C   UNL     1      -0.772  -8.562   2.388  0.00  0.00    +0.196 A 
ATOM     29  O   UNL     1      -1.028  -7.246   2.441  0.00  0.00    -0.460 OA
ENDBRANCH  22  25
ENDBRANCH  19  20
ENDBRANCH   5  19
TORSDOF 4
