REMARK  Name = ZINC22109259
REMARK  8 active torsions:
REMARK  status: ('A' for Active; 'I' for Inactive)
REMARK    1  A    between atoms: C_1  and  C_2
REMARK    2  A    between atoms: C_9  and  C_16
REMARK    3  A    between atoms: C_11  and  O_12
REMARK    4  A    between atoms: C_16  and  S_17
REMARK    5  A    between atoms: S_17  and  C_18
REMARK    6  A    between atoms: C_21  and  C_30
REMARK    7  A    between atoms: N_22  and  C_23
REMARK    8  A    between atoms: C_23  and  C_24
REMARK                            x       y       z     vdW  Elec       q    Type
REMARK                         _______ _______ _______ _____ _____    ______ ____
ROOT
ATOM      1  S   UNL     1      -0.853   1.524   1.518  0.00  0.00    -0.081 S 
ENDROOT
BRANCH   1   2
ATOM      2  C   UNL     1       0.208   0.907   2.782  0.00  0.00    +0.192 A 
ATOM      3  N   UNL     1       1.213   0.076   2.619  0.00  0.00    -0.122 NA
ATOM      4  N   UNL     1       1.775  -0.164   3.749  0.00  0.00    -0.128 NA
ATOM      5  C   UNL     1       1.159   0.492   4.704  0.00  0.00    +0.165 A 
ATOM      6  N   UNL     1       0.136   1.198   4.114  0.00  0.00    -0.300 N 
BRANCH   5   7
ATOM      7  C   UNL     1       1.498   0.474   6.143  0.00  0.00    +0.019 A 
ATOM      8  C   UNL     1       2.748   0.016   6.562  0.00  0.00    +0.014 A 
ATOM      9  C   UNL     1       3.063   0.008   7.905  0.00  0.00    +0.039 A 
ATOM     10  C   UNL     1       2.135   0.443   8.839  0.00  0.00    +0.123 A 
ATOM     11  C   UNL     1       0.890   0.893   8.429  0.00  0.00    +0.039 A 
ATOM     12  C   UNL     1       0.568   0.911   7.088  0.00  0.00    +0.014 A 
ATOM     13  F   UNL     1       2.446   0.428  10.153  0.00  0.00    -0.205 F 
ENDBRANCH   5   7
BRANCH   6  14
ATOM     14  C   UNL     1      -0.829   2.079   4.777  0.00  0.00    +0.157 C 
BRANCH  14  15
ATOM     15  C   UNL     1      -2.069   1.273   5.169  0.00  0.00    +0.138 C 
ATOM     16  C   UNL     1      -3.081   2.175   5.920  0.00  0.00    +0.035 C 
ATOM     17  C   UNL     1      -4.411   1.423   5.640  0.00  0.00    +0.031 C 
ATOM     18  C   UNL     1      -4.179   0.866   4.219  0.00  0.00    +0.160 C 
ATOM     19  O   UNL     1      -2.765   0.826   3.994  0.00  0.00    -0.375 OA
ENDBRANCH  14  15
ENDBRANCH   6  14
ENDBRANCH   1   2
BRANCH   1  20
ATOM     20  C   UNL     1      -0.134   0.702   0.074  0.00  0.00    +0.113 C 
BRANCH  20  29
ATOM     21  C   UNL     1       0.909   6.715  -6.395  0.00  0.00    +0.109 C 
ATOM     22  C   UNL     1       0.421   5.555  -5.567  0.00  0.00    +0.214 C 
ATOM     23  O   UNL     1      -0.087   4.596  -6.108  0.00  0.00    -0.276 OA
ATOM     24  N   UNL     1       0.549   5.583  -4.226  0.00  0.00    -0.286 N 
ATOM     25  C   UNL     1       0.187   4.469  -3.467  0.00  0.00    +0.037 A 
ATOM     26  C   UNL     1       0.923   4.138  -2.329  0.00  0.00    +0.024 A 
ATOM     27  C   UNL     1       0.582   3.052  -1.577  0.00  0.00    +0.013 A 
ATOM     28  C   UNL     1      -0.514   2.264  -1.950  0.00  0.00    +0.022 A 
ATOM     29  C   UNL     1      -0.903   1.093  -1.161  0.00  0.00    -0.020 A 
ATOM     30  C   UNL     1      -1.972   0.365  -1.577  0.00  0.00    +0.092 A 
ATOM     31  C   UNL     1      -2.678   0.755  -2.735  0.00  0.00    +0.285 A 
ATOM     32  O   UNL     1      -2.317   1.830  -3.452  0.00  0.00    -0.425 OA
ATOM     33  C   UNL     1      -1.261   2.593  -3.096  0.00  0.00    +0.141 A 
ATOM     34  C   UNL     1      -0.901   3.700  -3.850  0.00  0.00    +0.070 A 
ATOM     35  H   UNL     1       0.939   6.484  -3.729  0.00  0.00    +0.155 HD
BRANCH  31  36
ATOM     36  O   UNL     1      -3.637   0.096  -3.094  0.00  0.00    -0.480 OA
ATOM     37  H   UNL     1      -4.198   0.387  -3.994  0.00  0.00    +0.295 HD
ENDBRANCH  31  36
ENDBRANCH  20  29
ENDBRANCH   1  20
TORSDOF 7
