REMARK  Name = ZINC13688358
REMARK  8 active torsions:
REMARK  status: ('A' for Active; 'I' for Inactive)
REMARK    1  A    between atoms: C_1  and  O_2
REMARK    2  A    between atoms: O_2  and  C_3
REMARK    3  A    between atoms: C_3  and  C_5
REMARK    4  A    between atoms: C_5  and  C_6
REMARK    5  A    between atoms: N_9  and  N_10
REMARK    6  A    between atoms: C_14  and  C_17
REMARK    7  A    between atoms: C_17  and  C_18
REMARK    8  A    between atoms: N_20  and  C_21
REMARK                            x       y       z     vdW  Elec       q    Type
REMARK                         _______ _______ _______ _____ _____    ______ ____
ROOT
ATOM      1  N   UNL     1       0.501  -6.182  -2.744  0.00  0.00    -0.125 NA
ATOM      2  C   UNL     1      -0.579  -6.918  -2.851  0.00  0.00    +0.183 C 
ATOM      3  N   UNL     1      -0.666  -8.292  -2.978  0.00  0.00    -0.263 N 
ATOM      4  C   UNL     1      -1.825  -8.921  -3.078  0.00  0.00    +0.233 C 
ATOM      5  C   UNL     1      -3.063  -8.039  -3.045  0.00  0.00    +0.149 C 
ATOM      6  S   UNL     1      -2.283  -6.382  -2.859  0.00  0.00    -0.075 S 
ATOM      7  O   UNL     1      -1.895 -10.126  -3.189  0.00  0.00    -0.274 OA
ATOM      8  H   UNL     1       0.152  -8.813  -2.994  0.00  0.00    +0.157 HD
ENDROOT
BRANCH   1  11
ATOM      9  C   UNL     1       1.409  -2.547  -2.368  0.00  0.00    +0.132 C 
ATOM     10  C   UNL     1       1.461  -4.061  -2.510  0.00  0.00    +0.139 C 
ATOM     11  N   UNL     1       0.391  -4.791  -2.616  0.00  0.00    -0.135 NA
ATOM     12  N   UNL     1       2.714  -4.593  -2.516  0.00  0.00    -0.262 N 
ATOM     13  C   UNL     1       3.822  -3.839  -2.406  0.00  0.00    +0.278 C 
ATOM     14  S   UNL     1       3.207  -2.167  -2.270  0.00  0.00    -0.056 S 
ATOM     15  O   UNL     1       4.980  -4.211  -2.401  0.00  0.00    -0.263 OA
ATOM     16  H   UNL     1       2.811  -5.554  -2.603  0.00  0.00    +0.157 HD
BRANCH   9  17
ATOM     17  C   UNL     1       0.684  -2.135  -1.086  0.00  0.00    +0.142 C 
BRANCH  17  18
ATOM     18  C   UNL     1       0.631  -0.631  -1.000  0.00  0.00    +0.308 C 
ATOM     19  O   UNL     1       1.124   0.042  -1.875  0.00  0.00    -0.251 OA
BRANCH  18  21
ATOM     20  C   UNL     1       0.025   1.390   0.064  0.00  0.00    +0.280 C 
ATOM     21  O   UNL     1       0.038  -0.038   0.048  0.00  0.00    -0.468 OA
ENDBRANCH  18  21
ENDBRANCH  17  18
ENDBRANCH   9  17
ENDBRANCH   1  11
BRANCH   5  22
ATOM     22  C   UNL     1      -3.946  -8.370  -1.840  0.00  0.00    +0.120 C 
BRANCH  22  23
ATOM     23  C   UNL     1      -5.217  -7.562  -1.913  0.00  0.00    +0.219 C 
ATOM     24  O   UNL     1      -5.397  -6.798  -2.837  0.00  0.00    -0.275 OA
ATOM     25  N   UNL     1      -6.152  -7.690  -0.951  0.00  0.00    -0.285 N 
ATOM     26  H   UNL     1      -6.039  -8.349  -0.249  0.00  0.00    +0.155 HD
BRANCH  25  27
ATOM     27  C   UNL     1      -7.287  -6.871  -0.966  0.00  0.00    +0.033 A 
ATOM     28  C   UNL     1      -7.843  -6.431   0.228  0.00  0.00    +0.024 A 
ATOM     29  C   UNL     1      -8.963  -5.623   0.211  0.00  0.00    +0.017 A 
ATOM     30  C   UNL     1      -9.530  -5.251  -0.995  0.00  0.00    +0.018 A 
ATOM     31  C   UNL     1      -8.979  -5.688  -2.186  0.00  0.00    +0.017 A 
ATOM     32  C   UNL     1      -7.856  -6.492  -2.175  0.00  0.00    +0.024 A 
ATOM     33 BR   UNL     1     -11.064  -4.145  -1.014  0.00  0.00    -0.050 Br
ENDBRANCH  25  27
ENDBRANCH  22  23
ENDBRANCH   5  22
TORSDOF 7
