REMARK  Name = ZINC65822281
REMARK  7 active torsions:
REMARK  status: ('A' for Active; 'I' for Inactive)
REMARK    1  A    between atoms: C_1  and  C_2
REMARK    2  A    between atoms: C_5  and  N_8
REMARK    3  A    between atoms: C_9  and  C_27
REMARK    4  A    between atoms: C_10  and  C_13
REMARK    5  A    between atoms: N_15  and  C_16
REMARK    6  A    between atoms: C_16  and  C_17
REMARK    7  A    between atoms: C_19  and  C_22
REMARK                            x       y       z     vdW  Elec       q    Type
REMARK                         _______ _______ _______ _____ _____    ______ ____
ROOT
ATOM      1  C   UNL     1       0.939  -7.475   1.152  0.00  0.00    +0.266 C 
ATOM      2  O   UNL     1       1.634  -7.378   2.146  0.00  0.00    -0.268 OA
ATOM      3  N   UNL     1       0.622  -8.693   0.669  0.00  0.00    -0.303 N 
ATOM      4  H   UNL     1       0.068  -8.771  -0.124  0.00  0.00    +0.150 HD
ENDROOT
BRANCH   1   7
ATOM      5  N   UNL     1       0.059  -4.173  -0.021  0.00  0.00    -0.216 N 
ATOM      6  C   UNL     1       0.692  -4.975   0.863  0.00  0.00    +0.074 A 
ATOM      7  C   UNL     1       0.444  -6.261   0.476  0.00  0.00    +0.170 A 
ATOM      8  N   UNL     1      -0.327  -6.234  -0.624  0.00  0.00    -0.124 NA
ATOM      9  N   UNL     1      -0.580  -5.013  -0.944  0.00  0.00    -0.060 NA
ATOM     10  C   UNL     1       1.514  -4.535   2.047  0.00  0.00    +0.068 C 
BRANCH   5  15
ATOM     11  C   UNL     1      -0.018   1.503   0.010  0.00  0.00    +0.044 C 
ATOM     12  C   UNL     1       0.002  -0.004   0.002  0.00  0.00    -0.050 A 
ATOM     13  C   UNL     1       0.006  -0.688  -1.200  0.00  0.00    +0.005 A 
ATOM     14  C   UNL     1       0.025  -2.068  -1.211  0.00  0.00    +0.028 A 
ATOM     15  C   UNL     1       0.041  -2.771  -0.013  0.00  0.00    +0.067 A 
ATOM     16  C   UNL     1       0.037  -2.082   1.192  0.00  0.00    +0.028 A 
ATOM     17  C   UNL     1       0.023  -0.700   1.196  0.00  0.00    +0.005 A 
ENDBRANCH   5  15
ENDBRANCH   1   7
BRANCH   3  18
ATOM     18  C   UNL     1       1.113  -9.898   1.340  0.00  0.00    +0.184 C 
BRANCH  18  19
ATOM     19  C   UNL     1       0.620 -11.119   0.606  0.00  0.00    +0.189 A 
ATOM     20  N   UNL     1      -0.526 -11.758   0.850  0.00  0.00    -0.190 NA
ATOM     21  C   UNL     1      -0.653 -12.780   0.031  0.00  0.00    +0.259 A 
ATOM     22  O   UNL     1       0.431 -12.812  -0.765  0.00  0.00    -0.333 OA
ATOM     23  N   UNL     1       1.242 -11.715  -0.372  0.00  0.00    -0.059 NA
BRANCH  21  24
ATOM     24  C   UNL     1      -1.784 -13.725  -0.007  0.00  0.00    +0.046 A 
ATOM     25  C   UNL     1      -1.818 -14.819  -0.947  0.00  0.00    +0.021 A 
ATOM     26  C   UNL     1      -2.908 -15.612  -0.880  0.00  0.00    +0.046 A 
ATOM     27  S   UNL     1      -3.855 -14.875   0.435  0.00  0.00    -0.104 S 
ATOM     28  C   UNL     1      -2.840 -13.605   0.849  0.00  0.00    +0.058 A 
ENDBRANCH  21  24
ENDBRANCH  18  19
ENDBRANCH   3  18
TORSDOF 5
