REMARK  Name = ZINC13023251
REMARK  12 active torsions:
REMARK  status: ('A' for Active; 'I' for Inactive)
REMARK    1  A    between atoms: C_1  and  C_2
REMARK    2  A    between atoms: C_2  and  O_3
REMARK    3  A    between atoms: O_3  and  C_4
REMARK    4  A    between atoms: C_4  and  C_6
REMARK    5  A    between atoms: C_11  and  C_13
REMARK    6  A    between atoms: C_11  and  C_27
REMARK    7  A    between atoms: C_11  and  N_72
REMARK    8  A    between atoms: C_16  and  C_26
REMARK    9  A    between atoms: C_18  and  C_25
REMARK   10  A    between atoms: N_31  and  C_32
REMARK   11  A    between atoms: C_32  and  C_33
REMARK   12  A    between atoms: C_33  and  C_34
REMARK                            x       y       z     vdW  Elec       q    Type
REMARK                         _______ _______ _______ _____ _____    ______ ____
ROOT
ATOM      1  C   UNL     1       4.969  -2.783  -0.062  0.00  0.00    +0.039 C 
ENDROOT
BRANCH   1   2
ATOM      2  C   UNL     1       3.673  -2.013  -0.045  0.00  0.00    +0.011 A 
ATOM      3  C   UNL     1       3.693  -0.658  -0.037  0.00  0.00    +0.018 A 
ATOM      4  C   UNL     1       2.417   0.060  -0.021  0.00  0.00    +0.002 A 
ATOM      5  C   UNL     1       2.374   1.459  -0.012  0.00  0.00    -0.041 A 
ATOM      6  C   UNL     1       1.167   2.099   0.002  0.00  0.00    +0.007 A 
ATOM      7  C   UNL     1      -0.017   1.374   0.010  0.00  0.00    -0.048 A 
ATOM      8  C   UNL     1       0.002  -0.004   0.002  0.00  0.00    +0.029 A 
ATOM      9  C   UNL     1       1.219  -0.678  -0.013  0.00  0.00    +0.050 A 
ATOM     10  N   UNL     1       1.267  -2.055  -0.021  0.00  0.00    -0.322 N 
ATOM     11  H   UNL     1       0.441  -2.563  -0.016  0.00  0.00    +0.169 HD
ATOM     12  C   UNL     1       2.444  -2.706  -0.036  0.00  0.00    +0.251 A 
ATOM     13  O   UNL     1       2.449  -3.925  -0.043  0.00  0.00    -0.268 OA
ATOM     14  C   UNL     1      -1.336   2.102   0.020  0.00  0.00    +0.044 C 
ATOM     15  C   UNL     1       3.653   2.255  -0.019  0.00  0.00    +0.044 C 
ENDBRANCH   1   2
BRANCH   1  21
ATOM     16  C   UNL     1       5.960  -4.876   3.533  0.00  0.00    +0.094 C 
ATOM     17  C   UNL     1       6.178  -5.557   2.179  0.00  0.00    -0.004 C 
ATOM     18  C   UNL     1       6.246  -4.492   1.082  0.00  0.00    -0.077 C 
ATOM     19  C   UNL     1       4.788  -3.021   2.340  0.00  0.00    -0.077 C 
ATOM     20  C   UNL     1       4.676  -4.043   3.474  0.00  0.00    -0.004 C 
ATOM     21  N   UNL     1       4.972  -3.741   1.062  0.00  0.00    +0.389 N 
ATOM     22  H   UNL     1       4.197  -4.404   0.939  0.00  0.00    -0.080 HD
BRANCH  16  23
ATOM     23  C   UNL     1       5.833  -5.923   4.609  0.00  0.00    +0.310 C 
ATOM     24  O   UNL     1       5.910  -7.095   4.324  0.00  0.00    -0.251 OA
BRANCH  23  25
ATOM     25  O   UNL     1       5.636  -5.554   5.884  0.00  0.00    -0.465 OA
BRANCH  25  27
ATOM     26  C   UNL     1       5.303  -6.007   8.254  0.00  0.00    +0.048 C 
ATOM     27  C   UNL     1       5.524  -6.617   6.868  0.00  0.00    +0.229 C 
ENDBRANCH  25  27
ENDBRANCH  23  25
ENDBRANCH  16  23
ENDBRANCH   1  21
BRANCH   1  28
ATOM     28  C   UNL     1       5.081  -3.549  -1.355  0.00  0.00    +0.142 A 
ATOM     29  N   UNL     1       4.432  -4.641  -1.677  0.00  0.00    -0.115 NA
ATOM     30  N   UNL     1       4.800  -4.988  -2.862  0.00  0.00    -0.023 NA
ATOM     31  N   UNL     1       5.667  -4.146  -3.304  0.00  0.00    -0.044 NA
ATOM     32  N   UNL     1       5.862  -3.240  -2.407  0.00  0.00    -0.230 N 
BRANCH  32  33
ATOM     33  C   UNL     1       6.768  -2.093  -2.511  0.00  0.00    +0.152 C 
BRANCH  33  34
ATOM     34  C   UNL     1       8.151  -2.486  -1.986  0.00  0.00    +0.058 C 
BRANCH  34  35
ATOM     35  C   UNL     1       9.082  -1.306  -2.093  0.00  0.00    -0.046 A 
ATOM     36  C   UNL     1       9.832  -1.119  -3.239  0.00  0.00    +0.004 A 
ATOM     37  C   UNL     1      10.682  -0.034  -3.339  0.00  0.00    +0.000 A 
ATOM     38  C   UNL     1      10.792   0.858  -2.289  0.00  0.00    +0.000 A 
ATOM     39  C   UNL     1      10.047   0.667  -1.140  0.00  0.00    +0.000 A 
ATOM     40  C   UNL     1       9.192  -0.415  -1.042  0.00  0.00    +0.004 A 
ENDBRANCH  34  35
ENDBRANCH  33  34
ENDBRANCH  32  33
ENDBRANCH   1  28
TORSDOF 9
