REMARK  Name = ZINC09866523
REMARK  7 active torsions:
REMARK  status: ('A' for Active; 'I' for Inactive)
REMARK    1  A    between atoms: C_1  and  C_2
REMARK    2  A    between atoms: C_2  and  C_27
REMARK    3  A    between atoms: N_5  and  C_9
REMARK    4  A    between atoms: C_9  and  C_10
REMARK    5  A    between atoms: N_12  and  C_13
REMARK    6  A    between atoms: C_13  and  C_15
REMARK    7  A    between atoms: C_13  and  C_22
REMARK                            x       y       z     vdW  Elec       q    Type
REMARK                         _______ _______ _______ _____ _____    ______ ____
ROOT
ATOM      1  C   UNL     1       5.473   1.498  -7.514  0.00  0.00    +0.047 C 
ATOM      2  C   UNL     1       4.391   1.122  -6.500  0.00  0.00    +0.135 C 
ATOM      3  C   UNL     1       4.902   1.305  -5.084  0.00  0.00    +0.251 C 
ATOM      4  O   UNL     1       5.838   0.736  -4.565  0.00  0.00    -0.272 OA
ATOM      5  N   UNL     1       4.098   2.229  -4.523  0.00  0.00    -0.215 N 
ATOM      6  C   UNL     1       3.165   2.657  -5.380  0.00  0.00    +0.310 C 
ATOM      7  O   UNL     1       2.327   3.493  -5.105  0.00  0.00    -0.252 OA
ATOM      8  N   UNL     1       3.257   2.058  -6.581  0.00  0.00    -0.281 N 
ATOM      9  H   UNL     1       2.687   2.212  -7.351  0.00  0.00    +0.152 HD
ENDROOT
BRANCH   2  10
ATOM     10  C   UNL     1       3.927  -0.294  -6.722  0.00  0.00    -0.012 A 
ATOM     11  C   UNL     1       4.580  -1.340  -6.097  0.00  0.00    +0.010 A 
ATOM     12  C   UNL     1       4.156  -2.641  -6.294  0.00  0.00    +0.050 A 
ATOM     13  C   UNL     1       3.080  -2.900  -7.127  0.00  0.00    +0.166 A 
ATOM     14  C   UNL     1       2.425  -1.847  -7.761  0.00  0.00    +0.167 A 
ATOM     15  C   UNL     1       2.853  -0.545  -7.555  0.00  0.00    +0.055 A 
ATOM     16  O   UNL     1       1.411  -2.357  -8.520  0.00  0.00    -0.453 OA
ATOM     17  C   UNL     1       1.194  -3.691  -8.024  0.00  0.00    +0.466 C 
ATOM     18  O   UNL     1       2.476  -4.070  -7.489  0.00  0.00    -0.453 OA
ENDBRANCH   2  10
BRANCH   5  19
ATOM     19  C   UNL     1       4.234   2.710  -3.146  0.00  0.00    +0.213 C 
BRANCH  19  20
ATOM     20  C   UNL     1       3.402   1.850  -2.229  0.00  0.00    +0.232 C 
ATOM     21  O   UNL     1       2.760   0.926  -2.681  0.00  0.00    -0.274 OA
ATOM     22  N   UNL     1       3.373   2.108  -0.906  0.00  0.00    -0.303 N 
ATOM     23  H   UNL     1       3.886   2.847  -0.545  0.00  0.00    +0.150 HD
BRANCH  22  24
ATOM     24  C   UNL     1       2.565   1.272  -0.015  0.00  0.00    +0.140 C 
BRANCH  24  25
ATOM     25  C   UNL     1       3.134   1.328   1.379  0.00  0.00    -0.022 A 
ATOM     26  C   UNL     1       3.610   2.524   1.883  0.00  0.00    +0.008 A 
ATOM     27  C   UNL     1       4.127   2.577   3.164  0.00  0.00    +0.038 A 
ATOM     28  C   UNL     1       4.179   1.430   3.937  0.00  0.00    +0.123 A 
ATOM     29  C   UNL     1       3.707   0.232   3.429  0.00  0.00    +0.038 A 
ATOM     30  C   UNL     1       3.185   0.182   2.151  0.00  0.00    +0.008 A 
ATOM     31  F   UNL     1       4.689   1.480   5.187  0.00  0.00    -0.205 F 
ENDBRANCH  24  25
BRANCH  24  32
ATOM     32  C   UNL     1       1.146   1.780   0.001  0.00  0.00    +0.014 A 
ATOM     33  C   UNL     1      -0.013   1.076   0.008  0.00  0.00    +0.013 A 
ATOM     34  C   UNL     1      -1.213   1.761   0.017  0.00  0.00    +0.008 A 
ATOM     35  C   UNL     1      -1.196   3.116   0.030  0.00  0.00    +0.045 A 
ATOM     36  S   UNL     1       0.555   3.464   0.015  0.00  0.00    -0.099 S 
ENDBRANCH  24  32
ENDBRANCH  22  24
ENDBRANCH  19  20
ENDBRANCH   5  19
TORSDOF 6
