REMARK  Name = ZINC08744681
REMARK  9 active torsions:
REMARK  status: ('A' for Active; 'I' for Inactive)
REMARK    1  A    between atoms: C_1  and  N_2
REMARK    2  A    between atoms: N_2  and  S_3
REMARK    3  A    between atoms: S_3  and  C_6
REMARK    4  A    between atoms: C_9  and  N_12
REMARK    5  A    between atoms: C_13  and  C_15
REMARK    6  A    between atoms: C_15  and  C_17
REMARK    7  A    between atoms: C_15  and  N_28
REMARK    8  A    between atoms: C_17  and  C_18
REMARK    9  A    between atoms: C_29  and  C_31
REMARK                            x       y       z     vdW  Elec       q    Type
REMARK                         _______ _______ _______ _____ _____    ______ ____
ROOT
ATOM      1  C   UNL     1      -3.504   4.578   6.712  0.00  0.00    +0.164 C 
ENDROOT
BRANCH   1   3
ATOM      2  N   UNL     1      -3.077   3.043   4.819  0.00  0.00    -0.284 N 
ATOM      3  C   UNL     1      -2.806   4.216   5.426  0.00  0.00    +0.238 C 
ATOM      4  O   UNL     1      -2.000   4.979   4.938  0.00  0.00    -0.273 OA
ATOM      5  H   UNL     1      -3.770   2.463   5.173  0.00  0.00    +0.155 HD
BRANCH   2   9
ATOM      6  C   UNL     1      -0.941   1.911   1.427  0.00  0.00    +0.105 A 
ATOM      7  C   UNL     1      -1.351   0.953   2.336  0.00  0.00    +0.030 A 
ATOM      8  C   UNL     1      -2.055   1.325   3.464  0.00  0.00    +0.025 A 
ATOM      9  C   UNL     1      -2.360   2.663   3.680  0.00  0.00    +0.034 A 
ATOM     10  C   UNL     1      -1.951   3.622   2.763  0.00  0.00    +0.025 A 
ATOM     11  C   UNL     1      -1.243   3.243   1.639  0.00  0.00    +0.030 A 
BRANCH   6  12
ATOM     12  S   UNL     1      -0.037   1.432  -0.007  0.00  0.00    +0.058 S 
ATOM     13  O   UNL     1      -0.247   2.448  -0.978  0.00  0.00    -0.153 OA
ATOM     14  O   UNL     1      -0.354   0.068  -0.251  0.00  0.00    -0.153 OA
BRANCH  12  16
ATOM     15  C   UNL     1       2.106   0.560   1.395  0.00  0.00    +0.127 C 
ATOM     16  N   UNL     1       1.571   1.480   0.388  0.00  0.00    -0.193 NA
ATOM     17  H   UNL     1       2.158   2.117  -0.048  0.00  0.00    +0.148 HD
ENDBRANCH  12  16
ENDBRANCH   6  12
ENDBRANCH   2   9
ENDBRANCH   1   3
BRANCH   1  18
ATOM     18  N   UNL     1      -3.427   6.027   6.917  0.00  0.00    -0.299 N 
ATOM     19  C   UNL     1      -2.226   6.630   7.018  0.00  0.00    +0.251 C 
ATOM     20  O   UNL     1      -1.206   5.972   6.938  0.00  0.00    -0.270 OA
ATOM     21  H   UNL     1      -4.240   6.551   6.981  0.00  0.00    +0.150 HD
BRANCH  19  22
ATOM     22  C   UNL     1      -2.149   8.079   7.224  0.00  0.00    +0.074 A 
ATOM     23  C   UNL     1      -1.029   8.885   7.352  0.00  0.00    +0.021 A 
ATOM     24  C   UNL     1      -1.242  10.228   7.538  0.00  0.00    +0.008 A 
ATOM     25  C   UNL     1      -2.517  10.696   7.588  0.00  0.00    +0.046 A 
ATOM     26  S   UNL     1      -3.473   9.267   7.367  0.00  0.00    -0.092 S 
ENDBRANCH  19  22
ENDBRANCH   1  18
BRANCH   1  27
ATOM     27  C   UNL     1      -2.826   3.860   7.880  0.00  0.00    +0.069 C 
BRANCH  27  28
ATOM     28  C   UNL     1      -3.598   4.125   9.148  0.00  0.00    -0.020 A 
ATOM     29  C   UNL     1      -3.339   5.079  10.056  0.00  0.00    +0.087 A 
ATOM     30  N   UNL     1      -4.253   5.016  11.072  0.00  0.00    -0.360 N 
ATOM     31  H   UNL     1      -4.272   5.605  11.842  0.00  0.00    +0.165 HD
ATOM     32  C   UNL     1      -5.140   3.988  10.841  0.00  0.00    +0.047 A 
ATOM     33  C   UNL     1      -4.769   3.385   9.626  0.00  0.00    +0.003 A 
ATOM     34  C   UNL     1      -5.499   2.301   9.134  0.00  0.00    +0.010 A 
ATOM     35  C   UNL     1      -6.573   1.832   9.836  0.00  0.00    +0.001 A 
ATOM     36  C   UNL     1      -6.943   2.424  11.036  0.00  0.00    +0.002 A 
ATOM     37  C   UNL     1      -6.236   3.494  11.540  0.00  0.00    +0.026 A 
ENDBRANCH  27  28
ENDBRANCH   1  27
TORSDOF 8
