REMARK  Name = ZINC08748764
REMARK  8 active torsions:
REMARK  status: ('A' for Active; 'I' for Inactive)
REMARK    1  A    between atoms: N_9  and  C_12
REMARK    2  A    between atoms: C_12  and  C_13
REMARK    3  A    between atoms: N_15  and  C_16
REMARK    4  A    between atoms: N_15  and  C_22
REMARK    5  A    between atoms: C_16  and  C_17
REMARK    6  A    between atoms: C_22  and  C_24
REMARK    7  A    between atoms: C_22  and  C_29
REMARK    8  A    between atoms: N_31  and  C_32
REMARK                            x       y       z     vdW  Elec       q    Type
REMARK                         _______ _______ _______ _____ _____    ______ ____
ROOT
ATOM      1  C   UNL     1      -3.867   7.784  -2.010  0.00  0.00    +0.235 C 
ATOM      2  O   UNL     1      -4.393   7.207  -1.082  0.00  0.00    -0.274 OA
ATOM      3  N   UNL     1      -2.523   7.866  -2.078  0.00  0.00    -0.276 N 
ENDROOT
BRANCH   1   4
ATOM      4  C   UNL     1      -4.715   8.409  -3.087  0.00  0.00    +0.213 C 
BRANCH   4  13
ATOM      5  C   UNL     1     -10.576   8.072  -1.488  0.00  0.00    +0.001 A 
ATOM      6  C   UNL     1     -10.540   6.889  -2.203  0.00  0.00    +0.001 A 
ATOM      7  C   UNL     1      -9.367   6.471  -2.811  0.00  0.00    +0.014 A 
ATOM      8  C   UNL     1      -8.223   7.245  -2.702  0.00  0.00    +0.049 A 
ATOM      9  C   UNL     1      -8.259   8.451  -1.973  0.00  0.00    +0.049 A 
ATOM     10  C   UNL     1      -9.439   8.856  -1.370  0.00  0.00    +0.014 A 
ATOM     11  C   UNL     1      -6.896   9.015  -2.056  0.00  0.00    +0.254 C 
ATOM     12  O   UNL     1      -6.527  10.056  -1.550  0.00  0.00    -0.270 OA
ATOM     13  N   UNL     1      -6.131   8.183  -2.786  0.00  0.00    -0.225 N 
ATOM     14  C   UNL     1      -6.839   7.120  -3.207  0.00  0.00    +0.254 C 
ATOM     15  O   UNL     1      -6.413   6.209  -3.887  0.00  0.00    -0.270 OA
ENDBRANCH   4  13
ENDBRANCH   1   4
BRANCH   3  16
ATOM     16  C   UNL     1      -1.887   8.562  -3.199  0.00  0.00    +0.183 C 
BRANCH  16  17
ATOM     17  C   UNL     1      -1.530   7.566  -4.272  0.00  0.00    +0.122 A 
ATOM     18  C   UNL     1      -2.288   7.250  -5.337  0.00  0.00    +0.046 A 
ATOM     19  C   UNL     1      -1.573   6.280  -6.076  0.00  0.00    +0.041 A 
ATOM     20  C   UNL     1      -0.420   6.061  -5.418  0.00  0.00    +0.195 A 
ATOM     21  O   UNL     1      -0.397   6.847  -4.329  0.00  0.00    -0.466 OA
ENDBRANCH  16  17
ENDBRANCH   3  16
BRANCH   3  22
ATOM     22  C   UNL     1      -1.698   7.258  -1.031  0.00  0.00    +0.213 C 
BRANCH  22  23
ATOM     23  C   UNL     1      -1.985   7.930   0.287  0.00  0.00    +0.101 A 
ATOM     24  C   UNL     1      -1.097   7.948   1.319  0.00  0.00    +0.094 A 
ATOM     25  S   UNL     1      -1.985   8.841   2.507  0.00  0.00    +0.028 S 
ATOM     26  N   UNL     1      -3.310   9.100   1.689  0.00  0.00    -0.110 NA
ATOM     27  N   UNL     1      -3.120   8.545   0.546  0.00  0.00    -0.144 NA
ENDBRANCH  22  23
BRANCH  22  28
ATOM     28  C   UNL     1      -2.019   5.790  -0.927  0.00  0.00    +0.240 C 
ATOM     29  O   UNL     1      -2.855   5.298  -1.656  0.00  0.00    -0.273 OA
ATOM     30  N   UNL     1      -1.378   5.022  -0.024  0.00  0.00    -0.308 N 
ATOM     31  H   UNL     1      -0.710   5.414   0.559  0.00  0.00    +0.149 HD
BRANCH  30  32
ATOM     32  C   UNL     1      -1.690   3.594   0.077  0.00  0.00    +0.035 C 
ATOM     33  C   UNL     1      -1.399   2.912  -1.261  0.00  0.00    +0.029 C 
ATOM     34  C   UNL     1      -1.725   1.421  -1.156  0.00  0.00    -0.008 C 
ATOM     35  C   UNL     1      -0.863   0.787  -0.062  0.00  0.00    +0.007 C 
ATOM     36  C   UNL     1      -1.155   1.468   1.276  0.00  0.00    -0.008 C 
ATOM     37  C   UNL     1      -0.829   2.959   1.171  0.00  0.00    +0.029 C 
ATOM     38  C   UNL     1      -2.634   1.293   1.626  0.00  0.00    +0.007 C 
ATOM     39  C   UNL     1      -3.495   1.928   0.532  0.00  0.00    -0.008 C 
ATOM     40  C   UNL     1      -3.204   1.246  -0.806  0.00  0.00    +0.007 C 
ATOM     41  C   UNL     1      -3.169   3.419   0.427  0.00  0.00    +0.029 C 
ENDBRANCH  30  32
ENDBRANCH  22  28
ENDBRANCH   3  22
TORSDOF 8
