REMARK  Name = ZINC39695529
REMARK  10 active torsions:
REMARK  status: ('A' for Active; 'I' for Inactive)
REMARK    1  A    between atoms: C_1  and  C_2
REMARK    2  A    between atoms: C_2  and  C_3
REMARK    3  A    between atoms: C_3  and  C_4
REMARK    4  A    between atoms: C_3  and  C_6
REMARK    5  A    between atoms: C_4  and  C_5
REMARK    6  A    between atoms: C_10  and  C_19
REMARK    7  A    between atoms: N_21  and  C_22
REMARK    8  A    between atoms: C_22  and  C_23
REMARK    9  A    between atoms: N_28  and  C_29
REMARK   10  A    between atoms: C_29  and  C_30
REMARK                            x       y       z     vdW  Elec       q    Type
REMARK                         _______ _______ _______ _____ _____    ______ ____
ROOT
ATOM      1  C   UNL     1       0.948  -2.158   1.083  0.00  0.00    +0.219 C 
ATOM      2  O   UNL     1       0.635  -2.719   0.054  0.00  0.00    -0.275 OA
ATOM      3  N   UNL     1       1.440  -2.869   2.116  0.00  0.00    -0.300 N 
ATOM      4  C   UNL     1       1.958  -2.357   3.407  0.00  0.00    +0.121 C 
ATOM      5  C   UNL     1       1.446  -3.365   4.460  0.00  0.00    +0.100 C 
ATOM      6  C   UNL     1       1.207  -4.665   3.675  0.00  0.00    -0.004 C 
ATOM      7  C   UNL     1       1.581  -4.341   2.221  0.00  0.00    +0.115 C 
ATOM      8  C   UNL     1       2.097  -5.781   4.214  0.00  0.00    -0.010 C 
ATOM      9  C   UNL     1       1.799  -7.077   3.456  0.00  0.00    -0.082 C 
ATOM     10  N   UNL     1       0.384  -7.430   3.623  0.00  0.00    +0.379 N 
ATOM     11  C   UNL     1      -0.465  -6.395   3.018  0.00  0.00    -0.082 C 
ATOM     12  C   UNL     1      -0.262  -5.070   3.758  0.00  0.00    -0.010 C 
ATOM     13  H   UNL     1       0.204  -8.315   3.174  0.00  0.00    -0.086 HD
ATOM     14  H   UNL     1       0.171  -7.505   4.606  0.00  0.00    -0.086 HD
ENDROOT
BRANCH   5  15
ATOM     15  C   UNL     1       0.160  -2.876   5.074  0.00  0.00    +0.218 C 
ATOM     16  O   UNL     1      -0.630  -2.245   4.404  0.00  0.00    -0.275 OA
ATOM     17  N   UNL     1      -0.112  -3.139   6.368  0.00  0.00    -0.317 N 
ATOM     18  H   UNL     1       0.520  -3.644   6.903  0.00  0.00    +0.149 HD
BRANCH  17  19
ATOM     19  C   UNL     1      -1.363  -2.663   6.965  0.00  0.00    +0.089 C 
BRANCH  19  20
ATOM     20  C   UNL     1      -1.424  -3.094   8.432  0.00  0.00    -0.051 C 
ATOM     21  C   UNL     1      -2.806  -2.746   9.024  0.00  0.00    -0.016 C 
ATOM     22  C   UNL     1      -3.582  -4.084   8.907  0.00  0.00    -0.020 C 
ATOM     23  C   UNL     1      -2.463  -5.120   9.180  0.00  0.00    -0.078 C 
ATOM     24  N   UNL     1      -1.256  -4.555   8.533  0.00  0.00    +0.382 N 
ATOM     25  H   UNL     1      -1.148  -4.949   7.611  0.00  0.00    -0.081 HD
BRANCH  24  26
ATOM     26  C   UNL     1      -0.069  -4.861   9.342  0.00  0.00    -0.082 C 
ATOM     27  C   UNL     1       0.173  -6.372   9.341  0.00  0.00    -0.017 C 
ENDBRANCH  24  26
ENDBRANCH  19  20
ENDBRANCH  17  19
ENDBRANCH   5  15
BRANCH   1  28
ATOM     28  C   UNL     1       0.786  -0.664   1.205  0.00  0.00    +0.075 C 
BRANCH  28  30
ATOM     29  C   UNL     1       1.913   1.539   0.866  0.00  0.00    +0.004 C 
ATOM     30  C   UNL     1       2.021   0.032   0.629  0.00  0.00    +0.009 C 
ENDBRANCH  28  30
BRANCH  28  31
ATOM     31  C   UNL     1      -0.457  -0.221   0.431  0.00  0.00    +0.009 C 
ATOM     32  C   UNL     1      -1.706  -0.807   1.092  0.00  0.00    +0.004 C 
ENDBRANCH  28  31
ENDBRANCH   1  28
TORSDOF 7
