REMARK  Name = ZINC43877154
REMARK  6 active torsions:
REMARK  status: ('A' for Active; 'I' for Inactive)
REMARK    1  A    between atoms: C_1  and  C_2
REMARK    2  A    between atoms: C_2  and  C_4
REMARK    3  A    between atoms: C_2  and  N_13
REMARK    4  A    between atoms: N_16  and  N_17
REMARK    5  A    between atoms: C_18  and  C_20
REMARK    6  A    between atoms: C_20  and  C_21
REMARK                            x       y       z     vdW  Elec       q    Type
REMARK                         _______ _______ _______ _____ _____    ______ ____
ROOT
ATOM      1  N   UNL     1       0.711  -0.489   1.189  0.00  0.00    -0.289 N 
ATOM      2  C   UNL     1       0.051  -0.633   2.355  0.00  0.00    +0.316 C 
ATOM      3  O   UNL     1      -1.132  -0.361   2.423  0.00  0.00    -0.251 OA
ATOM      4  N   UNL     1       0.703  -1.080   3.447  0.00  0.00    -0.218 N 
ATOM      5  H   UNL     1       1.654  -0.707   1.135  0.00  0.00    +0.151 HD
ATOM      6  H   UNL     1       0.229  -1.184   4.287  0.00  0.00    +0.174 HD
ENDROOT
BRANCH   4   7
ATOM      7  N   UNL     1       2.066  -1.394   3.370  0.00  0.00    -0.233 N 
ATOM      8  C   UNL     1       2.718  -1.841   4.462  0.00  0.00    +0.234 C 
ATOM      9  O   UNL     1       2.125  -1.970   5.511  0.00  0.00    -0.274 OA
ATOM     10  H   UNL     1       2.541  -1.290   2.530  0.00  0.00    +0.173 HD
BRANCH   8  11
ATOM     11  C   UNL     1       4.184  -2.179   4.378  0.00  0.00    +0.134 C 
BRANCH  11  12
ATOM     12  C   UNL     1       4.668  -2.651   5.725  0.00  0.00    -0.014 A 
ATOM     13  C   UNL     1       5.254  -1.900   6.671  0.00  0.00    +0.087 A 
ATOM     14  N   UNL     1       5.557  -2.673   7.759  0.00  0.00    -0.360 N 
ATOM     15  H   UNL     1       5.985  -2.353   8.568  0.00  0.00    +0.165 HD
ATOM     16  C   UNL     1       5.162  -3.973   7.534  0.00  0.00    +0.047 A 
ATOM     17  C   UNL     1       4.583  -4.015   6.252  0.00  0.00    +0.003 A 
ATOM     18  C   UNL     1       4.082  -5.219   5.753  0.00  0.00    +0.010 A 
ATOM     19  C   UNL     1       4.155  -6.351   6.515  0.00  0.00    +0.001 A 
ATOM     20  C   UNL     1       4.721  -6.314   7.781  0.00  0.00    +0.002 A 
ATOM     21  C   UNL     1       5.230  -5.139   8.290  0.00  0.00    +0.026 A 
ENDBRANCH  11  12
ENDBRANCH   8  11
ENDBRANCH   4   7
BRANCH   1  23
ATOM     22  C   UNL     1      -0.019   1.526   0.010  0.00  0.00    +0.036 C 
ATOM     23  C   UNL     1       0.002  -0.004   0.002  0.00  0.00    +0.137 C 
BRANCH  23  24
ATOM     24  C   UNL     1       0.707  -0.490  -1.238  0.00  0.00    +0.126 A 
ATOM     25  C   UNL     1       0.096  -0.923  -2.349  0.00  0.00    +0.055 A 
ATOM     26  C   UNL     1       1.163  -1.291  -3.287  0.00  0.00    +0.020 A 
ATOM     27  C   UNL     1       1.188  -1.799  -4.585  0.00  0.00    +0.011 A 
ATOM     28  C   UNL     1       2.387  -2.040  -5.196  0.00  0.00    +0.001 A 
ATOM     29  C   UNL     1       3.578  -1.783  -4.531  0.00  0.00    +0.004 A 
ATOM     30  C   UNL     1       3.573  -1.281  -3.248  0.00  0.00    +0.047 A 
ATOM     31  C   UNL     1       2.365  -1.028  -2.609  0.00  0.00    +0.135 A 
ATOM     32  O   UNL     1       2.042  -0.547  -1.392  0.00  0.00    -0.458 OA
ENDBRANCH  23  24
ENDBRANCH   1  23
TORSDOF 5
