REMARK  Name = ZINC22504839
REMARK  3 active torsions:
REMARK  status: ('A' for Active; 'I' for Inactive)
REMARK    1  A    between atoms: C_4  and  C_7
REMARK    2  A    between atoms: C_9  and  C_13
REMARK    3  A    between atoms: C_16  and  C_21
REMARK                            x       y       z     vdW  Elec       q    Type
REMARK                         _______ _______ _______ _____ _____    ______ ____
ROOT
ATOM      1  C   UNL     1       3.391  -1.539  -0.039  0.00  0.00    +0.150 A 
ATOM      2  N   UNL     1       2.081  -1.577  -0.027  0.00  0.00    -0.154 NA
ATOM      3  N   UNL     1       1.329  -0.409  -0.013  0.00  0.00    -0.185 N 
ATOM      4  C   UNL     1       0.002  -0.004   0.002  0.00  0.00    +0.186 A 
ATOM      5  N   UNL     1      -0.016   1.309   0.009  0.00  0.00    -0.126 NA
ATOM      6  N   UNL     1       1.189   1.764   0.000  0.00  0.00    -0.120 NA
ATOM      7  C   UNL     1       2.030   0.772  -0.013  0.00  0.00    +0.219 A 
ATOM      8  S   UNL     1       3.716   0.217  -0.032  0.00  0.00    -0.025 S 
ENDROOT
BRANCH   4   9
ATOM      9  C   UNL     1      -1.179  -0.891   0.009  0.00  0.00    +0.024 A 
ATOM     10  C   UNL     1      -2.443  -0.378  -0.290  0.00  0.00    +0.012 A 
ATOM     11  C   UNL     1      -3.543  -1.211  -0.282  0.00  0.00    +0.003 A 
ATOM     12  C   UNL     1      -3.397  -2.553   0.020  0.00  0.00    +0.038 A 
ATOM     13  C   UNL     1      -2.146  -3.070   0.317  0.00  0.00    +0.124 A 
ATOM     14  C   UNL     1      -1.036  -2.247   0.307  0.00  0.00    +0.050 A 
ATOM     15  F   UNL     1      -2.011  -4.382   0.611  0.00  0.00    -0.205 F 
ENDBRANCH   4   9
BRANCH   1  18
ATOM     16  C   UNL     1       6.240  -3.858  -0.079  0.00  0.00    +0.093 A 
ATOM     17  C   UNL     1       5.712  -2.557  -0.067  0.00  0.00    +0.060 A 
ATOM     18  C   UNL     1       4.350  -2.659  -0.054  0.00  0.00    +0.093 A 
ATOM     19  N   UNL     1       4.039  -3.989  -0.051  0.00  0.00    -0.274 N 
ATOM     20  H   UNL     1       2.986  -4.307  -0.035  0.00  0.00    +0.189 HD
ATOM     21  N   UNL     1       5.238  -4.712  -0.073  0.00  0.00    -0.173 NA
BRANCH  16  25
ATOM     22  C   UNL     1      10.371  -4.867  -0.127  0.00  0.00    +0.000 A 
ATOM     23  C   UNL     1       9.417  -5.868  -0.121  0.00  0.00    +0.001 A 
ATOM     24  C   UNL     1       8.075  -5.546  -0.106  0.00  0.00    +0.010 A 
ATOM     25  C   UNL     1       7.682  -4.210  -0.095  0.00  0.00    +0.002 A 
ATOM     26  C   UNL     1       8.647  -3.205  -0.106  0.00  0.00    +0.010 A 
ATOM     27  C   UNL     1       9.986  -3.538  -0.116  0.00  0.00    +0.001 A 
ENDBRANCH  16  25
ENDBRANCH   1  18
TORSDOF 3
