REMARK  Name = ZINC37465946
REMARK  8 active torsions:
REMARK  status: ('A' for Active; 'I' for Inactive)
REMARK    1  A    between atoms: C_1  and  C_2
REMARK    2  A    between atoms: C_2  and  C_4
REMARK    3  A    between atoms: C_2  and  N_7
REMARK    4  A    between atoms: C_4  and  O_5
REMARK    5  A    between atoms: O_5  and  C_6
REMARK    6  A    between atoms: N_7  and  S_8
REMARK    7  A    between atoms: S_8  and  C_11
REMARK    8  A    between atoms: C_13  and  C_17
REMARK                            x       y       z     vdW  Elec       q    Type
REMARK                         _______ _______ _______ _____ _____    ______ ____
ROOT
ATOM      1  S   UNL     1      -2.163  -0.790  -1.416  0.00  0.00    +0.060 S 
ATOM      2  O   UNL     1      -1.418  -1.681  -2.234  0.00  0.00    -0.153 OA
ATOM      3  O   UNL     1      -3.486  -1.077  -0.985  0.00  0.00    -0.153 OA
ENDROOT
BRANCH   1   4
ATOM      4  C   UNL     1      -2.236   0.744  -2.279  0.00  0.00    +0.127 A 
ATOM      5  C   UNL     1      -1.664   0.873  -3.519  0.00  0.00    +0.052 A 
ATOM      6  C   UNL     1      -1.780   2.125  -4.110  0.00  0.00    +0.103 A 
ATOM      7  S   UNL     1      -2.689   3.031  -2.873  0.00  0.00    -0.073 S 
ATOM      8  C   UNL     1      -2.865   1.815  -1.728  0.00  0.00    +0.082 A 
ATOM      9 BR   UNL     1      -3.737   1.915  -0.052  0.00  0.00    -0.041 Br
BRANCH   6  10
ATOM     10  C   UNL     1      -1.302   2.566  -5.368  0.00  0.00    +0.393 C 
ATOM     11  O   UNL     1      -0.689   1.794  -6.096  0.00  0.00    -0.240 OA
ATOM     12  O   UNL     1      -1.500   3.720  -5.729  0.00  0.00    -0.240 OA
ENDBRANCH   6  10
ENDBRANCH   1   4
BRANCH   1  13
ATOM     13  N   UNL     1      -1.264  -0.540  -0.048  0.00  0.00    -0.185 NA
ATOM     14  H   UNL     1      -1.677  -0.621   0.826  0.00  0.00    +0.148 HD
BRANCH  13  16
ATOM     15  C   UNL     1       0.320   1.323  -0.075  0.00  0.00    +0.028 C 
ATOM     16  C   UNL     1       0.156  -0.196  -0.157  0.00  0.00    +0.099 C 
BRANCH  16  17
ATOM     17  C   UNL     1       0.930  -0.855   0.986  0.00  0.00    +0.179 C 
BRANCH  17  18
ATOM     18  O   UNL     1       0.502  -0.302   2.232  0.00  0.00    -0.381 OA
ATOM     19  C   UNL     1       1.167  -0.852   3.371  0.00  0.00    +0.194 C 
ENDBRANCH  17  18
ENDBRANCH  16  17
ENDBRANCH  13  16
ENDBRANCH   1  13
TORSDOF 6
