REMARK  Name = ZINC65248228
REMARK  5 active torsions:
REMARK  status: ('A' for Active; 'I' for Inactive)
REMARK    1  A    between atoms: C_1  and  C_2
REMARK    2  A    between atoms: C_7  and  N_8
REMARK    3  A    between atoms: C_9  and  C_11
REMARK    4  A    between atoms: C_11  and  C_12
REMARK    5  A    between atoms: C_22  and  C_25
REMARK                            x       y       z     vdW  Elec       q    Type
REMARK                         _______ _______ _______ _____ _____    ______ ____
ROOT
ATOM      1  C   UNL     1      -0.244  -0.943   6.039  0.00  0.00    +0.218 C 
ATOM      2  N   UNL     1      -1.437  -1.793   5.888  0.00  0.00    -0.174 NA
ATOM      3  N   UNL     1      -2.101  -2.209   6.840  0.00  0.00    -0.082 NA
ATOM      4  C   UNL     1      -1.792  -1.960   8.138  0.00  0.00    +0.272 C 
ATOM      5  O   UNL     1      -2.520  -2.300   9.040  0.00  0.00    -0.270 OA
ATOM      6  C   UNL     1      -0.501  -1.242   8.393  0.00  0.00    +0.166 C 
ATOM      7  N   UNL     1      -0.377  -0.234   7.297  0.00  0.00    -0.204 NA
ATOM      8  N   UNL     1       0.689   0.632   7.753  0.00  0.00    -0.243 NA
ATOM      9  C   UNL     1       0.371   0.869   9.193  0.00  0.00    +0.108 C 
ATOM     10  C   UNL     1      -0.469  -0.368   9.650  0.00  0.00    +0.055 C 
ATOM     11  H   UNL     1       0.696   1.499   7.237  0.00  0.00    +0.142 HD
ENDROOT
BRANCH   9  12
ATOM     12  C   UNL     1       1.641   0.954  10.000  0.00  0.00    +0.008 A 
ATOM     13  C   UNL     1       1.938   1.768  11.042  0.00  0.00    +0.013 A 
ATOM     14  C   UNL     1       3.182   1.669  11.637  0.00  0.00    +0.008 A 
ATOM     15  C   UNL     1       4.068   0.760  11.161  0.00  0.00    +0.045 A 
ATOM     16  S   UNL     1       3.143   0.002   9.836  0.00  0.00    -0.100 S 
ENDBRANCH   9  12
BRANCH   1  17
ATOM     17  C   UNL     1      -0.167   0.056   4.883  0.00  0.00    +0.141 C 
BRANCH  17  19
ATOM     18  N   UNL     1       0.026  -0.013   2.417  0.00  0.00    -0.285 N 
ATOM     19  C   UNL     1      -0.056  -0.692   3.579  0.00  0.00    +0.221 C 
ATOM     20  O   UNL     1      -0.040  -1.905   3.575  0.00  0.00    -0.275 OA
ATOM     21  H   UNL     1       0.079   0.956   2.425  0.00  0.00    +0.155 HD
BRANCH  18  28
ATOM     22  C   UNL     1      -1.265   1.183   0.182  0.00  0.00    +0.046 C 
ATOM     23  C   UNL     1      -0.584  -0.158   0.085  0.00  0.00    -0.027 A 
ATOM     24  C   UNL     1      -0.570  -0.840  -1.116  0.00  0.00    +0.043 A 
ATOM     25  C   UNL     1       0.055  -2.072  -1.206  0.00  0.00    +0.124 A 
ATOM     26  C   UNL     1       0.667  -2.623  -0.093  0.00  0.00    +0.040 A 
ATOM     27  C   UNL     1       0.655  -1.944   1.110  0.00  0.00    +0.026 A 
ATOM     28  C   UNL     1       0.034  -0.706   1.200  0.00  0.00    +0.036 A 
ATOM     29  F   UNL     1       0.068  -2.738  -2.382  0.00  0.00    -0.205 F 
ENDBRANCH  18  28
ENDBRANCH  17  19
ENDBRANCH   1  17
TORSDOF 4
