REMARK  Name = ZINC00643830
REMARK  9 active torsions:
REMARK  status: ('A' for Active; 'I' for Inactive)
REMARK    1  A    between atoms: C_1  and  C_2
REMARK    2  A    between atoms: C_5  and  C_8
REMARK    3  A    between atoms: C_8  and  O_9
REMARK    4  A    between atoms: O_9  and  C_10
REMARK    5  A    between atoms: C_15  and  C_16
REMARK    6  A    between atoms: C_18  and  C_31
REMARK    7  A    between atoms: C_19  and  N_30
REMARK    8  A    between atoms: C_26  and  C_28
REMARK    9  A    between atoms: C_26  and  C_29
REMARK                            x       y       z     vdW  Elec       q    Type
REMARK                         _______ _______ _______ _____ _____    ______ ____
ROOT
ATOM      1  C   UNL     1      -2.055   2.485  -3.451  0.00  0.00    +0.104 C 
ATOM      2  C   UNL     1      -1.794   3.804  -4.123  0.00  0.00    +0.098 C 
ATOM      3  C   UNL     1      -2.257   4.040  -5.374  0.00  0.00    +0.198 C 
ATOM      4  O   UNL     1      -2.954   3.112  -6.048  0.00  0.00    -0.445 OA
ATOM      5  C   UNL     1      -3.579   2.126  -5.376  0.00  0.00    +0.115 C 
ATOM      6  C   UNL     1      -3.195   1.771  -4.136  0.00  0.00    +0.046 C 
ATOM      7  C   UNL     1      -3.837   0.728  -3.442  0.00  0.00    +0.164 C 
ATOM      8  O   UNL     1      -3.472   0.446  -2.318  0.00  0.00    -0.292 OA
ATOM      9  C   UNL     1      -4.967  -0.044  -4.067  0.00  0.00    +0.086 C 
ATOM     10  C   UNL     1      -4.793  -0.032  -5.590  0.00  0.00    -0.021 C 
ATOM     11  C   UNL     1      -4.729   1.423  -6.058  0.00  0.00    +0.081 C 
ATOM     12  C   UNL     1      -3.496  -0.751  -5.965  0.00  0.00    +0.012 C 
ATOM     13  C   UNL     1      -5.984  -0.732  -6.249  0.00  0.00    +0.012 C 
ENDROOT
BRANCH   1  19
ATOM     14  C   UNL     1      -0.194   1.208  -2.359  0.00  0.00    +0.125 A 
ATOM     15  C   UNL     1       0.951   0.428  -2.431  0.00  0.00    +0.046 A 
ATOM     16  C   UNL     1       1.464   0.066  -3.661  0.00  0.00    +0.004 A 
ATOM     17  C   UNL     1       0.844   0.492  -4.822  0.00  0.00    +0.001 A 
ATOM     18  C   UNL     1      -0.294   1.274  -4.753  0.00  0.00    +0.008 A 
ATOM     19  C   UNL     1      -0.815   1.633  -3.525  0.00  0.00    +0.007 A 
BRANCH  14  20
ATOM     20  O   UNL     1      -0.704   1.559  -1.150  0.00  0.00    -0.487 OA
BRANCH  20  21
ATOM     21  C   UNL     1      -0.013   1.086   0.008  0.00  0.00    +0.264 C 
BRANCH  21  26
ATOM     22  C   UNL     1      -2.718   2.950   4.762  0.00  0.00    +0.044 C 
ATOM     23  C   UNL     1      -2.012   2.463   3.523  0.00  0.00    -0.050 A 
ATOM     24  C   UNL     1      -2.366   1.254   2.955  0.00  0.00    +0.004 A 
ATOM     25  C   UNL     1      -1.719   0.808   1.818  0.00  0.00    +0.007 A 
ATOM     26  C   UNL     1      -0.718   1.572   1.248  0.00  0.00    -0.010 A 
ATOM     27  C   UNL     1      -0.360   2.779   1.819  0.00  0.00    +0.007 A 
ATOM     28  C   UNL     1      -1.010   3.227   2.953  0.00  0.00    +0.004 A 
ENDBRANCH  21  26
ENDBRANCH  20  21
ENDBRANCH  14  20
ENDBRANCH   1  19
BRANCH   3  29
ATOM     29  N   UNL     1      -2.010   5.255  -5.965  0.00  0.00    -0.328 N 
ATOM     30  H   UNL     1      -2.337   5.434  -6.860  0.00  0.00    +0.145 HD
ATOM     31  H   UNL     1      -1.507   5.933  -5.487  0.00  0.00    +0.145 HD
ENDBRANCH   3  29
BRANCH   2  32
ATOM     32  C   UNL     1      -1.050   4.818  -3.436  0.00  0.00    +0.101 C 
ATOM     33  N   UNL     1      -0.460   5.621  -2.892  0.00  0.00    -0.191 NA
ENDBRANCH   2  32
TORSDOF 6
