REMARK  Name = ZINC01434198
REMARK  10 active torsions:
REMARK  status: ('A' for Active; 'I' for Inactive)
REMARK    1  A    between atoms: C_1  and  C_2
REMARK    2  A    between atoms: C_4  and  N_26
REMARK    3  A    between atoms: C_6  and  C_25
REMARK    4  A    between atoms: C_7  and  O_8
REMARK    5  A    between atoms: O_8  and  C_9
REMARK    6  A    between atoms: C_9  and  C_10
REMARK    7  A    between atoms: N_12  and  N_13
REMARK    8  A    between atoms: C_14  and  C_15
REMARK    9  A    between atoms: C_20  and  O_21
REMARK   10  A    between atoms: O_21  and  C_22
REMARK                            x       y       z     vdW  Elec       q    Type
REMARK                         _______ _______ _______ _____ _____    ______ ____
ROOT
ATOM      1  C   UNL     1       5.446  -1.671  -1.134  0.00  0.00    +0.270 C 
ATOM      2  O   UNL     1       5.862  -1.902  -0.018  0.00  0.00    -0.270 OA
ATOM      3  N   UNL     1       6.153  -2.065  -2.211  0.00  0.00    -0.204 N 
ATOM      4  H   UNL     1       5.821  -1.880  -3.104  0.00  0.00    +0.177 HD
ENDROOT
BRANCH   3   5
ATOM      5  N   UNL     1       7.368  -2.743  -2.043  0.00  0.00    -0.188 NA
ATOM      6  C   UNL     1       8.048  -3.123  -3.080  0.00  0.00    +0.142 C 
BRANCH   6   7
ATOM      7  C   UNL     1       9.326  -3.836  -2.903  0.00  0.00    +0.038 A 
ATOM      8  C   UNL     1      10.062  -4.247  -4.017  0.00  0.00    +0.028 A 
ATOM      9  C   UNL     1      11.257  -4.914  -3.844  0.00  0.00    +0.020 A 
ATOM     10  C   UNL     1      11.731  -5.179  -2.570  0.00  0.00    +0.034 A 
ATOM     11  C   UNL     1      11.012  -4.777  -1.459  0.00  0.00    +0.061 A 
ATOM     12  C   UNL     1       9.812  -4.101  -1.615  0.00  0.00    +0.143 A 
ATOM     13 BR   UNL     1      11.669  -5.145   0.275  0.00  0.00    -0.046 Br
ATOM     14 BR   UNL     1      12.252  -5.470  -5.353  0.00  0.00    -0.050 Br
BRANCH  12  15
ATOM     15  O   UNL     1       9.108  -3.701  -0.525  0.00  0.00    -0.493 OA
ATOM     16  C   UNL     1       8.150  -4.621   0.002  0.00  0.00    +0.277 C 
ENDBRANCH  12  15
ENDBRANCH   6   7
ENDBRANCH   3   5
BRANCH   1  17
ATOM     17  C   UNL     1       4.140  -0.942  -1.315  0.00  0.00    +0.326 C 
BRANCH  17  18
ATOM     18  O   UNL     1       3.586  -0.632  -0.035  0.00  0.00    -0.482 OA
BRANCH  18  25
ATOM     19  C   UNL     1       1.227  -2.186  -0.022  0.00  0.00    +0.047 C 
ATOM     20  C   UNL     1       1.207  -0.680  -0.013  0.00  0.00    -0.006 A 
ATOM     21  C   UNL     1       0.002  -0.004   0.002  0.00  0.00    +0.039 A 
ATOM     22  C   UNL     1      -0.017   1.378   0.010  0.00  0.00    +0.127 A 
ATOM     23  C   UNL     1       1.170   2.088   0.002  0.00  0.00    +0.039 A 
ATOM     24  C   UNL     1       2.377   1.417  -0.013  0.00  0.00    -0.006 A 
ATOM     25  C   UNL     1       2.399   0.030  -0.021  0.00  0.00    +0.127 A 
ATOM     26  C   UNL     1       3.670   2.192  -0.021  0.00  0.00    +0.047 C 
BRANCH  22  27
ATOM     27  N   UNL     1      -1.309   2.100   0.020  0.00  0.00    +0.056 N 
ATOM     28  O   UNL     1      -2.355   1.475   0.021  0.00  0.00    -0.126 OA
ATOM     29  O   UNL     1      -1.327   3.318   0.026  0.00  0.00    -0.126 OA
ENDBRANCH  22  27
ENDBRANCH  18  25
ENDBRANCH  17  18
ENDBRANCH   1  17
TORSDOF 7
