REMARK  Name = ZINC50038029
REMARK  4 active torsions:
REMARK  status: ('A' for Active; 'I' for Inactive)
REMARK    1  A    between atoms: C_1  and  C_2
REMARK    2  A    between atoms: C_6  and  C_7
REMARK    3  A    between atoms: C_9  and  C_12
REMARK    4  A    between atoms: C_12  and  C_13
REMARK                            x       y       z     vdW  Elec       q    Type
REMARK                         _______ _______ _______ _____ _____    ______ ____
ROOT
ATOM      1  C   UNL     1      -1.734   3.710  -0.374  0.00  0.00    +0.245 A 
ATOM      2  N   UNL     1      -1.267   4.478   0.571  0.00  0.00    -0.195 NA
ATOM      3  C   UNL     1      -2.261   4.875   1.374  0.00  0.00    +0.176 A 
ATOM      4  N   UNL     1      -3.379   4.361   0.947  0.00  0.00    -0.061 NA
ATOM      5  O   UNL     1      -3.058   3.595  -0.205  0.00  0.00    -0.337 OA
ENDROOT
BRANCH   1  11
ATOM      6  C   UNL     1      -0.013   1.086   0.008  0.00  0.00    +0.041 C 
ATOM      7  C   UNL     1      -0.742   1.585  -1.213  0.00  0.00    -0.048 C 
ATOM      8  C   UNL     1      -1.243   0.761  -2.085  0.00  0.00    +0.034 C 
ATOM      9  C   UNL     1      -1.952   1.281  -3.272  0.00  0.00    +0.089 C 
ATOM     10  S   UNL     1      -1.854   3.052  -3.058  0.00  0.00    -0.089 S 
ATOM     11  C   UNL     1      -0.925   3.067  -1.470  0.00  0.00    +0.167 C 
ATOM     12  N   UNL     1      -2.512   0.610  -4.242  0.00  0.00    -0.293 NA
ATOM     13  H   UNL     1      -2.493  -0.360  -4.235  0.00  0.00    +0.187 HD
ENDBRANCH   1  11
BRANCH   3  14
ATOM     14  C   UNL     1      -2.112   5.770   2.577  0.00  0.00    +0.115 C 
BRANCH  14  15
ATOM     15  C   UNL     1      -2.271   7.208   2.156  0.00  0.00    -0.038 A 
ATOM     16  C   UNL     1      -1.166   7.938   1.757  0.00  0.00    +0.005 A 
ATOM     17  C   UNL     1      -1.311   9.257   1.371  0.00  0.00    +0.022 A 
ATOM     18  C   UNL     1      -2.562   9.848   1.383  0.00  0.00    +0.059 A 
ATOM     19  C   UNL     1      -3.668   9.117   1.781  0.00  0.00    +0.060 A 
ATOM     20  C   UNL     1      -3.522   7.795   2.163  0.00  0.00    +0.025 A 
ATOM     21 CL   UNL     1      -5.238   9.857   1.797  0.00  0.00    -0.082 Cl
ATOM     22 CL   UNL     1      -2.744  11.505   0.898  0.00  0.00    -0.082 Cl
ENDBRANCH  14  15
ENDBRANCH   3  14
TORSDOF 3
