REMARK  Name = ZINC03599316
REMARK  9 active torsions:
REMARK  status: ('A' for Active; 'I' for Inactive)
REMARK    1  A    between atoms: C_1  and  C_2
REMARK    2  A    between atoms: C_2  and  C_3
REMARK    3  A    between atoms: C_2  and  C_4
REMARK    4  A    between atoms: C_2  and  N_5
REMARK    5  A    between atoms: C_9  and  C_11
REMARK    6  A    between atoms: C_11  and  N_12
REMARK    7  A    between atoms: C_15  and  C_19
REMARK    8  A    between atoms: C_15  and  C_26
REMARK    9  A    between atoms: C_19  and  C_20
REMARK                            x       y       z     vdW  Elec       q    Type
REMARK                         _______ _______ _______ _____ _____    ______ ____
ROOT
ATOM      1  N   UNL     1       4.214  -2.384   1.429  0.00  0.00    -0.215 N 
ATOM      2  C   UNL     1       4.157  -1.035   1.373  0.00  0.00    +0.252 C 
ATOM      3  O   UNL     1       4.407  -0.251   2.263  0.00  0.00    -0.272 OA
ATOM      4  C   UNL     1       3.711  -0.707  -0.038  0.00  0.00    +0.142 C 
ATOM      5  N   UNL     1       3.558  -2.028  -0.673  0.00  0.00    -0.281 N 
ATOM      6  C   UNL     1       3.874  -2.942   0.262  0.00  0.00    +0.310 C 
ATOM      7  O   UNL     1       3.852  -4.142   0.068  0.00  0.00    -0.252 OA
ATOM      8  H   UNL     1       3.284  -2.204  -1.586  0.00  0.00    +0.152 HD
ENDROOT
BRANCH   4   9
ATOM      9  C   UNL     1       2.396   0.029  -0.022  0.00  0.00    -0.015 A 
ATOM     10  C   UNL     1       1.208  -0.679  -0.013  0.00  0.00    +0.006 A 
ATOM     11  C   UNL     1       0.002  -0.004   0.002  0.00  0.00    +0.000 A 
ATOM     12  C   UNL     1      -0.017   1.378   0.010  0.00  0.00    +0.000 A 
ATOM     13  C   UNL     1       1.171   2.086   0.002  0.00  0.00    +0.000 A 
ATOM     14  C   UNL     1       2.377   1.411  -0.015  0.00  0.00    +0.006 A 
ENDBRANCH   4   9
BRANCH   1  15
ATOM     15  C   UNL     1       4.605  -3.141   2.621  0.00  0.00    +0.214 C 
BRANCH  15  20
ATOM     16  N   UNL     1       8.607  -4.906   4.616  0.00  0.00    -0.294 N 
ATOM     17  C   UNL     1       8.018  -4.229   3.611  0.00  0.00    +0.306 C 
ATOM     18  O   UNL     1       8.690  -3.792   2.697  0.00  0.00    -0.252 OA
ATOM     19  N   UNL     1       6.684  -4.035   3.618  0.00  0.00    -0.239 N 
ATOM     20  C   UNL     1       6.096  -3.358   2.613  0.00  0.00    +0.238 C 
ATOM     21  O   UNL     1       6.766  -2.922   1.701  0.00  0.00    -0.274 OA
ATOM     22  H   UNL     1       8.070  -5.254   5.346  0.00  0.00    +0.151 HD
ATOM     23  H   UNL     1       6.148  -4.383   4.348  0.00  0.00    +0.159 HD
BRANCH  16  25
ATOM     24  C   UNL     1      10.768  -3.762   4.609  0.00  0.00    +0.031 C 
ATOM     25  C   UNL     1      10.056  -5.116   4.608  0.00  0.00    +0.028 C 
ATOM     26  C   UNL     1      10.464  -5.907   5.853  0.00  0.00    +0.031 C 
ATOM     27  C   UNL     1      10.451  -5.900   3.354  0.00  0.00    +0.031 C 
ENDBRANCH  16  25
ENDBRANCH  15  20
ENDBRANCH   1  15
BRANCH   4  28
ATOM     28  C   UNL     1       4.778   0.117  -0.761  0.00  0.00    +0.075 C 
BRANCH  28  29
ATOM     29  C   UNL     1       6.046  -0.689  -0.872  0.00  0.00    -0.045 A 
ATOM     30  C   UNL     1       7.002  -0.615   0.124  0.00  0.00    +0.004 A 
ATOM     31  C   UNL     1       8.164  -1.358   0.025  0.00  0.00    +0.000 A 
ATOM     32  C   UNL     1       8.373  -2.168  -1.075  0.00  0.00    +0.000 A 
ATOM     33  C   UNL     1       7.420  -2.239  -2.074  0.00  0.00    +0.000 A 
ATOM     34  C   UNL     1       6.257  -1.499  -1.972  0.00  0.00    +0.004 A 
ENDBRANCH  28  29
ENDBRANCH   4  28
TORSDOF 6
