REMARK  Name = ZINC64336012
REMARK  7 active torsions:
REMARK  status: ('A' for Active; 'I' for Inactive)
REMARK    1  A    between atoms: C_1  and  C_2
REMARK    2  A    between atoms: C_5  and  C_7
REMARK    3  A    between atoms: C_7  and  N_8
REMARK    4  A    between atoms: C_9  and  C_11
REMARK    5  A    between atoms: C_11  and  C_12
REMARK    6  A    between atoms: C_11  and  N_13
REMARK    7  A    between atoms: C_14  and  C_19
REMARK                            x       y       z     vdW  Elec       q    Type
REMARK                         _______ _______ _______ _____ _____    ______ ____
ROOT
ATOM      1  C   UNL     1      -2.964  -4.452   4.101  0.00  0.00    +0.174 C 
ATOM      2  C   UNL     1      -3.681  -5.114   2.923  0.00  0.00    +0.041 C 
ENDROOT
BRANCH   1   3
ATOM      3  N   UNL     1      -2.945  -5.372   5.241  0.00  0.00    -0.289 N 
ATOM      4  C   UNL     1      -3.495  -5.165   6.487  0.00  0.00    +0.172 A 
ATOM      5  N   UNL     1      -3.248  -6.241   7.200  0.00  0.00    -0.128 NA
ATOM      6  N   UNL     1      -2.591  -7.092   6.496  0.00  0.00    -0.121 NA
ATOM      7  C   UNL     1      -2.383  -6.617   5.290  0.00  0.00    +0.203 A 
ATOM      8  S   UNL     1      -1.533  -7.431   3.978  0.00  0.00    -0.009 SA
BRANCH   4   9
ATOM      9  C   UNL     1      -4.222  -3.966   6.934  0.00  0.00    +0.056 A 
ATOM     10  C   UNL     1      -5.017  -3.799   8.040  0.00  0.00    +0.019 A 
ATOM     11  C   UNL     1      -5.601  -2.571   8.256  0.00  0.00    +0.008 A 
ATOM     12  C   UNL     1      -5.373  -1.565   7.372  0.00  0.00    +0.046 A 
ATOM     13  S   UNL     1      -4.293  -2.347   6.184  0.00  0.00    -0.094 S 
ENDBRANCH   4   9
ENDBRANCH   1   3
BRANCH   1  15
ATOM     14  N   UNL     1      -1.320  -3.281   2.671  0.00  0.00    -0.307 N 
ATOM     15  C   UNL     1      -1.549  -4.116   3.703  0.00  0.00    +0.236 C 
ATOM     16  O   UNL     1      -0.618  -4.598   4.312  0.00  0.00    -0.274 OA
ATOM     17  H   UNL     1      -2.065  -2.896   2.183  0.00  0.00    +0.149 HD
BRANCH  14  18
ATOM     18  C   UNL     1       0.055  -2.955   2.284  0.00  0.00    +0.167 C 
BRANCH  18  23
ATOM     19  C   UNL     1      -0.018   1.503   0.010  0.00  0.00    +0.066 C 
ATOM     20  C   UNL     1       0.002  -0.004   0.002  0.00  0.00    +0.046 A 
ATOM     21  C   UNL     1       0.006  -0.708  -1.159  0.00  0.00    +0.070 A 
ATOM     22  S   UNL     1       0.032  -2.379  -0.531  0.00  0.00    -0.079 S 
ATOM     23  C   UNL     1       0.036  -2.009   1.111  0.00  0.00    +0.096 A 
ATOM     24  N   UNL     1       0.023  -0.699   1.122  0.00  0.00    -0.248 NA
ENDBRANCH  18  23
ENDBRANCH  14  18
ENDBRANCH   1  15
TORSDOF 5
