REMARK  Name = ZINC36144994
REMARK  10 active torsions:
REMARK  status: ('A' for Active; 'I' for Inactive)
REMARK    1  A    between atoms: C_1  and  C_2
REMARK    2  A    between atoms: C_4  and  C_18
REMARK    3  A    between atoms: C_5  and  C_17
REMARK    4  A    between atoms: N_6  and  C_7
REMARK    5  A    between atoms: C_10  and  O_13
REMARK    6  A    between atoms: O_13  and  C_14
REMARK    7  A    between atoms: C_14  and  C_16
REMARK    8  A    between atoms: N_19  and  C_20
REMARK    9  A    between atoms: C_22  and  N_27
REMARK   10  A    between atoms: C_25  and  O_26
REMARK                            x       y       z     vdW  Elec       q    Type
REMARK                         _______ _______ _______ _____ _____    ______ ____
ROOT
ATOM      1  C   UNL     1       0.229   1.443   0.008  0.00  0.00    +0.064 C 
ATOM      2  C   UNL     1       0.140  -0.061   0.012  0.00  0.00    +0.022 A 
ATOM      3  C   UNL     1       0.126  -0.844  -1.081  0.00  0.00    +0.032 A 
ATOM      4  C   UNL     1       0.030  -2.228  -0.604  0.00  0.00    +0.014 A 
ATOM      5  C   UNL     1      -0.007  -2.155   0.773  0.00  0.00    +0.030 A 
ATOM      6  N   UNL     1       0.065  -0.847   1.127  0.00  0.00    -0.317 N 
ATOM      7  C   UNL     1      -0.106  -3.324   1.719  0.00  0.00    +0.064 C 
ENDROOT
BRANCH   6   8
ATOM      8  C   UNL     1       0.061  -0.371   2.446  0.00  0.00    +0.047 A 
ATOM      9  C   UNL     1       1.117  -0.672   3.296  0.00  0.00    +0.030 A 
ATOM     10  C   UNL     1       1.112  -0.202   4.595  0.00  0.00    +0.048 A 
ATOM     11  C   UNL     1       0.053   0.570   5.050  0.00  0.00    +0.132 A 
ATOM     12  C   UNL     1      -1.002   0.870   4.200  0.00  0.00    +0.048 A 
ATOM     13  C   UNL     1      -0.996   0.406   2.900  0.00  0.00    +0.030 A 
BRANCH  11  14
ATOM     14  O   UNL     1       0.049   1.031   6.329  0.00  0.00    -0.426 OA
BRANCH  14  15
ATOM     15  C   UNL     1       0.943   1.975   6.661  0.00  0.00    +0.309 C 
ATOM     16  O   UNL     1       1.650   2.463   5.811  0.00  0.00    -0.251 OA
ATOM     17  C   UNL     1       1.066   2.426   8.094  0.00  0.00    +0.136 C 
ENDBRANCH  14  15
ENDBRANCH  11  14
ENDBRANCH   6   8
BRANCH   4  18
ATOM     18  C   UNL     1      -0.018  -3.445  -1.426  0.00  0.00    +0.121 C 
ATOM     19  N   UNL     1      -0.104  -4.615  -0.855  0.00  0.00    -0.251 NA
BRANCH  19  20
ATOM     20  C   UNL     1      -0.149  -5.749  -1.620  0.00  0.00    +0.107 A 
ATOM     21  C   UNL     1       0.661  -5.863  -2.752  0.00  0.00    +0.064 A 
ATOM     22  C   UNL     1       0.612  -7.008  -3.519  0.00  0.00    +0.128 A 
ATOM     23  C   UNL     1      -0.237  -8.045  -3.172  0.00  0.00    +0.036 A 
ATOM     24  C   UNL     1      -1.044  -7.943  -2.054  0.00  0.00    +0.050 A 
ATOM     25  C   UNL     1      -1.002  -6.803  -1.270  0.00  0.00    +0.142 A 
BRANCH  22  26
ATOM     26  N   UNL     1       1.470  -7.129  -4.720  0.00  0.00    +0.056 N 
ATOM     27  O   UNL     1       2.212  -6.225  -5.025  0.00  0.00    -0.126 OA
ATOM     28  O   UNL     1       1.429  -8.131  -5.394  0.00  0.00    -0.126 OA
ENDBRANCH  22  26
BRANCH  25  29
ATOM     29  O   UNL     1      -1.790  -6.704  -0.167  0.00  0.00    -0.505 OA
ATOM     30  H   UNL     1      -2.661  -6.319  -0.339  0.00  0.00    +0.292 HD
ENDBRANCH  25  29
ENDBRANCH  19  20
ENDBRANCH   4  18
TORSDOF 7
