REMARK  Name = ZINC32926624
REMARK  6 active torsions:
REMARK  status: ('A' for Active; 'I' for Inactive)
REMARK    1  A    between atoms: C_1  and  C_2
REMARK    2  A    between atoms: C_5  and  C_8
REMARK    3  A    between atoms: C_8  and  C_24
REMARK    4  A    between atoms: N_9  and  N_10
REMARK    5  A    between atoms: C_11  and  C_13
REMARK    6  A    between atoms: C_13  and  C_14
REMARK                            x       y       z     vdW  Elec       q    Type
REMARK                         _______ _______ _______ _____ _____    ______ ____
ROOT
ATOM      1  C   UNL     1      -4.178  -2.913  -3.194  0.00  0.00    +0.073 C 
ATOM      2  N   UNL     1      -2.905  -3.136  -3.082  0.00  0.00    -0.184 NA
ENDROOT
BRANCH   1   3
ATOM      3  C   UNL     1      -5.071  -3.021  -1.985  0.00  0.00    +0.026 C 
ATOM      4  C   UNL     1      -5.179  -1.661  -1.281  0.00  0.00    -0.059 C 
ATOM      5  N   UNL     1      -6.064  -1.843  -0.091  0.00  0.00    +0.397 N 
ATOM      6  C   UNL     1      -7.409  -2.259  -0.522  0.00  0.00    +0.011 C 
ATOM      7  N   UNL     1      -7.315  -3.566  -1.192  0.00  0.00    -0.305 NA
ATOM      8  C   UNL     1      -6.481  -3.462  -2.402  0.00  0.00    +0.096 C 
ATOM      9  C   UNL     1      -6.758  -4.571  -0.272  0.00  0.00    +0.167 C 
ATOM     10  N   UNL     1      -5.419  -4.138   0.158  0.00  0.00    -0.305 NA
ATOM     11  C   UNL     1      -4.512  -4.056  -1.000  0.00  0.00    +0.096 C 
ATOM     12  C   UNL     1      -5.498  -2.835   0.838  0.00  0.00    +0.011 C 
ATOM     13  H   UNL     1      -6.147  -0.888   0.448  0.00  0.00    -0.078 HD
ENDBRANCH   1   3
BRANCH   1  18
ATOM     14  C   UNL     1      -6.414  -1.519  -8.306  0.00  0.00    +0.044 C 
ATOM     15  C   UNL     1      -5.828  -1.884  -6.967  0.00  0.00    -0.050 A 
ATOM     16  C   UNL     1      -4.584  -1.400  -6.604  0.00  0.00    +0.004 A 
ATOM     17  C   UNL     1      -4.042  -1.730  -5.380  0.00  0.00    +0.010 A 
ATOM     18  C   UNL     1      -4.752  -2.556  -4.505  0.00  0.00    -0.002 A 
ATOM     19  C   UNL     1      -6.005  -3.046  -4.880  0.00  0.00    +0.010 A 
ATOM     20  C   UNL     1      -6.537  -2.703  -6.106  0.00  0.00    +0.004 A 
ENDBRANCH   1  18
BRANCH   2  21
ATOM     21  N   UNL     1      -2.285  -3.042  -1.829  0.00  0.00    -0.206 N 
ATOM     22  C   UNL     1      -1.206  -3.800  -1.552  0.00  0.00    +0.237 C 
ATOM     23  O   UNL     1      -0.771  -4.564  -2.388  0.00  0.00    -0.274 OA
ATOM     24  H   UNL     1      -2.679  -2.348  -1.071  0.00  0.00    +0.177 HD
BRANCH  22  25
ATOM     25  C   UNL     1      -0.539  -3.698  -0.205  0.00  0.00    +0.134 C 
BRANCH  25  26
ATOM     26  C   UNL     1       0.634  -4.643  -0.152  0.00  0.00    -0.014 A 
ATOM     27  C   UNL     1       0.632  -5.891   0.341  0.00  0.00    +0.087 A 
ATOM     28  N   UNL     1       1.879  -6.443   0.219  0.00  0.00    -0.360 N 
ATOM     29  H   UNL     1       2.063  -7.468   0.573  0.00  0.00    +0.165 HD
ATOM     30  C   UNL     1       2.735  -5.540  -0.370  0.00  0.00    +0.047 A 
ATOM     31  C   UNL     1       1.993  -4.372  -0.628  0.00  0.00    +0.003 A 
ATOM     32  C   UNL     1       2.611  -3.272  -1.225  0.00  0.00    +0.010 A 
ATOM     33  C   UNL     1       3.933  -3.338  -1.563  0.00  0.00    +0.001 A 
ATOM     34  C   UNL     1       4.669  -4.487  -1.310  0.00  0.00    +0.002 A 
ATOM     35  C   UNL     1       4.080  -5.583  -0.719  0.00  0.00    +0.026 A 
ENDBRANCH  25  26
ENDBRANCH  22  25
ENDBRANCH   2  21
TORSDOF 5
