REMARK  Name = ZINC33027645
REMARK  6 active torsions:
REMARK  status: ('A' for Active; 'I' for Inactive)
REMARK    1  A    between atoms: C_1  and  C_2
REMARK    2  A    between atoms: C_2  and  C_4
REMARK    3  A    between atoms: C_2  and  S_17
REMARK    4  A    between atoms: N_6  and  C_7
REMARK    5  A    between atoms: C_12  and  C_13
REMARK    6  A    between atoms: S_17  and  C_18
REMARK                            x       y       z     vdW  Elec       q    Type
REMARK                         _______ _______ _______ _____ _____    ______ ____
ROOT
ATOM      1  C   UNL     1      -0.023   1.511   0.028  0.00  0.00    +0.029 C 
ATOM      2  C   UNL     1       0.001  -0.018   0.007  0.00  0.00    +0.137 C 
ENDROOT
BRANCH   2   3
ATOM      3  C   UNL     1       0.707  -0.493  -1.236  0.00  0.00    +0.230 C 
ATOM      4  O   UNL     1       0.066  -0.779  -2.226  0.00  0.00    -0.274 OA
ATOM      5  N   UNL     1       2.051  -0.601  -1.250  0.00  0.00    -0.284 N 
ATOM      6  H   UNL     1       2.569  -0.297  -0.488  0.00  0.00    +0.155 HD
BRANCH   5   7
ATOM      7  C   UNL     1       2.698  -1.150  -2.362  0.00  0.00    +0.045 A 
ATOM      8  C   UNL     1       2.021  -2.029  -3.197  0.00  0.00    +0.024 A 
ATOM      9  C   UNL     1       2.662  -2.570  -4.294  0.00  0.00    +0.002 A 
ATOM     10  C   UNL     1       3.978  -2.236  -4.561  0.00  0.00    +0.001 A 
ATOM     11  C   UNL     1       4.655  -1.362  -3.732  0.00  0.00    +0.014 A 
ATOM     12  C   UNL     1       4.016  -0.812  -2.636  0.00  0.00    +0.076 A 
BRANCH  12  13
ATOM     13  C   UNL     1       4.753   0.146  -1.737  0.00  0.00    +0.419 C 
ATOM     14  F   UNL     1       6.055   0.328  -2.215  0.00  0.00    -0.166 F 
ATOM     15  F   UNL     1       4.086   1.376  -1.721  0.00  0.00    -0.166 F 
ATOM     16  F   UNL     1       4.801  -0.375  -0.439  0.00  0.00    -0.166 F 
ENDBRANCH  12  13
ENDBRANCH   5   7
ENDBRANCH   2   3
BRANCH   2  17
ATOM     17  S   UNL     1      -1.699  -0.650   0.016  0.00  0.00    -0.073 S 
BRANCH  17  18
ATOM     18  C   UNL     1      -2.335  -0.142   1.579  0.00  0.00    +0.194 A 
ATOM     19  N   UNL     1      -3.581  -0.457   1.895  0.00  0.00    -0.202 NA
ATOM     20  C   UNL     1      -4.093  -0.090   3.065  0.00  0.00    +0.166 A 
ATOM     21  C   UNL     1      -3.295   0.637   3.965  0.00  0.00    +0.174 A 
ATOM     22  C   UNL     1      -1.980   0.949   3.586  0.00  0.00    +0.302 A 
ATOM     23  N   UNL     1      -1.546   0.540   2.401  0.00  0.00    -0.181 NA
ATOM     24  O   UNL     1      -1.169   1.648   4.415  0.00  0.00    -0.263 OA
ATOM     25  N   UNL     1      -4.051   0.879   5.064  0.00  0.00    -0.229 NA
ATOM     26  C   UNL     1      -5.232   0.359   4.900  0.00  0.00    +0.199 A 
ATOM     27  N   UNL     1      -5.308  -0.251   3.682  0.00  0.00    -0.329 N 
ATOM     28  H   UNL     1      -6.080  -0.712   3.318  0.00  0.00    +0.168 HD
ENDBRANCH  17  18
ENDBRANCH   2  17
TORSDOF 5
