REMARK  Name = ZINC53363354
REMARK  8 active torsions:
REMARK  status: ('A' for Active; 'I' for Inactive)
REMARK    1  A    between atoms: C_1  and  O_2
REMARK    2  A    between atoms: O_2  and  C_3
REMARK    3  A    between atoms: C_7  and  C_9
REMARK    4  A    between atoms: C_11  and  C_24
REMARK    5  A    between atoms: C_14  and  C_17
REMARK    6  A    between atoms: C_22  and  O_23
REMARK    7  A    between atoms: C_29  and  O_30
REMARK    8  A    between atoms: O_30  and  C_31
REMARK                            x       y       z     vdW  Elec       q    Type
REMARK                         _______ _______ _______ _____ _____    ______ ____
ROOT
ATOM      1  C   UNL     1       1.398  -4.101   2.224  0.00  0.00    +0.047 C 
ATOM      2  N   UNL     1       0.862  -4.776   1.278  0.00  0.00    -0.264 NA
ATOM      3  C   UNL     1       0.867  -6.232   1.209  0.00  0.00    +0.207 C 
ATOM      4  N   UNL     1       1.172  -6.813   2.522  0.00  0.00    -0.284 NA
ATOM      5  C   UNL     1       2.394  -6.204   3.076  0.00  0.00    +0.095 C 
ATOM      6  C   UNL     1       2.099  -4.736   3.392  0.00  0.00    +0.079 C 
ATOM      7  H   UNL     1       0.395  -6.704   3.155  0.00  0.00    +0.125 HD
ENDROOT
BRANCH   1  12
ATOM      8  C   UNL     1       0.626  -0.618   1.042  0.00  0.00    +0.121 A 
ATOM      9  C   UNL     1       1.202   0.141   2.051  0.00  0.00    +0.045 A 
ATOM     10  C   UNL     1       1.839  -0.478   3.111  0.00  0.00    +0.004 A 
ATOM     11  C   UNL     1       1.905  -1.855   3.173  0.00  0.00    +0.010 A 
ATOM     12  C   UNL     1       1.328  -2.627   2.162  0.00  0.00    -0.001 A 
ATOM     13  C   UNL     1       0.681  -2.001   1.096  0.00  0.00    +0.055 A 
BRANCH   8  15
ATOM     14  C   UNL     1      -0.017   1.425   0.010  0.00  0.00    +0.277 C 
ATOM     15  O   UNL     1       0.002  -0.004   0.002  0.00  0.00    -0.495 OA
ENDBRANCH   8  15
ENDBRANCH   1  12
BRANCH   5  16
ATOM     16  C   UNL     1       2.796  -6.927   4.335  0.00  0.00    +0.011 A 
ATOM     17  C   UNL     1       1.871  -7.693   5.019  0.00  0.00    +0.009 A 
ATOM     18  C   UNL     1       2.240  -8.356   6.174  0.00  0.00    +0.001 A 
ATOM     19  C   UNL     1       3.534  -8.256   6.649  0.00  0.00    +0.004 A 
ATOM     20  C   UNL     1       4.463  -7.492   5.970  0.00  0.00    +0.046 A 
ATOM     21  C   UNL     1       4.097  -6.829   4.807  0.00  0.00    +0.122 A 
BRANCH  21  22
ATOM     22  O   UNL     1       5.011  -6.082   4.133  0.00  0.00    -0.506 OA
ATOM     23  H   UNL     1       5.048  -5.158   4.416  0.00  0.00    +0.292 HD
ENDBRANCH  21  22
ENDBRANCH   5  16
BRANCH   3  24
ATOM     24  C   UNL     1      -0.488  -6.712   0.757  0.00  0.00    +0.033 A 
ATOM     25  C   UNL     1      -1.008  -7.889   1.261  0.00  0.00    +0.010 A 
ATOM     26  C   UNL     1      -2.250  -8.330   0.846  0.00  0.00    +0.001 A 
ATOM     27  C   UNL     1      -2.977  -7.595  -0.072  0.00  0.00    +0.004 A 
ATOM     28  C   UNL     1      -2.462  -6.418  -0.578  0.00  0.00    +0.046 A 
ATOM     29  C   UNL     1      -1.217  -5.970  -0.160  0.00  0.00    +0.127 A 
BRANCH  29  30
ATOM     30  O   UNL     1      -0.711  -4.809  -0.652  0.00  0.00    -0.495 OA
ATOM     31  C   UNL     1      -1.517  -4.097  -1.593  0.00  0.00    +0.277 C 
ENDBRANCH  29  30
ENDBRANCH   3  24
TORSDOF 6
