REMARK  Name = ZINC64007049
REMARK  6 active torsions:
REMARK  status: ('A' for Active; 'I' for Inactive)
REMARK    1  A    between atoms: C_1  and  C_2
REMARK    2  A    between atoms: C_4  and  C_9
REMARK    3  A    between atoms: N_7  and  C_8
REMARK    4  A    between atoms: C_15  and  C_18
REMARK    5  A    between atoms: N_20  and  C_21
REMARK    6  A    between atoms: C_25  and  C_27
REMARK                            x       y       z     vdW  Elec       q    Type
REMARK                         _______ _______ _______ _____ _____    ______ ____
ROOT
ATOM      1  C   UNL     1      -3.218  -6.052  -4.149  0.00  0.00    +0.222 C 
ATOM      2  O   UNL     1      -4.307  -5.519  -4.106  0.00  0.00    -0.275 OA
ATOM      3  N   UNL     1      -3.076  -7.247  -4.755  0.00  0.00    -0.285 N 
ATOM      4  H   UNL     1      -2.195  -7.642  -4.848  0.00  0.00    +0.155 HD
ENDROOT
BRANCH   1  11
ATOM      5  C   UNL     1      -1.191  -2.900  -1.151  0.00  0.00    +0.238 C 
ATOM      6  O   UNL     1      -2.120  -3.089  -0.395  0.00  0.00    -0.273 OA
ATOM      7  N   UNL     1      -1.259  -3.338  -2.424  0.00  0.00    -0.299 N 
ATOM      8  C   UNL     1      -0.139  -3.122  -3.351  0.00  0.00    +0.108 C 
ATOM      9  C   UNL     1       0.265  -4.469  -3.959  0.00  0.00    +0.020 C 
ATOM     10  C   UNL     1      -0.962  -5.124  -4.598  0.00  0.00    +0.016 C 
ATOM     11  C   UNL     1      -2.024  -5.377  -3.525  0.00  0.00    +0.093 C 
ATOM     12  C   UNL     1      -2.451  -4.046  -2.910  0.00  0.00    +0.120 C 
BRANCH   5  16
ATOM     13  C   UNL     1      -0.018   1.511  -0.006  0.00  0.00    +0.061 C 
ATOM     14  C   UNL     1       0.008   0.004  -0.015  0.00  0.00    +0.017 C 
ATOM     15  C   UNL     1       0.009  -0.728  -1.110  0.00  0.00    +0.022 C 
ATOM     16  C   UNL     1       0.039  -2.175  -0.668  0.00  0.00    +0.183 C 
ATOM     17  N   UNL     1       0.054  -2.105   0.807  0.00  0.00    -0.225 NA
ATOM     18  N   UNL     1       0.040  -0.777   1.123  0.00  0.00    -0.274 N 
ATOM     19  C   UNL     1       0.053  -0.250   2.490  0.00  0.00    +0.149 C 
ATOM     20  H   UNL     1      -0.743  -2.583   1.200  0.00  0.00    +0.146 HD
ENDBRANCH   5  16
ENDBRANCH   1  11
BRANCH   3  21
ATOM     21  C   UNL     1      -4.200  -7.919  -5.248  0.00  0.00    +0.034 A 
ATOM     22  C   UNL     1      -4.263  -9.306  -5.190  0.00  0.00    +0.023 A 
ATOM     23  C   UNL     1      -5.373  -9.966  -5.679  0.00  0.00    +0.002 A 
ATOM     24  C   UNL     1      -6.422  -9.248  -6.226  0.00  0.00    +0.006 A 
ATOM     25  C   UNL     1      -6.361  -7.868  -6.285  0.00  0.00    -0.020 A 
ATOM     26  C   UNL     1      -5.256  -7.201  -5.792  0.00  0.00    +0.029 A 
BRANCH  25  27
ATOM     27  C   UNL     1      -7.505  -7.090  -6.883  0.00  0.00    +0.133 C 
ATOM     28  C   UNL     1      -8.647  -7.001  -5.895  0.00  0.00    +0.012 C 
ATOM     29  C   UNL     1      -9.702  -7.606  -6.487  0.00  0.00    -0.004 A 
ATOM     30  C   UNL     1     -11.083  -7.847  -6.052  0.00  0.00    +0.010 A 
ATOM     31  C   UNL     1     -11.930  -8.496  -6.883  0.00  0.00    +0.001 A 
ATOM     32  C   UNL     1     -11.522  -8.944  -8.147  0.00  0.00    +0.002 A 
ATOM     33  C   UNL     1     -10.270  -8.760  -8.617  0.00  0.00    +0.026 A 
ATOM     34  C   UNL     1      -9.296  -8.089  -7.826  0.00  0.00    +0.043 A 
ATOM     35  N   UNL     1      -8.038  -7.793  -8.054  0.00  0.00    -0.374 N 
ATOM     36  H   UNL     1      -7.543  -8.004  -8.862  0.00  0.00    +0.161 HD
ENDBRANCH  25  27
ENDBRANCH   3  21
TORSDOF 4
