REMARK  Name = ZINC59564735
REMARK  10 active torsions:
REMARK  status: ('A' for Active; 'I' for Inactive)
REMARK    1  A    between atoms: C_1  and  C_2
REMARK    2  A    between atoms: C_2  and  C_3
REMARK    3  A    between atoms: C_3  and  C_27
REMARK    4  A    between atoms: N_5  and  C_21
REMARK    5  A    between atoms: C_6  and  S_8
REMARK    6  A    between atoms: S_8  and  C_9
REMARK    7  A    between atoms: C_9  and  C_10
REMARK    8  A    between atoms: C_16  and  C_18
REMARK    9  A    between atoms: C_18  and  C_19
REMARK   10  A    between atoms: C_18  and  C_20
REMARK                            x       y       z     vdW  Elec       q    Type
REMARK                         _______ _______ _______ _____ _____    ______ ____
ROOT
ATOM      1  C   UNL     1      -1.671  -0.520  -0.068  0.00  0.00    +0.104 C 
ATOM      2  N   UNL     1      -1.860  -1.985  -0.055  0.00  0.00    -0.209 NA
ATOM      3  N   UNL     1      -2.086  -2.314   1.253  0.00  0.00    -0.213 N 
ATOM      4  C   UNL     1      -2.052  -1.190   2.035  0.00  0.00    +0.151 C 
ATOM      5  N   UNL     1      -1.817  -0.117   1.339  0.00  0.00    -0.348 N 
ATOM      6  C   UNL     1      -2.742   0.151  -0.929  0.00  0.00    +0.053 C 
ATOM      7  H   UNL     1      -2.640  -2.254  -0.635  0.00  0.00    +0.147 HD
ATOM      8  H   UNL     1      -1.751   0.786   1.685  0.00  0.00    +0.163 HD
ENDROOT
BRANCH   3   9
ATOM      9  C   UNL     1      -2.318  -3.610   1.724  0.00  0.00    +0.052 A 
ATOM     10  C   UNL     1      -3.383  -3.859   2.580  0.00  0.00    +0.025 A 
ATOM     11  C   UNL     1      -3.610  -5.141   3.043  0.00  0.00    +0.002 A 
ATOM     12  C   UNL     1      -2.778  -6.175   2.655  0.00  0.00    +0.000 A 
ATOM     13  C   UNL     1      -1.717  -5.930   1.803  0.00  0.00    +0.002 A 
ATOM     14  C   UNL     1      -1.488  -4.652   1.331  0.00  0.00    +0.025 A 
ENDBRANCH   3   9
BRANCH   1  16
ATOM     15  C   UNL     1      -0.071   1.348  -0.505  0.00  0.00    +0.007 C 
ATOM     16  C   UNL     1      -0.274  -0.167  -0.582  0.00  0.00    +0.042 C 
ENDBRANCH   1  16
BRANCH   4  17
ATOM     17  S   UNL     1      -2.299  -1.197   3.780  0.00  0.00    -0.082 S 
BRANCH  17  18
ATOM     18  C   UNL     1      -2.142   0.548   4.252  0.00  0.00    +0.173 C 
BRANCH  18  19
ATOM     19  C   UNL     1      -2.334   0.685   5.741  0.00  0.00    +0.229 C 
ATOM     20  O   UNL     1      -2.555  -0.298   6.416  0.00  0.00    -0.275 OA
ATOM     21  N   UNL     1      -2.261   1.899   6.321  0.00  0.00    -0.263 N 
ATOM     22  C   UNL     1      -2.438   2.025   7.694  0.00  0.00    +0.188 A 
ATOM     23  N   UNL     1      -2.678   1.089   8.591  0.00  0.00    -0.126 NA
ATOM     24  N   UNL     1      -2.817   1.359   9.818  0.00  0.00    -0.144 NA
ATOM     25  C   UNL     1      -2.720   2.613  10.213  0.00  0.00    +0.106 A 
ATOM     26  S   UNL     1      -2.395   3.414   8.649  0.00  0.00    -0.035 S 
ATOM     27  H   UNL     1      -2.084   2.685   5.780  0.00  0.00    +0.157 HD
BRANCH  25  28
ATOM     28  C   UNL     1      -2.842   3.203  11.595  0.00  0.00    +0.040 C 
ATOM     29  C   UNL     1      -4.229   2.894  12.161  0.00  0.00    +0.014 C 
ATOM     30  C   UNL     1      -1.773   2.595  12.505  0.00  0.00    +0.014 C 
ENDBRANCH  25  28
ENDBRANCH  18  19
ENDBRANCH  17  18
ENDBRANCH   4  17
TORSDOF 6
