REMARK  Name = ZINC33450052
REMARK  6 active torsions:
REMARK  status: ('A' for Active; 'I' for Inactive)
REMARK    1  A    between atoms: C_1  and  C_2
REMARK    2  A    between atoms: N_5  and  C_11
REMARK    3  A    between atoms: C_7  and  C_10
REMARK    4  A    between atoms: C_12  and  C_22
REMARK    5  A    between atoms: N_26  and  C_30
REMARK    6  A    between atoms: C_30  and  C_31
REMARK                            x       y       z     vdW  Elec       q    Type
REMARK                         _______ _______ _______ _____ _____    ______ ____
ROOT
ATOM      1  C   UNL     1      -2.091  -2.857  -0.674  0.00  0.00    +0.136 A 
ATOM      2  C   UNL     1      -1.961  -4.257  -0.520  0.00  0.00    +0.081 A 
ATOM      3  C   UNL     1      -2.711  -5.100  -1.375  0.00  0.00    +0.267 A 
ATOM      4  O   UNL     1      -2.630  -6.312  -1.278  0.00  0.00    -0.267 OA
ATOM      5  N   UNL     1      -3.518  -4.538  -2.301  0.00  0.00    -0.268 N 
ATOM      6  C   UNL     1      -4.243  -5.341  -3.130  0.00  0.00    +0.096 A 
ATOM      7  C   UNL     1      -5.060  -4.811  -4.067  0.00  0.00    +0.018 A 
ATOM      8  C   UNL     1      -5.170  -3.420  -4.199  0.00  0.00    +0.005 A 
ATOM      9  C   UNL     1      -4.449  -2.608  -3.375  0.00  0.00    +0.047 A 
ATOM     10  C   UNL     1      -3.604  -3.177  -2.405  0.00  0.00    +0.142 A 
ATOM     11  N   UNL     1      -2.906  -2.375  -1.601  0.00  0.00    -0.214 NA
ENDROOT
BRANCH   1  15
ATOM     12  C   UNL     1      -1.557   1.665   1.056  0.00  0.00    +0.039 C 
ATOM     13  C   UNL     1      -1.043   0.402   0.361  0.00  0.00    +0.133 C 
ATOM     14  C   UNL     1      -1.991  -0.766   0.656  0.00  0.00    +0.138 C 
ATOM     15  N   UNL     1      -1.380  -2.001   0.138  0.00  0.00    -0.310 N 
ATOM     16  C   UNL     1       0.012  -2.294   0.514  0.00  0.00    +0.138 C 
ATOM     17  C   UNL     1       0.862  -1.052   0.227  0.00  0.00    +0.133 C 
ATOM     18  O   UNL     1       0.262   0.086   0.852  0.00  0.00    -0.371 OA
ATOM     19  C   UNL     1       2.272  -1.258   0.783  0.00  0.00    +0.039 C 
ENDBRANCH   1  15
BRANCH   2  20
ATOM     20  C   UNL     1      -1.103  -4.802   0.464  0.00  0.00    +0.037 C 
ATOM     21  C   UNL     1      -0.002  -5.515   0.090  0.00  0.00    +0.077 C 
ATOM     22  C   UNL     1       0.539  -5.731  -1.210  0.00  0.00    +0.259 C 
ATOM     23  O   UNL     1       0.011  -5.248  -2.196  0.00  0.00    -0.269 OA
ATOM     24  N   UNL     1       1.630  -6.469  -1.316  0.00  0.00    -0.244 N 
ATOM     25  C   UNL     1       2.217  -7.003  -0.222  0.00  0.00    +0.121 C 
ATOM     26  S   UNL     1       3.619  -7.980  -0.124  0.00  0.00    -0.027 S 
ATOM     27  S   UNL     1       1.160  -6.426   1.098  0.00  0.00    -0.061 S 
BRANCH  24  28
ATOM     28  C   UNL     1       2.213  -6.711  -2.638  0.00  0.00    +0.240 C 
BRANCH  28  29
ATOM     29  C   UNL     1       3.214  -5.629  -2.952  0.00  0.00    +0.373 C 
ATOM     30  O   UNL     1       3.422  -4.738  -2.146  0.00  0.00    -0.245 OA
ATOM     31  O   UNL     1       3.816  -5.645  -4.012  0.00  0.00    -0.245 OA
ENDBRANCH  28  29
ENDBRANCH  24  28
ENDBRANCH   2  20
TORSDOF 4
