REMARK  Name = ZINC17138055
REMARK  4 active torsions:
REMARK  status: ('A' for Active; 'I' for Inactive)
REMARK    1  A    between atoms: C_4  and  C_7
REMARK    2  A    between atoms: N_9  and  N_10
REMARK    3  A    between atoms: N_10  and  C_11
REMARK    4  A    between atoms: N_17  and  C_20
REMARK                            x       y       z     vdW  Elec       q    Type
REMARK                         _______ _______ _______ _____ _____    ______ ____
ROOT
ATOM      1  C   UNL     1       4.963  -4.061  -0.068  0.00  0.00    +0.106 C 
ATOM      2  C   UNL     1       6.166  -4.732  -0.188  0.00  0.00    +0.116 C 
ATOM      3  C   UNL     1       6.221  -6.203  -0.315  0.00  0.00    +0.278 C 
ATOM      4  N   UNL     1       7.423  -6.790  -0.428  0.00  0.00    -0.123 NA
ATOM      5  C   UNL     1       8.535  -6.099  -0.428  0.00  0.00    +0.340 C 
ATOM      6  O   UNL     1       9.700  -6.767  -0.547  0.00  0.00    -0.250 OA
ATOM      7  N   UNL     1       8.581  -4.744  -0.316  0.00  0.00    -0.188 N 
ATOM      8  C   UNL     1       7.451  -4.014  -0.200  0.00  0.00    +0.265 C 
ATOM      9  O   UNL     1       7.494  -2.801  -0.104  0.00  0.00    -0.269 OA
ATOM     10  O   UNL     1       5.198  -6.868  -0.317  0.00  0.00    -0.268 OA
ENDROOT
BRANCH   7  11
ATOM     11  C   UNL     1       9.820  -4.095  -0.326  0.00  0.00    +0.053 A 
ATOM     12  C   UNL     1      10.371  -3.667  -1.514  0.00  0.00    +0.024 A 
ATOM     13  C   UNL     1      11.603  -3.021  -1.535  0.00  0.00    +0.002 A 
ATOM     14  C   UNL     1      12.297  -2.793  -0.386  0.00  0.00    +0.008 A 
ATOM     15  C   UNL     1      11.770  -3.213   0.847  0.00  0.00    -0.016 A 
ATOM     16  C   UNL     1      10.514  -3.868   0.881  0.00  0.00    +0.004 A 
ATOM     17  C   UNL     1       9.986  -4.282   2.114  0.00  0.00    +0.010 A 
ATOM     18  C   UNL     1      10.683  -4.047   3.260  0.00  0.00    +0.001 A 
ATOM     19  C   UNL     1      11.916  -3.398   3.227  0.00  0.00    +0.001 A 
ATOM     20  C   UNL     1      12.464  -2.993   2.049  0.00  0.00    +0.008 A 
ENDBRANCH   7  11
BRANCH   1  21
ATOM     21  N   UNL     1       4.935  -2.714  -0.121  0.00  0.00    -0.271 N 
ATOM     22  H   UNL     1       5.744  -2.220  -0.324  0.00  0.00    +0.169 HD
BRANCH  21  25
ATOM     23  C   UNL     1       3.708  -0.682   0.062  0.00  0.00    +0.260 C 
ATOM     24  O   UNL     1       4.722  -0.063  -0.192  0.00  0.00    -0.269 OA
ATOM     25  N   UNL     1       3.736  -2.029   0.116  0.00  0.00    -0.233 N 
ATOM     26  H   UNL     1       2.927  -2.523   0.319  0.00  0.00    +0.173 HD
BRANCH  23  30
ATOM     27  C   UNL     1       0.073   1.395   0.781  0.00  0.00    +0.000 A 
ATOM     28  C   UNL     1       1.226   2.104   0.492  0.00  0.00    +0.001 A 
ATOM     29  C   UNL     1       2.410   1.435   0.258  0.00  0.00    +0.013 A 
ATOM     30  C   UNL     1       2.443   0.041   0.313  0.00  0.00    +0.038 A 
ATOM     31  C   UNL     1       1.276  -0.668   0.605  0.00  0.00    +0.013 A 
ATOM     32  C   UNL     1       0.099   0.013   0.837  0.00  0.00    +0.001 A 
ENDBRANCH  23  30
ENDBRANCH  21  25
ENDBRANCH   1  21
TORSDOF 4
