REMARK  Name = ZINC02091166
REMARK  5 active torsions:
REMARK  status: ('A' for Active; 'I' for Inactive)
REMARK    1  A    between atoms: C_1  and  C_2
REMARK    2  A    between atoms: C_2  and  N_3
REMARK    3  A    between atoms: C_4  and  C_11
REMARK    4  A    between atoms: C_5  and  N_8
REMARK    5  A    between atoms: N_13  and  C_14
REMARK                            x       y       z     vdW  Elec       q    Type
REMARK                         _______ _______ _______ _____ _____    ______ ____
ROOT
ATOM      1  C   UNL     1      -3.520   1.808   0.480  0.00  0.00    +0.269 C 
ATOM      2  O   UNL     1      -2.940   1.883   1.546  0.00  0.00    -0.268 OA
ATOM      3  N   UNL     1      -3.049   2.477  -0.592  0.00  0.00    -0.275 N 
ATOM      4  H   UNL     1      -3.555   2.484  -1.419  0.00  0.00    +0.155 HD
ENDROOT
BRANCH   3   5
ATOM      5  C   UNL     1      -1.829   3.161  -0.510  0.00  0.00    +0.111 A 
ATOM      6  C   UNL     1      -0.674   2.483  -0.139  0.00  0.00    +0.185 A 
ATOM      7  C   UNL     1       0.530   3.162  -0.054  0.00  0.00    +0.198 A 
ATOM      8  C   UNL     1       0.584   4.517  -0.343  0.00  0.00    +0.199 A 
ATOM      9  C   UNL     1      -0.566   5.194  -0.718  0.00  0.00    +0.198 A 
ATOM     10  C   UNL     1      -1.771   4.518  -0.805  0.00  0.00    +0.185 A 
ATOM     11  F   UNL     1      -2.892   5.179  -1.170  0.00  0.00    -0.200 F 
ATOM     12  F   UNL     1      -0.510   6.514  -1.000  0.00  0.00    -0.199 F 
ATOM     13  F   UNL     1       1.760   5.178  -0.259  0.00  0.00    -0.199 F 
ATOM     14  F   UNL     1       1.652   2.504   0.311  0.00  0.00    -0.199 F 
ATOM     15  F   UNL     1      -0.727   1.163   0.143  0.00  0.00    -0.200 F 
ENDBRANCH   3   5
BRANCH   1  17
ATOM     16  N   UNL     1      -4.803  -0.333   0.021  0.00  0.00    -0.257 N 
ATOM     17  C   UNL     1      -4.736   0.988   0.360  0.00  0.00    +0.154 A 
ATOM     18  C   UNL     1      -6.041   1.403   0.561  0.00  0.00    +0.176 A 
ATOM     19  C   UNL     1      -6.828   0.273   0.330  0.00  0.00    +0.168 A 
ATOM     20  N   UNL     1      -6.029  -0.716   0.019  0.00  0.00    -0.177 NA
BRANCH  18  21
ATOM     21  N   UNL     1      -6.504   2.757   0.941  0.00  0.00    +0.060 N 
ATOM     22  O   UNL     1      -7.694   2.976   1.083  0.00  0.00    -0.126 OA
ATOM     23  O   UNL     1      -5.696   3.652   1.110  0.00  0.00    -0.126 OA
ENDBRANCH  18  21
BRANCH  16  25
ATOM     24  C   UNL     1      -3.007  -1.664   1.013  0.00  0.00    +0.029 C 
ATOM     25  C   UNL     1      -3.652  -1.185  -0.289  0.00  0.00    +0.141 C 
ENDBRANCH  16  25
ENDBRANCH   1  17
TORSDOF 4
