REMARK  Name = ZINC23795449
REMARK  9 active torsions:
REMARK  status: ('A' for Active; 'I' for Inactive)
REMARK    1  A    between atoms: C_1  and  C_2
REMARK    2  A    between atoms: C_2  and  C_4
REMARK    3  A    between atoms: C_2  and  O_19
REMARK    4  A    between atoms: N_9  and  C_12
REMARK    5  A    between atoms: C_12  and  C_13
REMARK    6  A    between atoms: O_19  and  C_20
REMARK    7  A    between atoms: C_20  and  C_22
REMARK    8  A    between atoms: C_24  and  N_29
REMARK    9  A    between atoms: C_27  and  N_28
REMARK                            x       y       z     vdW  Elec       q    Type
REMARK                         _______ _______ _______ _____ _____    ______ ____
ROOT
ATOM      1  C   UNL     1       0.241   1.576   0.236  0.00  0.00    +0.062 C 
ATOM      2  C   UNL     1       0.035   0.067   0.086  0.00  0.00    +0.259 C 
ENDROOT
BRANCH   2   3
ATOM      3  C   UNL     1       0.666  -0.400  -1.201  0.00  0.00    +0.256 C 
ATOM      4  O   UNL     1       1.677  -1.069  -1.172  0.00  0.00    -0.272 OA
ATOM      5  N   UNL     1       0.107  -0.074  -2.383  0.00  0.00    -0.296 N 
ATOM      6  C   UNL     1      -1.053   0.829  -2.446  0.00  0.00    +0.123 C 
ATOM      7  C   UNL     1      -0.751   1.938  -3.459  0.00  0.00    +0.103 C 
ATOM      8  N   UNL     1      -0.364   1.334  -4.741  0.00  0.00    -0.295 NA
ATOM      9  C   UNL     1       0.874   0.554  -4.610  0.00  0.00    +0.103 C 
ATOM     10  C   UNL     1       0.643  -0.607  -3.644  0.00  0.00    +0.123 C 
BRANCH   8  11
ATOM     11  C   UNL     1      -0.233   2.357  -5.787  0.00  0.00    +0.119 C 
BRANCH  11  12
ATOM     12  C   UNL     1      -0.078   1.688  -7.128  0.00  0.00    -0.033 A 
ATOM     13  C   UNL     1       1.181   1.368  -7.600  0.00  0.00    +0.005 A 
ATOM     14  C   UNL     1       1.323   0.754  -8.830  0.00  0.00    +0.000 A 
ATOM     15  C   UNL     1       0.205   0.460  -9.588  0.00  0.00    +0.000 A 
ATOM     16  C   UNL     1      -1.055   0.779  -9.116  0.00  0.00    +0.000 A 
ATOM     17  C   UNL     1      -1.196   1.389  -7.884  0.00  0.00    +0.005 A 
ENDBRANCH  11  12
ENDBRANCH   8  11
ENDBRANCH   2   3
BRANCH   2  18
ATOM     18  O   UNL     1       0.644  -0.609   1.188  0.00  0.00    -0.449 OA
BRANCH  18  19
ATOM     19  C   UNL     1      -0.123  -0.820   2.275  0.00  0.00    +0.342 C 
ATOM     20  O   UNL     1      -1.278  -0.440   2.288  0.00  0.00    -0.245 OA
BRANCH  19  21
ATOM     21  C   UNL     1       0.437  -1.511   3.449  0.00  0.00    +0.082 A 
ATOM     22  C   UNL     1       1.721  -2.060   3.396  0.00  0.00    +0.049 A 
ATOM     23  C   UNL     1       2.239  -2.705   4.497  0.00  0.00    +0.127 A 
ATOM     24  C   UNL     1       1.494  -2.813   5.660  0.00  0.00    +0.034 A 
ATOM     25  C   UNL     1       0.225  -2.277   5.730  0.00  0.00    +0.026 A 
ATOM     26  C   UNL     1      -0.313  -1.617   4.631  0.00  0.00    +0.039 A 
BRANCH  26  27
ATOM     27  N   UNL     1      -1.588  -1.071   4.701  0.00  0.00    -0.357 N 
ATOM     28  H   UNL     1      -1.995  -0.688   3.908  0.00  0.00    +0.142 HD
ATOM     29  H   UNL     1      -2.071  -1.073   5.542  0.00  0.00    +0.142 HD
ENDBRANCH  26  27
BRANCH  23  30
ATOM     30  N   UNL     1       3.599  -3.286   4.437  0.00  0.00    +0.056 N 
ATOM     31  O   UNL     1       4.253  -3.194   3.424  0.00  0.00    -0.126 OA
ATOM     32  O   UNL     1       4.058  -3.853   5.402  0.00  0.00    -0.126 OA
ENDBRANCH  23  30
ENDBRANCH  19  21
ENDBRANCH  18  19
ENDBRANCH   2  18
TORSDOF 8
