REMARK  Name = ZINC22798561
REMARK  7 active torsions:
REMARK  status: ('A' for Active; 'I' for Inactive)
REMARK    1  A    between atoms: C_1  and  C_2
REMARK    2  A    between atoms: C_2  and  N_3
REMARK    3  A    between atoms: N_6  and  C_9
REMARK    4  A    between atoms: C_9  and  C_11
REMARK    5  A    between atoms: C_9  and  C_19
REMARK    6  A    between atoms: C_20  and  O_32
REMARK    7  A    between atoms: C_25  and  C_27
REMARK                            x       y       z     vdW  Elec       q    Type
REMARK                         _______ _______ _______ _____ _____    ______ ____
ROOT
ATOM      1  C   UNL     1       3.433  -2.512  -3.697  0.00  0.00    +0.131 C 
ENDROOT
BRANCH   1   2
ATOM      2  C   UNL     1       3.493  -3.981  -3.366  0.00  0.00    -0.007 A 
ATOM      3  C   UNL     1       2.490  -4.560  -2.611  0.00  0.00    +0.008 A 
ATOM      4  C   UNL     1       2.543  -5.907  -2.306  0.00  0.00    +0.020 A 
ATOM      5  C   UNL     1       3.601  -6.677  -2.757  0.00  0.00    +0.042 A 
ATOM      6  C   UNL     1       4.605  -6.098  -3.512  0.00  0.00    +0.040 A 
ATOM      7  C   UNL     1       4.548  -4.750  -3.821  0.00  0.00    +0.047 A 
ATOM      8 CL   UNL     1       5.804  -4.024  -4.775  0.00  0.00    -0.083 Cl
ATOM      9 CL   UNL     1       3.669  -8.368  -2.373  0.00  0.00    -0.083 Cl
ENDBRANCH   1   2
BRANCH   1  10
ATOM     10  C   UNL     1       2.750  -2.325  -5.028  0.00  0.00    +0.076 A 
ATOM     11  C   UNL     1       3.253  -1.859  -6.177  0.00  0.00    +0.228 A 
ATOM     12  N   UNL     1       2.466  -1.761  -7.298  0.00  0.00    -0.173 N 
ATOM     13  C   UNL     1       1.162  -2.157  -7.181  0.00  0.00    +0.200 A 
ATOM     14  S   UNL     1       1.058  -2.674  -5.484  0.00  0.00    -0.047 S 
ATOM     15  N   UNL     1       0.551  -2.004  -8.322  0.00  0.00    -0.197 NA
ATOM     16  C   UNL     1       1.412  -1.510  -9.223  0.00  0.00    +0.218 A 
ATOM     17  N   UNL     1       2.585  -1.345  -8.649  0.00  0.00    -0.138 NA
BRANCH  16  18
ATOM     18  C   UNL     1       1.095  -1.199 -10.632  0.00  0.00    +0.173 A 
ATOM     19  C   UNL     1      -0.115  -1.360 -11.232  0.00  0.00    +0.053 A 
ATOM     20  C   UNL     1       0.037  -0.941 -12.569  0.00  0.00    +0.042 A 
ATOM     21  C   UNL     1       1.317  -0.550 -12.718  0.00  0.00    +0.196 A 
ATOM     22  O   UNL     1       1.952  -0.702 -11.544  0.00  0.00    -0.460 OA
ENDBRANCH  16  18
BRANCH  11  23
ATOM     23  O   UNL     1       4.558  -1.478  -6.235  0.00  0.00    -0.492 OA
ATOM     24  H   UNL     1       4.835  -1.155  -7.103  0.00  0.00    +0.294 HD
ENDBRANCH  11  23
ENDBRANCH   1  10
BRANCH   1  28
ATOM     25  N   UNL     1       2.292   0.246  -0.704  0.00  0.00    +0.381 N 
ATOM     26  C   UNL     1       2.548  -1.143  -0.302  0.00  0.00    -0.063 C 
ATOM     27  C   UNL     1       3.393  -1.837  -1.372  0.00  0.00    +0.067 C 
ATOM     28  N   UNL     1       2.678  -1.804  -2.655  0.00  0.00    -0.295 NA
ATOM     29  C   UNL     1       2.393  -0.420  -3.059  0.00  0.00    +0.067 C 
ATOM     30  C   UNL     1       1.555   0.262  -1.974  0.00  0.00    -0.063 C 
ATOM     31  H   UNL     1       3.170   0.730  -0.819  0.00  0.00    -0.082 HD
BRANCH  25  33
ATOM     32  C   UNL     1       2.313   1.011   1.622  0.00  0.00    -0.017 C 
ATOM     33  C   UNL     1       1.496   0.917   0.332  0.00  0.00    -0.082 C 
ENDBRANCH  25  33
ENDBRANCH   1  28
TORSDOF 6
