REMARK  Name = ZINC05867443
REMARK  4 active torsions:
REMARK  status: ('A' for Active; 'I' for Inactive)
REMARK    1  A    between atoms: C_1  and  C_2
REMARK    2  A    between atoms: C_5  and  N_9
REMARK    3  A    between atoms: C_13  and  C_14
REMARK    4  A    between atoms: C_17  and  N_20
REMARK                            x       y       z     vdW  Elec       q    Type
REMARK                         _______ _______ _______ _____ _____    ______ ____
ROOT
ATOM      1  N   UNL     1       1.363   1.758  -0.750  0.00  0.00    -0.216 N 
ATOM      2  C   UNL     1       0.116   1.448  -0.342  0.00  0.00    +0.271 C 
ATOM      3  O   UNL     1      -0.820   2.213  -0.203  0.00  0.00    -0.268 OA
ATOM      4  C   UNL     1       0.114  -0.006  -0.103  0.00  0.00    +0.097 C 
ATOM      5  C   UNL     1      -0.924  -0.770   0.319  0.00  0.00    +0.036 C 
ATOM      6  N   UNL     1       1.413  -0.429  -0.407  0.00  0.00    -0.292 N 
ATOM      7  C   UNL     1       2.119   0.650  -0.786  0.00  0.00    +0.148 C 
ATOM      8  S   UNL     1       3.766   0.616  -1.253  0.00  0.00    -0.018 S 
ATOM      9  H   UNL     1       1.745  -1.339  -0.353  0.00  0.00    +0.154 HD
ENDROOT
BRANCH   1  14
ATOM     10  C   UNL     1       3.148   6.972  -2.111  0.00  0.00    +0.045 C 
ATOM     11  C   UNL     1       2.674   5.587  -1.750  0.00  0.00    -0.032 A 
ATOM     12  C   UNL     1       3.167   4.962  -0.619  0.00  0.00    +0.006 A 
ATOM     13  C   UNL     1       2.730   3.696  -0.282  0.00  0.00    +0.024 A 
ATOM     14  C   UNL     1       1.803   3.045  -1.087  0.00  0.00    +0.045 A 
ATOM     15  C   UNL     1       1.310   3.674  -2.221  0.00  0.00    +0.044 A 
ATOM     16  C   UNL     1       1.746   4.944  -2.550  0.00  0.00    +0.046 A 
ATOM     17 CL   UNL     1       1.131   5.732  -3.970  0.00  0.00    -0.083 Cl
ENDBRANCH   1  14
BRANCH   5  18
ATOM     18  C   UNL     1      -2.176  -0.134   0.753  0.00  0.00    -0.023 A 
ATOM     19  C   UNL     1      -2.143   1.071   1.464  0.00  0.00    +0.010 A 
ATOM     20  C   UNL     1      -3.321   1.664   1.864  0.00  0.00    +0.033 A 
ATOM     21  C   UNL     1      -4.535   1.065   1.573  0.00  0.00    +0.126 A 
ATOM     22  C   UNL     1      -4.576  -0.129   0.875  0.00  0.00    +0.033 A 
ATOM     23  C   UNL     1      -3.407  -0.732   0.464  0.00  0.00    +0.010 A 
BRANCH  21  24
ATOM     24  N   UNL     1      -5.795   1.706   2.011  0.00  0.00    +0.056 N 
ATOM     25  O   UNL     1      -6.865   1.182   1.757  0.00  0.00    -0.126 OA
ATOM     26  O   UNL     1      -5.763   2.757   2.626  0.00  0.00    -0.126 OA
ENDBRANCH  21  24
ENDBRANCH   5  18
TORSDOF 3
