REMARK  Name = ZINC09514979
REMARK  15 active torsions:
REMARK  status: ('A' for Active; 'I' for Inactive)
REMARK    1  A    between atoms: C_1  and  C_2
REMARK    2  A    between atoms: C_5  and  C_7
REMARK    3  A    between atoms: C_10  and  C_12
REMARK    4  A    between atoms: C_12  and  N_71
REMARK    5  A    between atoms: C_13  and  N_71
REMARK    6  A    between atoms: C_14  and  C_15
REMARK    7  A    between atoms: C_14  and  N_71
REMARK    8  A    between atoms: N_17  and  C_18
REMARK    9  A    between atoms: N_17  and  C_22
REMARK   10  A    between atoms: C_18  and  C_19
REMARK   11  A    between atoms: C_19  and  C_20
REMARK   12  A    between atoms: C_19  and  C_21
REMARK   13  A    between atoms: C_23  and  N_38
REMARK   14  A    between atoms: N_24  and  C_31
REMARK   15  A    between atoms: C_31  and  C_32
REMARK                            x       y       z     vdW  Elec       q    Type
REMARK                         _______ _______ _______ _____ _____    ______ ____
ROOT
ATOM      1  C   UNL     1      -2.665   5.149  -0.150  0.00  0.00    +0.203 C 
ATOM      2  O   UNL     1      -1.679   5.855  -0.182  0.00  0.00    -0.277 OA
ATOM      3  N   UNL     1      -2.534   3.814  -0.001  0.00  0.00    -0.266 N 
ENDROOT
BRANCH   3   4
ATOM      4  C   UNL     1      -1.251   3.228   0.014  0.00  0.00    +0.140 A 
ATOM      5  C   UNL     1      -0.890   2.303  -0.944  0.00  0.00    +0.128 A 
ATOM      6  N   UNL     1       0.368   1.749  -0.903  0.00  0.00    -0.276 N 
ATOM      7  C   UNL     1       1.238   2.107   0.059  0.00  0.00    +0.331 A 
ATOM      8  O   UNL     1       2.346   1.606   0.078  0.00  0.00    -0.246 OA
ATOM      9  N   UNL     1       0.904   3.007   1.001  0.00  0.00    -0.273 N 
ATOM     10  H   UNL     1       1.571   3.258   1.703  0.00  0.00    +0.173 HD
ATOM     11  C   UNL     1      -0.318   3.575   1.009  0.00  0.00    +0.277 A 
ATOM     12  O   UNL     1      -0.611   4.387   1.870  0.00  0.00    -0.266 OA
BRANCH   5  13
ATOM     13  N   UNL     1      -1.779   1.938  -1.927  0.00  0.00    -0.343 N 
ATOM     14  H   UNL     1      -1.497   1.342  -2.639  0.00  0.00    +0.144 HD
ATOM     15  H   UNL     1      -2.688   2.277  -1.910  0.00  0.00    +0.144 HD
ENDBRANCH   5  13
BRANCH   6  16
ATOM     16  C   UNL     1       0.764   0.766  -1.914  0.00  0.00    +0.163 C 
BRANCH  16  17
ATOM     17  C   UNL     1       0.414  -0.619  -1.432  0.00  0.00    -0.028 A 
ATOM     18  C   UNL     1       1.332  -1.350  -0.702  0.00  0.00    +0.005 A 
ATOM     19  C   UNL     1       1.009  -2.618  -0.256  0.00  0.00    +0.000 A 
ATOM     20  C   UNL     1      -0.229  -3.158  -0.549  0.00  0.00    +0.000 A 
ATOM     21  C   UNL     1      -1.146  -2.429  -1.283  0.00  0.00    +0.000 A 
ATOM     22  C   UNL     1      -0.824  -1.159  -1.725  0.00  0.00    +0.005 A 
ENDBRANCH  16  17
ENDBRANCH   6  16
ENDBRANCH   3   4
BRANCH   1  23
ATOM     23  C   UNL     1      -4.036   5.762  -0.278  0.00  0.00    +0.019 C 
BRANCH  23  25
ATOM     24  C   UNL     1      -3.253   7.561  -1.698  0.00  0.00    -0.095 C 
ATOM     25  N   UNL     1      -3.893   7.227  -0.407  0.00  0.00    +0.388 N 
ATOM     26  H   UNL     1      -3.301   7.573   0.357  0.00  0.00    -0.081 HD
BRANCH  25  27
ATOM     27  C   UNL     1      -5.218   7.874  -0.318  0.00  0.00    -0.003 C 
BRANCH  27  31
ATOM     28  C   UNL     1      -4.725  11.374   0.599  0.00  0.00    +0.108 A 
ATOM     29  C   UNL     1      -4.787  11.510  -0.738  0.00  0.00    +0.045 A 
ATOM     30  C   UNL     1      -4.976  10.216  -1.273  0.00  0.00    +0.043 A 
ATOM     31  C   UNL     1      -5.026   9.367  -0.231  0.00  0.00    +0.089 A 
ATOM     32  O   UNL     1      -4.870  10.073   0.900  0.00  0.00    -0.466 OA
BRANCH  28  36
ATOM     33  C   UNL     1      -5.908  14.152   3.065  0.00  0.00    +0.008 C 
ATOM     34  C   UNL     1      -5.622  12.712   2.635  0.00  0.00    -0.003 C 
ATOM     35  C   UNL     1      -4.279  12.105   3.050  0.00  0.00    +0.015 C 
ATOM     36  C   UNL     1      -4.526  12.492   1.591  0.00  0.00    +0.058 C 
ENDBRANCH  28  36
ENDBRANCH  27  31
ENDBRANCH  25  27
ENDBRANCH  23  25
ENDBRANCH   1  23
BRANCH   3  37
ATOM     37  C   UNL     1      -3.725   2.973   0.145  0.00  0.00    +0.117 C 
BRANCH  37  38
ATOM     38  C   UNL     1      -4.161   2.957   1.611  0.00  0.00    +0.001 C 
ATOM     39  C   UNL     1      -5.489   2.209   1.740  0.00  0.00    +0.009 C 
ATOM     40  C   UNL     1      -3.095   2.253   2.453  0.00  0.00    +0.009 C 
ENDBRANCH  37  38
ENDBRANCH   3  37
TORSDOF 11
