REMARK  Name = ZINC13627241
REMARK  5 active torsions:
REMARK  status: ('A' for Active; 'I' for Inactive)
REMARK    1  A    between atoms: C_1  and  O_2
REMARK    2  A    between atoms: O_2  and  C_3
REMARK    3  A    between atoms: C_7  and  C_9
REMARK    4  A    between atoms: C_23  and  C_25
REMARK    5  A    between atoms: C_26  and  C_27
REMARK                            x       y       z     vdW  Elec       q    Type
REMARK                         _______ _______ _______ _____ _____    ______ ____
ROOT
ATOM      1  C   UNL     1      -2.524   3.865   0.045  0.00  0.00    +0.070 C 
ATOM      2  N   UNL     1      -2.659   5.149   0.059  0.00  0.00    -0.180 NA
ATOM      3  N   UNL     1      -3.987   5.582   0.069  0.00  0.00    -0.169 N 
ATOM      4  C   UNL     1      -4.856   4.406   0.072  0.00  0.00    +0.168 C 
ATOM      5  C   UNL     1      -3.892   3.215   0.056  0.00  0.00    +0.100 C 
ATOM      6  C   UNL     1      -5.784   4.386  -1.108  0.00  0.00    +0.008 A 
ATOM      7  C   UNL     1      -5.587   4.399  -2.470  0.00  0.00    +0.008 A 
ATOM      8  C   UNL     1      -6.673   4.372  -3.327  0.00  0.00    +0.000 A 
ATOM      9  C   UNL     1      -7.956   4.332  -2.812  0.00  0.00    +0.002 A 
ATOM     10  C   UNL     1      -8.158   4.319  -1.448  0.00  0.00    +0.023 A 
ATOM     11  C   UNL     1      -7.071   4.346  -0.578  0.00  0.00    +0.039 A 
ATOM     12  N   UNL     1      -7.019   4.340   0.818  0.00  0.00    -0.283 N 
ATOM     13  C   UNL     1      -5.753   4.373   1.279  0.00  0.00    +0.248 C 
ATOM     14  O   UNL     1      -5.405   4.376   2.441  0.00  0.00    -0.273 OA
ATOM     15  C   UNL     1      -4.397   6.865   0.080  0.00  0.00    +0.260 C 
ATOM     16  O   UNL     1      -5.586   7.123   0.093  0.00  0.00    -0.269 OA
ATOM     17  H   UNL     1      -7.802   4.315   1.389  0.00  0.00    +0.155 HD
ENDROOT
BRANCH   1  22
ATOM     18  C   UNL     1       1.167   3.170   0.007  0.00  0.00    +0.121 A 
ATOM     19  C   UNL     1       1.177   1.781   0.000  0.00  0.00    +0.045 A 
ATOM     20  C   UNL     1      -0.013   1.076   0.008  0.00  0.00    +0.004 A 
ATOM     21  C   UNL     1      -1.218   1.747   0.017  0.00  0.00    +0.010 A 
ATOM     22  C   UNL     1      -1.238   3.144   0.030  0.00  0.00    +0.001 A 
ATOM     23  C   UNL     1      -0.036   3.854   0.022  0.00  0.00    +0.055 A 
BRANCH  18  25
ATOM     24  C   UNL     1       3.543   3.087  -0.017  0.00  0.00    +0.277 C 
ATOM     25  O   UNL     1       2.339   3.857  -0.001  0.00  0.00    -0.495 OA
ENDBRANCH  18  25
ENDBRANCH   1  22
BRANCH  15  26
ATOM     26  C   UNL     1      -3.406   7.957   0.075  0.00  0.00    +0.076 C 
ATOM     27  C   UNL     1      -3.815   9.237   0.085  0.00  0.00    +0.101 C 
BRANCH  27  28
ATOM     28  C   UNL     1      -2.824  10.328   0.080  0.00  0.00    +0.380 C 
ATOM     29  O   UNL     1      -1.637  10.070   0.066  0.00  0.00    -0.241 OA
ATOM     30  O   UNL     1      -3.235  11.611   0.091  0.00  0.00    -0.241 OA
ENDBRANCH  27  28
ENDBRANCH  15  26
TORSDOF 4
