REMARK  Name = ZINC24261971
REMARK  8 active torsions:
REMARK  status: ('A' for Active; 'I' for Inactive)
REMARK    1  A    between atoms: C_1  and  C_2
REMARK    2  A    between atoms: C_5  and  C_34
REMARK    3  A    between atoms: C_6  and  S_8
REMARK    4  A    between atoms: S_8  and  N_11
REMARK    5  A    between atoms: N_14  and  C_17
REMARK    6  A    between atoms: C_17  and  N_18
REMARK    7  A    between atoms: C_22  and  C_30
REMARK    8  A    between atoms: C_27  and  C_29
REMARK                            x       y       z     vdW  Elec       q    Type
REMARK                         _______ _______ _______ _____ _____    ______ ____
ROOT
ATOM      1  N   UNL     1      -1.214   1.029  -2.895  0.00  0.00    -0.174 NA
ATOM      2  C   UNL     1      -2.518   0.511  -3.338  0.00  0.00    +0.125 C 
ATOM      3  C   UNL     1      -3.575   0.913  -2.299  0.00  0.00    +0.103 C 
ATOM      4  N   UNL     1      -3.523   2.367  -2.092  0.00  0.00    -0.284 NA
ATOM      5  C   UNL     1      -2.228   2.780  -1.535  0.00  0.00    +0.103 C 
ATOM      6  C   UNL     1      -1.117   2.452  -2.537  0.00  0.00    +0.125 C 
ENDROOT
BRANCH   1   7
ATOM      7  S   UNL     1       0.109   0.037  -2.808  0.00  0.00    +0.061 S 
ATOM      8  O   UNL     1       1.247   0.858  -3.034  0.00  0.00    -0.153 OA
ATOM      9  O   UNL     1      -0.181  -1.100  -3.609  0.00  0.00    -0.153 OA
BRANCH   7  15
ATOM     10  C   UNL     1       2.511  -0.134   1.831  0.00  0.00    +0.044 C 
ATOM     11  C   UNL     1       1.365  -0.576   0.959  0.00  0.00    -0.049 A 
ATOM     12  C   UNL     1       0.405  -1.435   1.462  0.00  0.00    +0.004 A 
ATOM     13  C   UNL     1      -0.646  -1.841   0.663  0.00  0.00    +0.005 A 
ATOM     14  C   UNL     1      -0.739  -1.389  -0.640  0.00  0.00    -0.024 A 
ATOM     15  C   UNL     1       0.223  -0.534  -1.145  0.00  0.00    +0.109 A 
ATOM     16  C   UNL     1       1.272  -0.123  -0.343  0.00  0.00    +0.032 A 
ATOM     17  C   UNL     1      -1.885  -1.832  -1.512  0.00  0.00    +0.046 C 
ENDBRANCH   7  15
ENDBRANCH   1   7
BRANCH   4  18
ATOM     18  C   UNL     1      -4.631   2.817  -1.239  0.00  0.00    +0.205 C 
BRANCH  18  19
ATOM     19  N   UNL     1      -5.790   1.944  -1.442  0.00  0.00    -0.211 N 
ATOM     20  C   UNL     1      -6.752   2.162  -2.362  0.00  0.00    +0.248 C 
ATOM     21  O   UNL     1      -6.819   3.081  -3.150  0.00  0.00    -0.273 OA
ATOM     22  C   UNL     1      -7.725   1.017  -2.207  0.00  0.00    +0.118 C 
ATOM     23  C   UNL     1      -9.104   1.543  -1.823  0.00  0.00    +0.019 C 
ATOM     24  C   UNL     1     -10.066   0.368  -1.634  0.00  0.00    +0.006 C 
ATOM     25  C   UNL     1     -10.152  -0.434  -2.934  0.00  0.00    +0.001 C 
ATOM     26  C   UNL     1      -8.766  -0.974  -3.296  0.00  0.00    +0.006 C 
ATOM     27  C   UNL     1      -7.799   0.197  -3.491  0.00  0.00    +0.019 C 
ATOM     28  C   UNL     1      -8.297   1.084  -4.634  0.00  0.00    +0.010 C 
ATOM     29  C   UNL     1      -9.002   2.334  -0.517  0.00  0.00    +0.010 C 
ATOM     30  N   UNL     1      -7.160   0.213  -1.116  0.00  0.00    -0.284 N 
ATOM     31  C   UNL     1      -6.028   0.834  -0.732  0.00  0.00    +0.310 C 
ATOM     32  O   UNL     1      -5.305   0.432   0.158  0.00  0.00    -0.252 OA
ATOM     33  H   UNL     1      -7.675  -0.700  -0.782  0.00  0.00    +0.151 HD
ENDBRANCH  18  19
ENDBRANCH   4  18
TORSDOF 4
