REMARK  Name = ZINC23340032
REMARK  6 active torsions:
REMARK  status: ('A' for Active; 'I' for Inactive)
REMARK    1  A    between atoms: C_1  and  N_2
REMARK    2  A    between atoms: C_5  and  C_7
REMARK    3  A    between atoms: C_20  and  N_24
REMARK    4  A    between atoms: N_24  and  C_25
REMARK    5  A    between atoms: C_25  and  C_26
REMARK    6  A    between atoms: C_26  and  N_31
REMARK                            x       y       z     vdW  Elec       q    Type
REMARK                         _______ _______ _______ _____ _____    ______ ____
ROOT
ATOM      1  C   UNL     1      -1.175  -0.639  -1.067  0.00  0.00    +0.172 C 
ATOM      2  N   UNL     1       0.034   0.164  -0.861  0.00  0.00    -0.270 N 
ATOM      3  C   UNL     1       0.054   1.496  -0.695  0.00  0.00    +0.043 A 
ATOM      4  C   UNL     1       1.350   1.861  -0.538  0.00  0.00    +0.004 A 
ATOM      5  C   UNL     1       2.098   0.674  -0.616  0.00  0.00    +0.151 A 
ATOM      6  N   UNL     1       1.232  -0.306  -0.812  0.00  0.00    -0.166 NA
ATOM      7  C   UNL     1       1.821   3.274  -0.329  0.00  0.00    +0.023 C 
ATOM      8  C   UNL     1       0.683   4.224  -0.726  0.00  0.00    -0.067 C 
ATOM      9  C   UNL     1      -0.616   3.779  -0.048  0.00  0.00    -0.009 C 
ATOM     10  C   UNL     1      -1.101   2.465  -0.671  0.00  0.00    +0.054 C 
ENDROOT
BRANCH   5  11
ATOM     11  C   UNL     1       3.565   0.546  -0.500  0.00  0.00    +0.267 C 
ATOM     12  O   UNL     1       4.257   1.542  -0.420  0.00  0.00    -0.268 OA
ATOM     13  N   UNL     1       4.135  -0.675  -0.484  0.00  0.00    -0.292 N 
ATOM     14  C   UNL     1       5.587  -0.839  -0.301  0.00  0.00    +0.113 C 
ATOM     15  C   UNL     1       5.813  -1.582   1.015  0.00  0.00    +0.054 C 
ATOM     16  C   UNL     1       4.913  -2.786   1.113  0.00  0.00    -0.041 A 
ATOM     17  C   UNL     1       5.271  -3.787   2.008  0.00  0.00    +0.004 A 
ATOM     18  C   UNL     1       4.486  -4.911   2.154  0.00  0.00    +0.000 A 
ATOM     19  C   UNL     1       3.331  -5.045   1.406  0.00  0.00    +0.000 A 
ATOM     20  C   UNL     1       2.975  -4.055   0.514  0.00  0.00    +0.005 A 
ATOM     21  C   UNL     1       3.768  -2.925   0.362  0.00  0.00    -0.027 A 
ATOM     22  C   UNL     1       3.334  -1.893  -0.643  0.00  0.00    +0.143 C 
ENDBRANCH   5  11
BRANCH   8  23
ATOM     23  N   UNL     1       1.014   5.591  -0.300  0.00  0.00    +0.382 N 
ATOM     24  H   UNL     1       0.715   5.731   0.749  0.00  0.00    -0.085 HD
ATOM     25  H   UNL     1       2.098   5.752  -0.396  0.00  0.00    -0.085 HD
BRANCH  23  26
ATOM     26  C   UNL     1       0.316   6.584  -1.127  0.00  0.00    -0.060 C 
BRANCH  26  27
ATOM     27  C   UNL     1       0.772   7.989  -0.730  0.00  0.00    +0.007 C 
ATOM     28  C   UNL     1       2.278   8.157  -1.020  0.00  0.00    +0.020 C 
ATOM     29  C   UNL     1       2.796   9.024   0.156  0.00  0.00    +0.002 C 
ATOM     30  C   UNL     1       1.990   8.481   1.363  0.00  0.00    +0.002 C 
ATOM     31  C   UNL     1       0.589   8.195   0.784  0.00  0.00    +0.020 C 
BRANCH  27  32
ATOM     32  N   UNL     1       0.001   8.996  -1.471  0.00  0.00    -0.294 NA
ATOM     33  C   UNL     1      -1.427   8.924  -1.129  0.00  0.00    +0.113 C 
ATOM     34  C   UNL     1      -2.182  10.027  -1.876  0.00  0.00    +0.175 C 
ATOM     35  O   UNL     1      -1.954   9.885  -3.281  0.00  0.00    -0.377 OA
ATOM     36  C   UNL     1      -0.574   9.951  -3.650  0.00  0.00    +0.175 C 
ATOM     37  C   UNL     1       0.198   8.848  -2.920  0.00  0.00    +0.113 C 
ENDBRANCH  27  32
ENDBRANCH  26  27
ENDBRANCH  23  26
ENDBRANCH   8  23
TORSDOF 5
