REMARK  Name = ZINC37558144
REMARK  6 active torsions:
REMARK  status: ('A' for Active; 'I' for Inactive)
REMARK    1  A    between atoms: C_1  and  C_2
REMARK    2  A    between atoms: C_2  and  N_3
REMARK    3  A    between atoms: C_5  and  S_9
REMARK    4  A    between atoms: S_9  and  N_12
REMARK    5  A    between atoms: N_12  and  C_13
REMARK    6  A    between atoms: C_18  and  C_19
REMARK                            x       y       z     vdW  Elec       q    Type
REMARK                         _______ _______ _______ _____ _____    ______ ____
ROOT
ATOM      1  S   UNL     1       3.484  -2.593  -3.102  0.00  0.00    +0.077 S 
ATOM      2  O   UNL     1       4.133  -1.835  -4.113  0.00  0.00    -0.150 OA
ATOM      3  O   UNL     1       4.188  -3.170  -2.011  0.00  0.00    -0.150 OA
ENDROOT
BRANCH   1   6
ATOM      4  N   UNL     1       1.004  -0.472  -0.970  0.00  0.00    -0.268 N 
ATOM      5  C   UNL     1       2.041  -1.327  -1.089  0.00  0.00    +0.139 A 
ATOM      6  C   UNL     1       2.246  -1.550  -2.407  0.00  0.00    +0.167 A 
ATOM      7  C   UNL     1       1.297  -0.802  -3.123  0.00  0.00    +0.165 A 
ATOM      8  N   UNL     1       0.549  -0.160  -2.257  0.00  0.00    -0.154 NA
ATOM      9  N   UNL     1       1.168  -0.755  -4.516  0.00  0.00    -0.340 N 
ATOM     10  H   UNL     1       1.719  -1.326  -5.073  0.00  0.00    +0.144 HD
ATOM     11  H   UNL     1       0.527  -0.152  -4.923  0.00  0.00    +0.144 HD
BRANCH   4  13
ATOM     12  C   UNL     1       0.438   1.566   0.258  0.00  0.00    +0.029 C 
ATOM     13  C   UNL     1       0.447   0.036   0.286  0.00  0.00    +0.140 C 
ENDBRANCH   4  13
ENDBRANCH   1   6
BRANCH   1  14
ATOM     14  N   UNL     1       2.702  -3.835  -3.871  0.00  0.00    -0.216 N 
ATOM     15  H   UNL     1       2.824  -3.968  -4.824  0.00  0.00    +0.174 HD
BRANCH  14  16
ATOM     16  C   UNL     1       1.868  -4.690  -3.147  0.00  0.00    +0.051 A 
ATOM     17  C   UNL     1       2.189  -5.034  -1.840  0.00  0.00    +0.026 A 
ATOM     18  C   UNL     1       1.362  -5.879  -1.126  0.00  0.00    +0.017 A 
ATOM     19  C   UNL     1       0.214  -6.382  -1.712  0.00  0.00    +0.018 A 
ATOM     20  C   UNL     1      -0.109  -6.041  -3.013  0.00  0.00    +0.020 A 
ATOM     21  C   UNL     1       0.712  -5.192  -3.730  0.00  0.00    -0.027 A 
ATOM     22  C   UNL     1       0.355  -4.816  -5.145  0.00  0.00    +0.046 C 
ATOM     23 BR   UNL     1      -0.916  -7.539  -0.732  0.00  0.00    -0.050 Br
ENDBRANCH  14  16
ENDBRANCH   1  14
TORSDOF 4
