REMARK  Name = ZINC64290989
REMARK  3 active torsions:
REMARK  status: ('A' for Active; 'I' for Inactive)
REMARK    1  A    between atoms: C_6  and  C_7
REMARK    2  A    between atoms: C_7  and  C_13
REMARK    3  A    between atoms: N_15  and  C_16
REMARK                            x       y       z     vdW  Elec       q    Type
REMARK                         _______ _______ _______ _____ _____    ______ ____
ROOT
ATOM      1  C   UNL     1      -1.562  -1.143   0.217  0.00  0.00    +0.072 C 
ATOM      2  C   UNL     1      -1.000  -2.067   1.300  0.00  0.00    +0.021 C 
ATOM      3  C   UNL     1      -1.923  -3.276   1.467  0.00  0.00    +0.001 C 
ATOM      4  C   UNL     1      -3.318  -2.801   1.876  0.00  0.00    +0.000 C 
ATOM      5  C   UNL     1      -3.880  -1.877   0.794  0.00  0.00    +0.001 C 
ATOM      6  C   UNL     1      -2.958  -0.668   0.626  0.00  0.00    +0.021 C 
ENDROOT
BRANCH   1  12
ATOM      7  C   UNL     1      -1.191   1.320  -0.017  0.00  0.00    +0.008 A 
ATOM      8  C   UNL     1      -0.362   2.416  -0.169  0.00  0.00    +0.050 A 
ATOM      9  C   UNL     1       1.010   2.241  -0.251  0.00  0.00    +0.166 A 
ATOM     10  C   UNL     1       1.551   0.960  -0.180  0.00  0.00    +0.167 A 
ATOM     11  C   UNL     1       0.714  -0.134  -0.029  0.00  0.00    +0.054 A 
ATOM     12  C   UNL     1      -0.654   0.048   0.053  0.00  0.00    -0.029 A 
ATOM     13  O   UNL     1       2.909   1.053  -0.284  0.00  0.00    -0.453 OA
ATOM     14  C   UNL     1       3.163   2.362  -0.828  0.00  0.00    +0.466 C 
ATOM     15  O   UNL     1       2.029   3.138  -0.399  0.00  0.00    -0.453 OA
ENDBRANCH   1  12
BRANCH   1  16
ATOM     16  C   UNL     1      -1.649  -1.893  -1.087  0.00  0.00    +0.224 C 
ATOM     17  O   UNL     1      -2.695  -1.923  -1.701  0.00  0.00    -0.275 OA
ATOM     18  N   UNL     1      -0.565  -2.530  -1.572  0.00  0.00    -0.303 N 
ATOM     19  H   UNL     1       0.259  -2.544  -1.059  0.00  0.00    +0.149 HD
BRANCH  18  20
ATOM     20  C   UNL     1      -0.630  -3.201  -2.872  0.00  0.00    +0.159 C 
ATOM     21  C   UNL     1       0.544  -4.173  -3.009  0.00  0.00    +0.032 C 
ATOM     22  C   UNL     1       1.780  -3.623  -2.321  0.00  0.00    +0.004 C 
ATOM     23  C   UNL     1       2.348  -2.381  -2.984  0.00  0.00    +0.019 C 
ATOM     24  C   UNL     1       1.387  -1.200  -2.842  0.00  0.00    +0.104 C 
ATOM     25  N   UNL     1       0.421  -1.243  -3.952  0.00  0.00    -0.314 N 
ATOM     26  C   UNL     1      -0.534  -2.173  -3.980  0.00  0.00    +0.233 C 
ATOM     27  O   UNL     1      -1.328  -2.197  -4.897  0.00  0.00    -0.274 OA
ATOM     28  H   UNL     1       0.479  -0.590  -4.667  0.00  0.00    +0.149 HD
ENDBRANCH  18  20
ENDBRANCH   1  16
TORSDOF 3
