REMARK  Name = ZINC03374201
REMARK  6 active torsions:
REMARK  status: ('A' for Active; 'I' for Inactive)
REMARK    1  A    between atoms: C_6  and  C_7
REMARK    2  A    between atoms: C_13  and  C_17
REMARK    3  A    between atoms: C_17  and  O_19
REMARK    4  A    between atoms: O_19  and  C_20
REMARK    5  A    between atoms: C_20  and  C_21
REMARK    6  A    between atoms: N_26  and  C_27
REMARK                            x       y       z     vdW  Elec       q    Type
REMARK                         _______ _______ _______ _____ _____    ______ ____
ROOT
ATOM      1  C   UNL     1       0.271  -2.131   2.430  0.00  0.00    +0.329 C 
ATOM      2  O   UNL     1       1.157  -1.855   1.657  0.00  0.00    -0.249 OA
ENDROOT
BRANCH   1   9
ATOM      3  C   UNL     1      -1.387  -0.563   0.209  0.00  0.00    +0.110 C 
ATOM      4  C   UNL     1      -2.053  -0.520  -1.176  0.00  0.00    +0.051 C 
ATOM      5  C   UNL     1      -1.430  -1.770  -1.842  0.00  0.00    +0.099 C 
ATOM      6  C   UNL     1      -1.085  -2.676  -0.684  0.00  0.00    +0.218 C 
ATOM      7  O   UNL     1      -0.778  -3.844  -0.790  0.00  0.00    -0.276 OA
ATOM      8  N   UNL     1      -1.166  -2.003   0.492  0.00  0.00    -0.268 N 
ATOM      9  C   UNL     1      -1.142  -2.292   1.931  0.00  0.00    +0.196 C 
ATOM     10  C   UNL     1      -2.062  -1.379   2.768  0.00  0.00    +0.105 C 
ATOM     11  S   UNL     1      -2.600  -0.133   1.522  0.00  0.00    -0.128 S 
BRANCH   3  17
ATOM     12  C   UNL     1       1.065  -0.263  -0.189  0.00  0.00    +0.009 A 
ATOM     13  C   UNL     1       2.223   0.489  -0.125  0.00  0.00    +0.039 A 
ATOM     14  C   UNL     1       2.189   1.766   0.409  0.00  0.00    +0.123 A 
ATOM     15  C   UNL     1       0.995   2.288   0.878  0.00  0.00    +0.039 A 
ATOM     16  C   UNL     1      -0.161   1.534   0.813  0.00  0.00    +0.009 A 
ATOM     17  C   UNL     1      -0.126   0.259   0.280  0.00  0.00    -0.014 A 
ATOM     18  F   UNL     1       3.320   2.502   0.473  0.00  0.00    -0.205 F 
ENDBRANCH   3  17
ENDBRANCH   1   9
BRANCH   1  19
ATOM     19  O   UNL     1       0.544  -2.296   3.734  0.00  0.00    -0.454 OA
BRANCH  19  20
ATOM     20  C   UNL     1       1.905  -2.130   4.137  0.00  0.00    +0.328 C 
BRANCH  20  21
ATOM     21  C   UNL     1       2.019  -2.352   5.623  0.00  0.00    +0.258 C 
ATOM     22  O   UNL     1       1.033  -2.625   6.273  0.00  0.00    -0.272 OA
ATOM     23  N   UNL     1       3.218  -2.245   6.230  0.00  0.00    -0.237 N 
ATOM     24  C   UNL     1       3.320  -2.444   7.559  0.00  0.00    +0.306 C 
ATOM     25  O   UNL     1       2.332  -2.719   8.211  0.00  0.00    -0.252 OA
ATOM     26  N   UNL     1       4.519  -2.338   8.166  0.00  0.00    -0.296 N 
ATOM     27  H   UNL     1       4.007  -2.026   5.710  0.00  0.00    +0.159 HD
ATOM     28  H   UNL     1       5.308  -2.119   7.647  0.00  0.00    +0.151 HD
BRANCH  26  29
ATOM     29  C   UNL     1       4.630  -2.554   9.611  0.00  0.00    +0.074 C 
ATOM     30  C   UNL     1       4.375  -1.231  10.364  0.00  0.00    +0.022 C 
ATOM     31  C   UNL     1       5.366  -1.275  11.554  0.00  0.00    +0.002 C 
ATOM     32  C   UNL     1       6.624  -1.926  10.928  0.00  0.00    +0.002 C 
ATOM     33  C   UNL     1       6.060  -2.995   9.970  0.00  0.00    +0.022 C 
ENDBRANCH  26  29
ENDBRANCH  20  21
ENDBRANCH  19  20
ENDBRANCH   1  19
TORSDOF 6
