REMARK  Name = ZINC04156073
REMARK  5 active torsions:
REMARK  status: ('A' for Active; 'I' for Inactive)
REMARK    1  A    between atoms: C_1  and  C_2
REMARK    2  A    between atoms: C_5  and  C_9
REMARK    3  A    between atoms: C_9  and  C_21
REMARK    4  A    between atoms: N_10  and  N_11
REMARK    5  A    between atoms: C_12  and  C_14
REMARK                            x       y       z     vdW  Elec       q    Type
REMARK                         _______ _______ _______ _____ _____    ______ ____
ROOT
ATOM      1  C   UNL     1       0.122  -4.223  -0.022  0.00  0.00    +0.074 C 
ATOM      2  N   UNL     1       1.267  -4.829  -0.135  0.00  0.00    -0.184 NA
ATOM      3  C   UNL     1      -1.147  -5.028   0.093  0.00  0.00    +0.068 C 
ENDROOT
BRANCH   1   8
ATOM      4  C   UNL     1      -0.098   1.500  -0.050  0.00  0.00    +0.086 C 
ATOM      5  C   UNL     1      -0.040  -0.005  -0.026  0.00  0.00    +0.110 A 
ATOM      6  C   UNL     1      -0.003  -0.644   1.160  0.00  0.00    +0.093 A 
ATOM      7  C   UNL     1       0.051  -2.050   1.201  0.00  0.00    +0.198 A 
ATOM      8  C   UNL     1       0.066  -2.755  -0.009  0.00  0.00    +0.128 A 
ATOM      9  C   UNL     1       0.025  -2.021  -1.218  0.00  0.00    +0.350 A 
ATOM     10  O   UNL     1       0.036  -2.605  -2.288  0.00  0.00    -0.244 OA
ATOM     11  O   UNL     1      -0.031  -0.678  -1.185  0.00  0.00    -0.427 OA
ATOM     12  O   UNL     1       0.089  -2.707   2.384  0.00  0.00    -0.287 OA
ENDBRANCH   1   8
BRANCH   2  13
ATOM     13  N   UNL     1       1.321  -6.229  -0.148  0.00  0.00    -0.203 N 
ATOM     14  C   UNL     1       2.509  -6.856  -0.265  0.00  0.00    +0.264 C 
ATOM     15  O   UNL     1       3.533  -6.207  -0.358  0.00  0.00    -0.268 OA
ATOM     16  H   UNL     1       0.504  -6.746  -0.073  0.00  0.00    +0.178 HD
BRANCH  14  17
ATOM     17  C   UNL     1       2.565  -8.332  -0.279  0.00  0.00    +0.052 A 
ATOM     18  C   UNL     1       1.391  -9.081  -0.177  0.00  0.00    +0.014 A 
ATOM     19  C   UNL     1       1.451 -10.458  -0.191  0.00  0.00    +0.001 A 
ATOM     20  C   UNL     1       2.672 -11.100  -0.305  0.00  0.00    +0.001 A 
ATOM     21  C   UNL     1       3.840 -10.366  -0.406  0.00  0.00    +0.016 A 
ATOM     22  C   UNL     1       3.794  -8.986  -0.399  0.00  0.00    +0.030 A 
ATOM     23 BR   UNL     1       5.391  -7.984  -0.545  0.00  0.00    -0.050 Br
ENDBRANCH  14  17
ENDBRANCH   2  13
TORSDOF 3
