REMARK  Name = ZINC13640506
REMARK  6 active torsions:
REMARK  status: ('A' for Active; 'I' for Inactive)
REMARK    1  A    between atoms: C_1  and  C_2
REMARK    2  A    between atoms: C_2  and  C_3
REMARK    3  A    between atoms: N_5  and  C_6
REMARK    4  A    between atoms: C_19  and  C_22
REMARK    5  A    between atoms: C_25  and  O_29
REMARK    6  A    between atoms: C_27  and  O_28
REMARK                            x       y       z     vdW  Elec       q    Type
REMARK                         _______ _______ _______ _____ _____    ______ ____
ROOT
ATOM      1  C   UNL     1       3.318  -6.732   0.390  0.00  0.00    +0.034 A 
ATOM      2  C   UNL     1       3.724  -6.003   1.500  0.00  0.00    +0.025 A 
ATOM      3  C   UNL     1       3.414  -4.660   1.584  0.00  0.00    +0.025 A 
ATOM      4  C   UNL     1       2.702  -4.044   0.562  0.00  0.00    +0.031 A 
ATOM      5  C   UNL     1       2.295  -4.765  -0.550  0.00  0.00    -0.018 A 
ATOM      6  C   UNL     1       2.608  -6.115  -0.627  0.00  0.00    +0.029 A 
ATOM      7  C   UNL     1       1.529  -4.142  -1.673  0.00  0.00    +0.049 C 
ATOM      8  C   UNL     1       0.073  -4.542  -1.635  0.00  0.00    -0.023 C 
ATOM      9  C   UNL     1      -0.683  -3.540  -2.013  0.00  0.00    -0.030 C 
ATOM     10  C   UNL     1       0.169  -2.334  -2.361  0.00  0.00    +0.033 C 
ATOM     11  C   UNL     1       1.499  -2.603  -1.603  0.00  0.00    +0.029 C 
ATOM     12  C   UNL     1       1.302  -2.149  -0.154  0.00  0.00    +0.108 C 
ATOM     13  N   UNL     1       2.396  -2.680   0.666  0.00  0.00    -0.336 N 
ATOM     14  H   UNL     1       2.894  -2.103   1.265  0.00  0.00    +0.147 HD
ENDROOT
BRANCH  12  15
ATOM     15  C   UNL     1       1.310  -0.643  -0.091  0.00  0.00    +0.015 A 
ATOM     16  C   UNL     1       0.130   0.045   0.118  0.00  0.00    +0.012 A 
ATOM     17  C   UNL     1       0.134   1.426   0.176  0.00  0.00    +0.046 A 
ATOM     18  C   UNL     1       1.323   2.124   0.025  0.00  0.00    +0.120 A 
ATOM     19  C   UNL     1       2.508   1.436  -0.186  0.00  0.00    +0.091 A 
ATOM     20  C   UNL     1       2.501   0.051  -0.244  0.00  0.00    +0.125 A 
BRANCH  20  21
ATOM     21  O   UNL     1       3.661  -0.627  -0.449  0.00  0.00    -0.506 OA
ATOM     22  H   UNL     1       4.170  -0.788   0.356  0.00  0.00    +0.292 HD
ENDBRANCH  20  21
BRANCH  18  23
ATOM     23  O   UNL     1       1.327   3.482   0.082  0.00  0.00    -0.507 OA
ATOM     24  H   UNL     1       1.194   3.913  -0.773  0.00  0.00    +0.292 HD
ENDBRANCH  18  23
ENDBRANCH  12  15
BRANCH   1  27
ATOM     25  C   UNL     1       4.779  -8.562   0.822  0.00  0.00    +0.217 C 
ATOM     26  O   UNL     1       5.590  -7.790   1.288  0.00  0.00    -0.275 OA
ATOM     27  N   UNL     1       3.627  -8.096   0.299  0.00  0.00    -0.285 N 
ATOM     28  H   UNL     1       3.013  -8.705  -0.141  0.00  0.00    +0.155 HD
BRANCH  25  30
ATOM     29  C   UNL     1       6.422 -10.302   1.473  0.00  0.00    +0.013 C 
ATOM     30  C   UNL     1       5.059 -10.043   0.828  0.00  0.00    +0.093 C 
ENDBRANCH  25  30
ENDBRANCH   1  27
TORSDOF 5
