REMARK  Name = ZINC20390580
REMARK  3 active torsions:
REMARK  status: ('A' for Active; 'I' for Inactive)
REMARK    1  A    between atoms: C_6  and  C_7
REMARK    2  A    between atoms: C_10  and  C_13
REMARK    3  A    between atoms: C_18  and  O_19
REMARK                            x       y       z     vdW  Elec       q    Type
REMARK                         _______ _______ _______ _____ _____    ______ ____
ROOT
ATOM      1  C   UNL     1       0.002  -0.004   0.002  0.00  0.00    +0.068 C 
ATOM      2  N   UNL     1       1.064  -0.733  -0.012  0.00  0.00    -0.191 NA
ATOM      3  N   UNL     1       0.814  -2.103  -0.016  0.00  0.00    -0.261 N 
ATOM      4  C   UNL     1      -0.641  -2.322  -0.004  0.00  0.00    +0.128 C 
ATOM      5  C   UNL     1      -1.221  -0.893   0.015  0.00  0.00    +0.086 C 
ATOM      6  H   UNL     1       1.489  -2.800  -0.026  0.00  0.00    +0.169 HD
ENDROOT
BRANCH   1  12
ATOM      7  C   UNL     1      -1.235   2.155   0.020  0.00  0.00    +0.012 A 
ATOM      8  C   UNL     1      -1.248   3.534   0.033  0.00  0.00    +0.039 A 
ATOM      9  C   UNL     1      -0.056   4.241   0.025  0.00  0.00    +0.123 A 
ATOM     10  C   UNL     1       1.155   3.567   0.010  0.00  0.00    +0.039 A 
ATOM     11  C   UNL     1       1.181   2.188   0.003  0.00  0.00    +0.012 A 
ATOM     12  C   UNL     1      -0.018   1.471   0.010  0.00  0.00    -0.002 A 
ATOM     13  F   UNL     1      -0.074   5.592   0.033  0.00  0.00    -0.205 F 
ENDBRANCH   1  12
BRANCH   4  14
ATOM     14  C   UNL     1      -1.078  -3.060  -1.243  0.00  0.00    +0.017 A 
ATOM     15  C   UNL     1      -0.254  -3.096  -2.352  0.00  0.00    +0.024 A 
ATOM     16  C   UNL     1      -0.654  -3.774  -3.489  0.00  0.00    +0.018 A 
ATOM     17  C   UNL     1      -1.879  -4.417  -3.519  0.00  0.00    +0.019 A 
ATOM     18  C   UNL     1      -2.705  -4.383  -2.413  0.00  0.00    +0.047 A 
ATOM     19  C   UNL     1      -2.304  -3.708  -1.269  0.00  0.00    +0.122 A 
ATOM     20 BR   UNL     1       0.475  -3.823  -5.005  0.00  0.00    -0.050 Br
BRANCH  19  21
ATOM     21  O   UNL     1      -3.112  -3.679  -0.177  0.00  0.00    -0.506 OA
ATOM     22  H   UNL     1      -4.085  -4.193  -0.199  0.00  0.00    +0.292 HD
ENDBRANCH  19  21
ENDBRANCH   4  14
TORSDOF 3
