REMARK  Name = ZINC65734262
REMARK  14 active torsions:
REMARK  status: ('A' for Active; 'I' for Inactive)
REMARK    1  A    between atoms: C_1  and  C_2
REMARK    2  A    between atoms: C_5  and  S_8
REMARK    3  A    between atoms: S_8  and  C_9
REMARK    4  A    between atoms: N_16  and  C_19
REMARK    5  A    between atoms: C_21  and  O_37
REMARK    6  A    between atoms: C_23  and  O_33
REMARK    7  A    between atoms: C_25  and  C_28
REMARK    8  A    between atoms: C_28  and  O_29
REMARK    9  A    between atoms: O_29  and  C_30
REMARK   10  A    between atoms: C_30  and  C_32
REMARK   11  A    between atoms: O_33  and  C_34
REMARK   12  A    between atoms: C_34  and  C_36
REMARK   13  A    between atoms: O_37  and  C_38
REMARK   14  A    between atoms: C_38  and  C_40
REMARK                            x       y       z     vdW  Elec       q    Type
REMARK                         _______ _______ _______ _____ _____    ______ ____
ROOT
ATOM      1  C   UNL     1       0.225  -4.966   1.677  0.00  0.00    +0.134 A 
ATOM      2  C   UNL     1       0.391  -6.308   2.063  0.00  0.00    +0.140 A 
ATOM      3  C   UNL     1       0.516  -6.596   3.432  0.00  0.00    +0.169 A 
ATOM      4  N   UNL     1       0.474  -5.599   4.311  0.00  0.00    -0.195 NA
ATOM      5  C   UNL     1       0.318  -4.350   3.904  0.00  0.00    +0.216 A 
ATOM      6  N   UNL     1       0.200  -4.032   2.622  0.00  0.00    -0.206 NA
ATOM      7  N   UNL     1       0.279  -3.338   4.850  0.00  0.00    -0.327 N 
ATOM      8  N   UNL     1       0.662  -7.957   3.521  0.00  0.00    -0.284 N 
ATOM      9  C   UNL     1       0.625  -8.456   2.252  0.00  0.00    +0.203 A 
ATOM     10  N   UNL     1       0.466  -7.487   1.399  0.00  0.00    -0.231 NA
ATOM     11  H   UNL     1       0.367  -3.552   5.792  0.00  0.00    +0.145 HD
ATOM     12  H   UNL     1       0.165  -2.417   4.571  0.00  0.00    +0.145 HD
ENDROOT
BRANCH   8  13
ATOM     13  C   UNL     1       0.829  -8.733   4.753  0.00  0.00    +0.267 C 
ATOM     14  C   UNL     1       2.320  -8.797   5.151  0.00  0.00    +0.269 C 
ATOM     15  C   UNL     1       2.497 -10.224   5.715  0.00  0.00    +0.253 C 
ATOM     16  C   UNL     1       1.092 -10.854   5.591  0.00  0.00    +0.203 C 
ATOM     17  O   UNL     1       0.443 -10.108   4.537  0.00  0.00    -0.342 OA
BRANCH  16  18
ATOM     18  C   UNL     1       1.203 -12.332   5.211  0.00  0.00    +0.267 C 
BRANCH  18  19
ATOM     19  O   UNL     1      -0.098 -12.924   5.215  0.00  0.00    -0.462 OA
BRANCH  19  20
ATOM     20  C   UNL     1      -0.176 -14.226   4.900  0.00  0.00    +0.304 C 
ATOM     21  O   UNL     1       0.826 -14.844   4.630  0.00  0.00    -0.251 OA
ATOM     22  C   UNL     1      -1.515 -14.918   4.884  0.00  0.00    +0.136 C 
ENDBRANCH  19  20
ENDBRANCH  18  19
ENDBRANCH  16  18
BRANCH  15  23
ATOM     23  O   UNL     1       3.447 -10.956   4.937  0.00  0.00    -0.455 OA
BRANCH  23  24
ATOM     24  C   UNL     1       4.162 -11.896   5.574  0.00  0.00    +0.304 C 
ATOM     25  O   UNL     1       3.987 -12.092   6.754  0.00  0.00    -0.251 OA
ATOM     26  C   UNL     1       5.183 -12.707   4.819  0.00  0.00    +0.136 C 
ENDBRANCH  23  24
ENDBRANCH  15  23
BRANCH  14  27
ATOM     27  O   UNL     1       2.613  -7.820   6.152  0.00  0.00    -0.453 OA
BRANCH  27  28
ATOM     28  C   UNL     1       3.029  -6.617   5.726  0.00  0.00    +0.304 C 
ATOM     29  O   UNL     1       3.140  -6.400   4.542  0.00  0.00    -0.251 OA
ATOM     30  C   UNL     1       3.357  -5.536   6.724  0.00  0.00    +0.136 C 
ENDBRANCH  27  28
ENDBRANCH  14  27
ENDBRANCH   8  13
BRANCH   1  31
ATOM     31  S   UNL     1       0.062  -4.533  -0.023  0.00  0.00    -0.068 S 
BRANCH  31  36
ATOM     32  C   UNL     1      -0.035   1.502   0.010  0.00  0.00    +0.044 C 
ATOM     33  C   UNL     1      -0.011  -0.004   0.002  0.00  0.00    -0.050 A 
ATOM     34  C   UNL     1       1.199  -0.675  -0.007  0.00  0.00    +0.004 A 
ATOM     35  C   UNL     1       1.225  -2.055  -0.014  0.00  0.00    +0.015 A 
ATOM     36  C   UNL     1       0.034  -2.771  -0.013  0.00  0.00    +0.014 A 
ATOM     37  C   UNL     1      -1.180  -2.094  -0.004  0.00  0.00    +0.015 A 
ATOM     38  C   UNL     1      -1.198  -0.713   0.009  0.00  0.00    +0.004 A 
ENDBRANCH  31  36
ENDBRANCH   1  31
TORSDOF 10
