REMARK  Name = ZINC34716475
REMARK  9 active torsions:
REMARK  status: ('A' for Active; 'I' for Inactive)
REMARK    1  A    between atoms: C_1  and  C_2
REMARK    2  A    between atoms: C_4  and  C_9
REMARK    3  A    between atoms: C_13  and  C_23
REMARK    4  A    between atoms: N_19  and  C_20
REMARK    5  A    between atoms: C_20  and  C_21
REMARK    6  A    between atoms: C_20  and  C_22
REMARK    7  A    between atoms: N_25  and  C_26
REMARK    8  A    between atoms: C_26  and  C_27
REMARK    9  A    between atoms: C_27  and  C_28
REMARK                            x       y       z     vdW  Elec       q    Type
REMARK                         _______ _______ _______ _____ _____    ______ ____
ROOT
ATOM      1  C   UNL     1       0.025  -2.820  -2.514  0.00  0.00    +0.108 C 
ATOM      2  C   UNL     1      -1.362  -3.424  -2.758  0.00  0.00    +0.028 C 
ATOM      3  C   UNL     1      -1.319  -4.299  -4.013  0.00  0.00    +0.016 C 
ATOM      4  C   UNL     1      -0.324  -5.443  -3.806  0.00  0.00    +0.092 C 
ATOM      5  C   UNL     1       1.074  -4.862  -3.575  0.00  0.00    +0.122 C 
ATOM      6  N   UNL     1       1.013  -3.905  -2.460  0.00  0.00    -0.278 N 
ATOM      7  C   UNL     1       1.846  -4.024  -1.407  0.00  0.00    +0.303 C 
ATOM      8  O   UNL     1       1.723  -3.285  -0.449  0.00  0.00    -0.253 OA
ATOM      9  N   UNL     1       2.815  -4.961  -1.415  0.00  0.00    -0.297 N 
ATOM     10  H   UNL     1       2.962  -5.498  -2.209  0.00  0.00    +0.150 HD
ENDROOT
BRANCH   1  14
ATOM     11  C   UNL     1       0.978   1.347   0.087  0.00  0.00    +0.047 C 
ATOM     12  C   UNL     1       0.482  -0.075   0.037  0.00  0.00    -0.015 A 
ATOM     13  C   UNL     1       0.481  -0.765  -1.161  0.00  0.00    +0.011 A 
ATOM     14  C   UNL     1       0.026  -2.069  -1.208  0.00  0.00    -0.027 A 
ATOM     15  C   UNL     1      -0.428  -2.686  -0.056  0.00  0.00    +0.008 A 
ATOM     16  C   UNL     1      -0.427  -1.999   1.142  0.00  0.00    +0.039 A 
ATOM     17  C   UNL     1       0.033  -0.694   1.191  0.00  0.00    +0.126 A 
ATOM     18  F   UNL     1       0.039  -0.022   2.363  0.00  0.00    -0.205 F 
ENDBRANCH   1  14
BRANCH   4  19
ATOM     19  C   UNL     1      -0.307  -6.322  -5.030  0.00  0.00    +0.218 C 
ATOM     20  O   UNL     1      -1.021  -6.061  -5.975  0.00  0.00    -0.275 OA
ATOM     21  N   UNL     1       0.501  -7.400  -5.074  0.00  0.00    -0.315 N 
ATOM     22  H   UNL     1       1.072  -7.609  -4.318  0.00  0.00    +0.149 HD
BRANCH  21  23
ATOM     23  C   UNL     1       0.517  -8.255  -6.263  0.00  0.00    +0.109 C 
BRANCH  23  24
ATOM     24  C   UNL     1       1.513  -9.398  -6.056  0.00  0.00    +0.054 C 
BRANCH  24  25
ATOM     25  C   UNL     1       1.530 -10.278  -7.279  0.00  0.00    -0.046 A 
ATOM     26  C   UNL     1       0.662 -11.351  -7.371  0.00  0.00    +0.004 A 
ATOM     27  C   UNL     1       0.678 -12.158  -8.493  0.00  0.00    +0.000 A 
ATOM     28  C   UNL     1       1.560 -11.892  -9.524  0.00  0.00    +0.000 A 
ATOM     29  C   UNL     1       2.426 -10.819  -9.433  0.00  0.00    +0.000 A 
ATOM     30  C   UNL     1       2.408 -10.009  -8.312  0.00  0.00    +0.004 A 
ENDBRANCH  24  25
ENDBRANCH  23  24
ENDBRANCH  21  23
ENDBRANCH   4  19
BRANCH   9  31
ATOM     31  C   UNL     1       3.644  -5.168  -0.226  0.00  0.00    +0.068 C 
ATOM     32  C   UNL     1       2.932  -6.123   0.733  0.00  0.00    +0.027 C 
ATOM     33  C   UNL     1       4.989  -5.769  -0.640  0.00  0.00    +0.027 C 
ENDBRANCH   9  31
TORSDOF 6
