REMARK  Name = ZINC05090908
REMARK  4 active torsions:
REMARK  status: ('A' for Active; 'I' for Inactive)
REMARK    1  A    between atoms: C_3  and  N_21
REMARK    2  A    between atoms: C_5  and  S_7
REMARK    3  A    between atoms: S_7  and  N_10
REMARK    4  A    between atoms: N_10  and  C_11
REMARK                            x       y       z     vdW  Elec       q    Type
REMARK                         _______ _______ _______ _____ _____    ______ ____
ROOT
ATOM      1  S   UNL     1       3.832  -1.946  -1.069  0.00  0.00    +0.072 S 
ATOM      2  O   UNL     1       5.162  -2.406  -0.874  0.00  0.00    -0.150 OA
ATOM      3  O   UNL     1       2.701  -2.790  -0.901  0.00  0.00    -0.150 OA
ENDROOT
BRANCH   1   8
ATOM      4  C   UNL     1       4.841  -0.396  -4.636  0.00  0.00    +0.004 A 
ATOM      5  C   UNL     1       3.626  -0.335  -5.295  0.00  0.00    +0.033 A 
ATOM      6  C   UNL     1       2.475  -0.765  -4.662  0.00  0.00    +0.128 A 
ATOM      7  C   UNL     1       2.539  -1.262  -3.374  0.00  0.00    +0.061 A 
ATOM      8  C   UNL     1       3.752  -1.318  -2.714  0.00  0.00    +0.111 A 
ATOM      9  C   UNL     1       4.903  -0.888  -3.346  0.00  0.00    +0.029 A 
BRANCH   6  10
ATOM     10  N   UNL     1       1.175  -0.700  -5.367  0.00  0.00    +0.056 N 
ATOM     11  O   UNL     1       1.120  -0.267  -6.504  0.00  0.00    -0.126 OA
ATOM     12  O   UNL     1       0.161  -1.080  -4.810  0.00  0.00    -0.126 OA
ENDBRANCH   6  10
ENDBRANCH   1   8
BRANCH   1  13
ATOM     13  N   UNL     1       3.620  -0.662  -0.045  0.00  0.00    -0.216 N 
ATOM     14  H   UNL     1       4.341  -0.386   0.543  0.00  0.00    +0.174 HD
BRANCH  13  15
ATOM     15  C   UNL     1       2.401   0.025  -0.026  0.00  0.00    +0.052 A 
ATOM     16  C   UNL     1       1.206  -0.682  -0.016  0.00  0.00    +0.028 A 
ATOM     17  C   UNL     1       0.002  -0.004   0.002  0.00  0.00    +0.051 A 
ATOM     18  C   UNL     1      -0.017   1.383   0.010  0.00  0.00    +0.162 A 
ATOM     19  C   UNL     1       1.178   2.093   0.002  0.00  0.00    +0.164 A 
ATOM     20  C   UNL     1       2.386   1.412  -0.017  0.00  0.00    +0.074 A 
ATOM     21  O   UNL     1       1.179   3.454   0.018  0.00  0.00    -0.485 OA
ATOM     22  C   UNL     1      -0.045   4.103  -0.340  0.00  0.00    +0.270 C 
ATOM     23  C   UNL     1      -1.193   3.412   0.408  0.00  0.00    +0.270 C 
ATOM     24  O   UNL     1      -1.214   2.034   0.019  0.00  0.00    -0.485 OA
ENDBRANCH  13  15
ENDBRANCH   1  13
TORSDOF 4
