REMARK  Name = ZINC39927305
REMARK  6 active torsions:
REMARK  status: ('A' for Active; 'I' for Inactive)
REMARK    1  A    between atoms: C_1  and  C_2
REMARK    2  A    between atoms: C_5  and  C_8
REMARK    3  A    between atoms: C_12  and  S_15
REMARK    4  A    between atoms: N_13  and  N_14
REMARK    5  A    between atoms: S_15  and  C_16
REMARK    6  A    between atoms: C_16  and  C_17
REMARK                            x       y       z     vdW  Elec       q    Type
REMARK                         _______ _______ _______ _____ _____    ______ ____
ROOT
ATOM      1  C   UNL     1       0.059  -4.275  -0.021  0.00  0.00    +0.223 C 
ATOM      2  N   UNL     1      -0.699  -4.796  -1.172  0.00  0.00    -0.241 N 
ATOM      3  N   UNL     1      -1.749  -5.552  -0.637  0.00  0.00    -0.161 NA
ATOM      4  C   UNL     1      -1.721  -5.554   0.653  0.00  0.00    +0.189 C 
ATOM      5  N   UNL     1      -0.658  -4.808   1.149  0.00  0.00    -0.221 N 
ATOM      6  H   UNL     1      -0.510  -4.645  -2.111  0.00  0.00    +0.171 HD
ENDROOT
BRANCH   1  11
ATOM      7  C   UNL     1      -0.018   1.503   0.010  0.00  0.00    +0.044 C 
ATOM      8  C   UNL     1       0.002  -0.004   0.002  0.00  0.00    -0.050 A 
ATOM      9  C   UNL     1       0.006  -0.689  -1.199  0.00  0.00    +0.004 A 
ATOM     10  C   UNL     1       0.025  -2.071  -1.206  0.00  0.00    +0.007 A 
ATOM     11  C   UNL     1       0.040  -2.768  -0.013  0.00  0.00    -0.007 A 
ATOM     12  C   UNL     1       0.037  -2.084   1.188  0.00  0.00    +0.007 A 
ATOM     13  C   UNL     1       0.023  -0.702   1.195  0.00  0.00    +0.004 A 
ENDBRANCH   1  11
BRANCH   5  14
ATOM     14  N   UNL     1      -0.340  -4.606   2.463  0.00  0.00    -0.250 NA
ATOM     15  H   UNL     1      -0.992  -5.082   3.069  0.00  0.00    +0.141 HD
ATOM     16  H   UNL     1       0.608  -4.895   2.654  0.00  0.00    +0.141 HD
ENDBRANCH   5  14
BRANCH   4  17
ATOM     17  S   UNL     1      -2.888  -6.402   1.665  0.00  0.00    -0.080 S 
BRANCH  17  18
ATOM     18  C   UNL     1      -4.013  -7.183   0.476  0.00  0.00    +0.151 C 
BRANCH  18  19
ATOM     19  C   UNL     1      -5.075  -7.952   1.220  0.00  0.00    +0.118 A 
ATOM     20  N   UNL     1      -6.218  -7.463   1.602  0.00  0.00    -0.232 NA
ATOM     21  C   UNL     1      -6.933  -8.423   2.244  0.00  0.00    +0.089 A 
ATOM     22  C   UNL     1      -8.195  -8.446   2.843  0.00  0.00    +0.030 A 
ATOM     23  C   UNL     1      -8.652  -9.595   3.424  0.00  0.00    +0.002 A 
ATOM     24  C   UNL     1      -7.876 -10.745   3.425  0.00  0.00    +0.002 A 
ATOM     25  C   UNL     1      -6.627 -10.745   2.840  0.00  0.00    +0.028 A 
ATOM     26  C   UNL     1      -6.146  -9.587   2.245  0.00  0.00    +0.066 A 
ATOM     27  N   UNL     1      -4.979  -9.259   1.585  0.00  0.00    -0.341 N 
ATOM     28  H   UNL     1      -4.229  -9.850   1.415  0.00  0.00    +0.167 HD
ENDBRANCH  18  19
ENDBRANCH  17  18
ENDBRANCH   4  17
TORSDOF 5
