REMARK  Name = ZINC35401042
REMARK  4 active torsions:
REMARK  status: ('A' for Active; 'I' for Inactive)
REMARK    1  A    between atoms: C_8  and  C_26
REMARK    2  A    between atoms: N_12  and  C_13
REMARK    3  A    between atoms: C_13  and  C_14
REMARK    4  A    between atoms: N_16  and  C_17
REMARK                            x       y       z     vdW  Elec       q    Type
REMARK                         _______ _______ _______ _____ _____    ______ ____
ROOT
ATOM      1  C   UNL     1       0.037   1.356  -0.845  0.00  0.00    +0.002 A 
ATOM      2  C   UNL     1       1.222   2.064  -0.786  0.00  0.00    +0.002 A 
ATOM      3  C   UNL     1       2.411   1.411  -0.512  0.00  0.00    +0.025 A 
ATOM      4  C   UNL     1       2.414   0.043  -0.297  0.00  0.00    +0.058 A 
ATOM      5  C   UNL     1       1.219  -0.671  -0.356  0.00  0.00    +0.053 A 
ATOM      6  C   UNL     1       0.032  -0.012  -0.631  0.00  0.00    +0.025 A 
ATOM      7  N   UNL     1       1.017  -2.048  -0.170  0.00  0.00    -0.312 N 
ATOM      8  C   UNL     1       1.960  -3.017   0.118  0.00  0.00    +0.050 C 
ATOM      9  C   UNL     1       3.321  -2.868   0.291  0.00  0.00    +0.092 C 
ATOM     10  C   UNL     1       4.098  -1.702   0.220  0.00  0.00    +0.246 C 
ATOM     11  O   UNL     1       5.291  -1.853   0.416  0.00  0.00    -0.270 OA
ATOM     12  N   UNL     1       3.707  -0.438  -0.036  0.00  0.00    -0.257 N 
ATOM     13  H   UNL     1       0.101  -2.358  -0.253  0.00  0.00    +0.152 HD
ENDROOT
BRANCH   8  14
ATOM     14  C   UNL     1       1.447  -4.381   0.259  0.00  0.00    +0.035 A 
ATOM     15  C   UNL     1       2.138  -5.550   0.547  0.00  0.00    +0.018 A 
ATOM     16  C   UNL     1       1.375  -6.692   0.615  0.00  0.00    +0.023 A 
ATOM     17  C   UNL     1       0.038  -6.605   0.403  0.00  0.00    +0.056 A 
ATOM     18  S   UNL     1      -0.228  -4.972   0.111  0.00  0.00    -0.080 S 
ATOM     19 BR   UNL     1      -1.236  -8.002   0.434  0.00  0.00    -0.043 Br
ENDBRANCH   8  14
BRANCH  12  20
ATOM     20  C   UNL     1       4.772   0.568  -0.041  0.00  0.00    +0.210 C 
BRANCH  20  21
ATOM     21  C   UNL     1       5.210   0.829  -1.460  0.00  0.00    +0.235 C 
ATOM     22  O   UNL     1       4.684   0.234  -2.376  0.00  0.00    -0.274 OA
ATOM     23  N   UNL     1       6.186   1.724  -1.710  0.00  0.00    -0.284 N 
ATOM     24  H   UNL     1       6.659   2.145  -0.975  0.00  0.00    +0.155 HD
BRANCH  23  25
ATOM     25  C   UNL     1       6.518   2.047  -3.032  0.00  0.00    +0.037 A 
ATOM     26  C   UNL     1       7.836   2.325  -3.369  0.00  0.00    +0.027 A 
ATOM     27  C   UNL     1       8.165   2.643  -4.673  0.00  0.00    +0.051 A 
ATOM     28  C   UNL     1       7.181   2.687  -5.647  0.00  0.00    +0.166 A 
ATOM     29  C   UNL     1       5.858   2.409  -5.312  0.00  0.00    +0.168 A 
ATOM     30  C   UNL     1       5.530   2.084  -4.006  0.00  0.00    +0.072 A 
ATOM     31  O   UNL     1       5.091   2.518  -6.436  0.00  0.00    -0.453 OA
ATOM     32  C   UNL     1       5.888   3.263  -7.375  0.00  0.00    +0.466 C 
ATOM     33  O   UNL     1       7.242   2.970  -6.982  0.00  0.00    -0.453 OA
ENDBRANCH  23  25
ENDBRANCH  20  21
ENDBRANCH  12  20
TORSDOF 4
