REMARK  Name = ZINC20470285
REMARK  7 active torsions:
REMARK  status: ('A' for Active; 'I' for Inactive)
REMARK    1  A    between atoms: C_1  and  C_2
REMARK    2  A    between atoms: C_5  and  O_31
REMARK    3  A    between atoms: C_7  and  C_29
REMARK    4  A    between atoms: C_7  and  C_30
REMARK    5  A    between atoms: C_14  and  C_16
REMARK    6  A    between atoms: C_16  and  O_17
REMARK    7  A    between atoms: O_17  and  C_18
REMARK                            x       y       z     vdW  Elec       q    Type
REMARK                         _______ _______ _______ _____ _____    ______ ____
ROOT
ATOM      1  C   UNL     1       0.338   1.362   0.194  0.00  0.00    +0.012 C 
ATOM      2  C   UNL     1       0.277  -0.169   0.036  0.00  0.00    -0.019 C 
ATOM      3  C   UNL     1      -1.186  -0.608   0.115  0.00  0.00    +0.010 C 
ATOM      4  C   UNL     1      -1.756  -0.268   1.488  0.00  0.00    +0.032 C 
ATOM      5  C   UNL     1      -0.972  -0.984   2.578  0.00  0.00    +0.120 C 
ATOM      6  C   UNL     1       0.525  -0.706   2.510  0.00  0.00    -0.006 C 
ATOM      7  C   UNL     1       1.099  -0.871   1.105  0.00  0.00    +0.004 C 
ATOM      8  C   UNL     1       1.247  -2.365   0.798  0.00  0.00    +0.009 C 
ATOM      9  C   UNL     1       1.930  -2.580  -0.559  0.00  0.00    +0.031 C 
ATOM     10  C   UNL     1       1.083  -1.887  -1.602  0.00  0.00    -0.070 C 
ATOM     11  C   UNL     1       0.629  -2.535  -2.645  0.00  0.00    +0.008 C 
ATOM     12  C   UNL     1       0.788  -0.428  -1.388  0.00  0.00    +0.058 C 
ATOM     13  C   UNL     1       1.212  -1.698   3.477  0.00  0.00    +0.014 C 
ATOM     14  C   UNL     1       0.820   0.685   3.090  0.00  0.00    +0.014 C 
ENDROOT
BRANCH   5  15
ATOM     15  O   UNL     1      -1.211  -2.393   2.501  0.00  0.00    -0.391 OA
ATOM     16  H   UNL     1      -2.139  -2.641   2.612  0.00  0.00    +0.210 HD
ENDBRANCH   5  15
BRANCH  12  17
ATOM     17  C   UNL     1       2.044   0.409  -1.641  0.00  0.00    +0.237 C 
BRANCH  17  18
ATOM     18  O   UNL     1       2.491   0.203  -2.983  0.00  0.00    -0.491 OA
BRANCH  18  19
ATOM     19  C   UNL     1       3.603   0.877  -3.372  0.00  0.00    +0.124 A 
ATOM     20  C   UNL     1       4.253   1.718  -2.470  0.00  0.00    +0.046 A 
ATOM     21  C   UNL     1       5.371   2.403  -2.846  0.00  0.00    +0.015 A 
ATOM     22  C   UNL     1       5.870   2.261  -4.146  0.00  0.00    +0.018 A 
ATOM     23  C   UNL     1       7.069   2.983  -4.578  0.00  0.00    +0.018 A 
ATOM     24  C   UNL     1       7.503   2.802  -5.852  0.00  0.00    +0.092 A 
ATOM     25  C   UNL     1       6.801   1.937  -6.716  0.00  0.00    +0.337 A 
ATOM     26  O   UNL     1       7.201   1.783  -7.856  0.00  0.00    -0.245 OA
ATOM     27  O   UNL     1       5.703   1.277  -6.314  0.00  0.00    -0.422 OA
ATOM     28  C   UNL     1       5.219   1.413  -5.061  0.00  0.00    +0.143 A 
ATOM     29  C   UNL     1       4.086   0.720  -4.661  0.00  0.00    +0.092 A 
ENDBRANCH  18  19
ENDBRANCH  17  18
ENDBRANCH  12  17
TORSDOF 4
