REMARK  Name = ZINC39710581
REMARK  15 active torsions:
REMARK  status: ('A' for Active; 'I' for Inactive)
REMARK    1  A    between atoms: C_1  and  C_2
REMARK    2  A    between atoms: C_2  and  C_3
REMARK    3  A    between atoms: C_10  and  C_15
REMARK    4  A    between atoms: C_15  and  C_17
REMARK    5  A    between atoms: C_15  and  N_27
REMARK    6  A    between atoms: N_22  and  C_23
REMARK    7  A    between atoms: C_23  and  C_24
REMARK    8  A    between atoms: C_23  and  C_25
REMARK    9  A    between atoms: C_23  and  C_26
REMARK   10  A    between atoms: N_27  and  C_28
REMARK   11  A    between atoms: N_27  and  C_37
REMARK   12  A    between atoms: C_28  and  C_29
REMARK   13  A    between atoms: C_33  and  O_35
REMARK   14  A    between atoms: O_35  and  C_36
REMARK   15  A    between atoms: C_37  and  C_38
REMARK                            x       y       z     vdW  Elec       q    Type
REMARK                         _______ _______ _______ _____ _____    ______ ____
ROOT
ATOM      1  C   UNL     1       0.742  -0.682   6.984  0.00  0.00    -0.008 C 
ENDROOT
BRANCH   1   9
ATOM      2  C   UNL     1      -1.757  -5.322   4.479  0.00  0.00    -0.047 A 
ATOM      3  C   UNL     1      -2.121  -4.580   3.355  0.00  0.00    +0.005 A 
ATOM      4  C   UNL     1      -1.632  -3.337   3.109  0.00  0.00    +0.024 A 
ATOM      5  C   UNL     1      -0.721  -2.738   3.998  0.00  0.00    +0.040 A 
ATOM      6  N   UNL     1      -0.248  -1.518   3.746  0.00  0.00    -0.285 N 
ATOM      7  C   UNL     1       0.611  -0.898   4.538  0.00  0.00    +0.223 C 
ATOM      8  O   UNL     1       1.007   0.217   4.256  0.00  0.00    -0.275 OA
ATOM      9  C   UNL     1       1.097  -1.580   5.797  0.00  0.00    +0.088 C 
ATOM     10  C   UNL     1       0.562  -2.968   6.089  0.00  0.00    -0.006 C 
ATOM     11  C   UNL     1      -0.319  -3.499   5.193  0.00  0.00    -0.007 A 
ATOM     12  C   UNL     1      -0.888  -4.832   5.400  0.00  0.00    +0.013 A 
ATOM     13  H   UNL     1      -0.547  -1.063   2.943  0.00  0.00    +0.155 HD
BRANCH   2  15
ATOM     14  C   UNL     1      -3.647  -6.581   5.477  0.00  0.00    +0.009 C 
ATOM     15  C   UNL     1      -2.346  -6.695   4.679  0.00  0.00    +0.032 C 
ENDBRANCH   2  15
ENDBRANCH   1   9
BRANCH   1  16
ATOM     16  C   UNL     1      -0.778  -0.548   7.086  0.00  0.00    +0.205 C 
ATOM     17  N   UNL     1      -1.413  -1.873   7.072  0.00  0.00    -0.152 NA
ATOM     18  N   UNL     1      -2.154  -1.950   6.090  0.00  0.00    -0.070 NA
ATOM     19  N   UNL     1      -2.158  -0.786   5.321  0.00  0.00    -0.179 N 
ATOM     20  N   UNL     1      -1.316   0.136   5.891  0.00  0.00    -0.183 NA
ATOM     21  H   UNL     1      -2.675  -0.650   4.511  0.00  0.00    +0.191 HD
BRANCH  20  22
ATOM     22  C   UNL     1      -2.044   1.356   6.266  0.00  0.00    +0.035 C 
ATOM     23  C   UNL     1      -1.097   2.312   6.993  0.00  0.00    +0.029 C 
ATOM     24  C   UNL     1      -2.585   2.034   5.005  0.00  0.00    +0.029 C 
ATOM     25  C   UNL     1      -3.209   0.992   7.188  0.00  0.00    +0.029 C 
ENDBRANCH  20  22
ENDBRANCH   1  16
BRANCH   1  26
ATOM     26  N   UNL     1       1.265  -1.278   8.222  0.00  0.00    +0.392 N 
ATOM     27  H   UNL     1       0.874  -2.200   8.342  0.00  0.00    -0.080 HD
BRANCH  26  28
ATOM     28  C   UNL     1       0.892  -0.435   9.366  0.00  0.00    -0.042 C 
BRANCH  28  29
ATOM     29  C   UNL     1       1.238  -1.148  10.648  0.00  0.00    -0.060 A 
ATOM     30  C   UNL     1       0.362  -2.077  11.180  0.00  0.00    +0.002 A 
ATOM     31  C   UNL     1       0.676  -2.732  12.356  0.00  0.00    +0.004 A 
ATOM     32  C   UNL     1       1.866  -2.460  13.003  0.00  0.00    +0.045 A 
ATOM     33  C   UNL     1       2.746  -1.529  12.472  0.00  0.00    +0.120 A 
ATOM     34  C   UNL     1       2.431  -0.877  11.288  0.00  0.00    +0.047 A 
BRANCH  33  35
ATOM     35  O   UNL     1       3.917  -1.260  13.106  0.00  0.00    -0.495 OA
ATOM     36  C   UNL     1       4.231  -2.052  14.254  0.00  0.00    +0.277 C 
ENDBRANCH  33  35
ENDBRANCH  28  29
ENDBRANCH  26  28
BRANCH  26  37
ATOM     37  C   UNL     1       2.728  -1.373   8.139  0.00  0.00    -0.002 C 
BRANCH  37  38
ATOM     38  C   UNL     1       3.299  -0.029   7.765  0.00  0.00    +0.089 A 
ATOM     39  C   UNL     1       3.764   0.895   8.624  0.00  0.00    +0.042 A 
ATOM     40  C   UNL     1       4.199   1.993   7.847  0.00  0.00    +0.041 A 
ATOM     41  C   UNL     1       3.974   1.675   6.560  0.00  0.00    +0.195 A 
ATOM     42  O   UNL     1       3.434   0.446   6.516  0.00  0.00    -0.470 OA
ENDBRANCH  37  38
ENDBRANCH  26  37
ENDBRANCH   1  26
TORSDOF 10
