REMARK  Name = ZINC20877200
REMARK  12 active torsions:
REMARK  status: ('A' for Active; 'I' for Inactive)
REMARK    1  A    between atoms: C_1  and  C_2
REMARK    2  A    between atoms: C_5  and  C_8
REMARK    3  A    between atoms: C_8  and  N_9
REMARK    4  A    between atoms: N_9  and  C_10
REMARK    5  A    between atoms: C_10  and  C_11
REMARK    6  A    between atoms: C_13  and  O_33
REMARK    7  A    between atoms: C_14  and  O_18
REMARK    8  A    between atoms: O_18  and  C_19
REMARK    9  A    between atoms: C_19  and  C_20
REMARK   10  A    between atoms: C_20  and  C_22
REMARK   11  A    between atoms: C_20  and  O_32
REMARK   12  A    between atoms: O_33  and  C_34
REMARK                            x       y       z     vdW  Elec       q    Type
REMARK                         _______ _______ _______ _____ _____    ______ ____
ROOT
ATOM      1  C   UNL     1      -7.309  -2.158   5.104  0.00  0.00    -0.060 A 
ATOM      2  C   UNL     1      -6.310  -3.038   4.729  0.00  0.00    +0.051 A 
ATOM      3  C   UNL     1      -5.675  -2.886   3.507  0.00  0.00    +0.163 A 
ATOM      4  C   UNL     1      -6.039  -1.841   2.663  0.00  0.00    +0.176 A 
ATOM      5  C   UNL     1      -7.041  -0.963   3.044  0.00  0.00    +0.063 A 
ATOM      6  C   UNL     1      -7.674  -1.123   4.263  0.00  0.00    +0.021 A 
ATOM      7 BR   UNL     1      -7.543   0.455   1.897  0.00  0.00    -0.046 Br
ENDROOT
BRANCH   3   8
ATOM      8  O   UNL     1      -4.696  -3.753   3.136  0.00  0.00    -0.491 OA
ATOM      9  C   UNL     1      -4.375  -4.801   4.052  0.00  0.00    +0.277 C 
ENDBRANCH   3   8
BRANCH   1  10
ATOM     10  C   UNL     1      -8.002  -2.329   6.431  0.00  0.00    -0.046 C 
BRANCH  10  11
ATOM     11  N   UNL     1      -9.172  -3.202   6.265  0.00  0.00    +0.384 N 
ATOM     12  H   UNL     1      -8.832  -4.177   5.885  0.00  0.00    -0.085 HD
ATOM     13  H   UNL     1      -9.855  -2.742   5.536  0.00  0.00    -0.085 HD
BRANCH  11  14
ATOM     14  C   UNL     1      -9.873  -3.391   7.542  0.00  0.00    -0.046 C 
BRANCH  14  19
ATOM     15  C   UNL     1     -14.440  -6.839   6.738  0.00  0.00    +0.044 C 
ATOM     16  C   UNL     1     -13.249  -5.940   6.948  0.00  0.00    -0.050 A 
ATOM     17  C   UNL     1     -12.022  -6.484   7.276  0.00  0.00    +0.003 A 
ATOM     18  C   UNL     1     -10.929  -5.659   7.468  0.00  0.00    +0.002 A 
ATOM     19  C   UNL     1     -11.064  -4.290   7.332  0.00  0.00    -0.064 A 
ATOM     20  C   UNL     1     -12.293  -3.746   7.008  0.00  0.00    +0.002 A 
ATOM     21  C   UNL     1     -13.384  -4.571   6.812  0.00  0.00    +0.003 A 
ENDBRANCH  14  19
ENDBRANCH  11  14
ENDBRANCH  10  11
ENDBRANCH   1  10
BRANCH   4  22
ATOM     22  O   UNL     1      -5.416  -1.685   1.464  0.00  0.00    -0.484 OA
BRANCH  22  23
ATOM     23  C   UNL     1      -4.250  -0.858   1.441  0.00  0.00    +0.265 C 
BRANCH  23  24
ATOM     24  C   UNL     1      -3.692  -0.803   0.018  0.00  0.00    +0.182 C 
BRANCH  24  25
ATOM     25  C   UNL     1      -2.397  -0.033   0.016  0.00  0.00    -0.012 A 
ATOM     26  C   UNL     1      -2.415   1.349   0.026  0.00  0.00    +0.010 A 
ATOM     27  C   UNL     1      -1.229   2.059   0.019  0.00  0.00    +0.050 A 
ATOM     28  C   UNL     1      -0.017   1.385   0.010  0.00  0.00    +0.162 A 
ATOM     29  C   UNL     1       0.002  -0.004   0.002  0.00  0.00    +0.162 A 
ATOM     30  C   UNL     1      -1.192  -0.710   0.004  0.00  0.00    +0.055 A 
ATOM     31  O   UNL     1       1.181  -0.685  -0.007  0.00  0.00    -0.485 OA
ATOM     32  C   UNL     1       2.347   0.053  -0.387  0.00  0.00    +0.270 C 
ATOM     33  C   UNL     1       2.334   1.392   0.364  0.00  0.00    +0.270 C 
ATOM     34  O   UNL     1       1.143   2.098   0.002  0.00  0.00    -0.485 OA
ENDBRANCH  24  25
BRANCH  24  35
ATOM     35  O   UNL     1      -4.634  -0.153  -0.839  0.00  0.00    -0.384 OA
ATOM     36  H   UNL     1      -4.405  -0.020  -1.906  0.00  0.00    +0.210 HD
ENDBRANCH  24  35
ENDBRANCH  23  24
ENDBRANCH  22  23
ENDBRANCH   4  22
TORSDOF 10
