REMARK  Name = ZINC03647467
REMARK  4 active torsions:
REMARK  status: ('A' for Active; 'I' for Inactive)
REMARK    1  A    between atoms: C_4  and  C_7
REMARK    2  A    between atoms: C_7  and  N_48
REMARK    3  A    between atoms: C_15  and  O_27
REMARK    4  A    between atoms: C_17  and  C_20
REMARK                            x       y       z     vdW  Elec       q    Type
REMARK                         _______ _______ _______ _____ _____    ______ ____
ROOT
ATOM      1  C   UNL     1      -3.487   5.052   6.543  0.00  0.00    -0.073 C 
ATOM      2  C   UNL     1      -2.816   5.288   5.188  0.00  0.00    +0.018 C 
ATOM      3  C   UNL     1      -3.253   4.176   4.239  0.00  0.00    -0.027 A 
ATOM      4  C   UNL     1      -3.793   3.038   4.737  0.00  0.00    -0.021 A 
ATOM      5  S   UNL     1      -4.152   2.045   3.313  0.00  0.00    -0.080 S 
ATOM      6  C   UNL     1      -3.599   3.115   2.097  0.00  0.00    +0.080 A 
ATOM      7  C   UNL     1      -3.136   4.238   2.795  0.00  0.00    +0.067 A 
ATOM      8  C   UNL     1      -2.580   5.357   1.991  0.00  0.00    +0.220 C 
ATOM      9  N   UNL     1      -2.373   5.149   0.720  0.00  0.00    -0.223 NA
ATOM     10  C   UNL     1      -2.553   3.868   0.048  0.00  0.00    +0.224 C 
ATOM     11  N   UNL     1      -3.561   3.034   0.728  0.00  0.00    -0.313 N 
ATOM     12  C   UNL     1      -4.021   2.717   6.180  0.00  0.00    -0.035 C 
ATOM     13  H   UNL     1      -4.166   2.458   0.234  0.00  0.00    +0.149 HD
ATOM     14  N   UNL     1      -3.220   3.669   6.988  0.00  0.00    +0.386 N 
ATOM     15  H   UNL     1      -2.223   3.462   6.858  0.00  0.00    -0.081 HD
ENDROOT
BRANCH  10  16
ATOM     16  C   UNL     1      -1.238   3.133   0.031  0.00  0.00    -0.005 A 
ATOM     17  C   UNL     1      -1.219   1.751   0.017  0.00  0.00    +0.009 A 
ATOM     18  C   UNL     1      -0.013   1.076   0.008  0.00  0.00    +0.020 A 
ATOM     19  C   UNL     1       1.176   1.784   0.000  0.00  0.00    +0.041 A 
ATOM     20  C   UNL     1       1.156   3.167   0.008  0.00  0.00    +0.020 A 
ATOM     21  C   UNL     1      -0.050   3.841   0.023  0.00  0.00    +0.009 A 
ATOM     22 CL   UNL     1       2.691   0.937  -0.018  0.00  0.00    -0.084 Cl
ENDBRANCH  10  16
BRANCH   8  23
ATOM     23  O   UNL     1      -2.298   6.553   2.558  0.00  0.00    -0.492 OA
ATOM     24  H   UNL     1      -1.942   7.206   1.941  0.00  0.00    +0.294 HD
ENDBRANCH   8  23
BRANCH  14  25
ATOM     25  C   UNL     1      -3.558   3.524   8.421  0.00  0.00    -0.043 C 
BRANCH  25  29
ATOM     26  C   UNL     1      -2.182  -0.282   9.789  0.00  0.00    +0.000 A 
ATOM     27  C   UNL     1      -1.346   0.818   9.848  0.00  0.00    +0.000 A 
ATOM     28  C   UNL     1      -1.792   2.049   9.406  0.00  0.00    +0.002 A 
ATOM     29  C   UNL     1      -3.072   2.181   8.903  0.00  0.00    -0.064 A 
ATOM     30  C   UNL     1      -3.910   1.083   8.848  0.00  0.00    +0.002 A 
ATOM     31  C   UNL     1      -3.463  -0.150   9.286  0.00  0.00    +0.000 A 
ENDBRANCH  25  29
ENDBRANCH  14  25
TORSDOF 4
