REMARK  Name = ZINC27556663
REMARK  9 active torsions:
REMARK  status: ('A' for Active; 'I' for Inactive)
REMARK    1  A    between atoms: C_1  and  C_2
REMARK    2  A    between atoms: C_5  and  C_8
REMARK    3  A    between atoms: C_8  and  C_10
REMARK    4  A    between atoms: C_8  and  N_15
REMARK    5  A    between atoms: C_16  and  C_18
REMARK    6  A    between atoms: C_18  and  N_19
REMARK    7  A    between atoms: C_23  and  S_30
REMARK    8  A    between atoms: C_27  and  C_29
REMARK    9  A    between atoms: S_30  and  N_33
REMARK                            x       y       z     vdW  Elec       q    Type
REMARK                         _______ _______ _______ _____ _____    ______ ____
ROOT
ATOM      1  N   UNL     1       3.469   0.808   3.606  0.00  0.00    -0.303 N 
ATOM      2  C   UNL     1       2.122   0.845   3.570  0.00  0.00    +0.231 C 
ATOM      3  O   UNL     1       1.486   0.781   4.600  0.00  0.00    -0.274 OA
ATOM      4  H   UNL     1       4.046   0.867   2.671  0.00  0.00    +0.150 HD
ENDROOT
BRANCH   1   5
ATOM      5  C   UNL     1       4.165   0.691   4.890  0.00  0.00    +0.140 C 
BRANCH   5  10
ATOM      6  C   UNL     1       9.365  -1.686   4.053  0.00  0.00    +0.044 C 
ATOM      7  C   UNL     1       8.009  -1.066   4.271  0.00  0.00    -0.050 A 
ATOM      8  C   UNL     1       7.253  -1.426   5.372  0.00  0.00    +0.004 A 
ATOM      9  C   UNL     1       6.009  -0.858   5.572  0.00  0.00    +0.006 A 
ATOM     10  C   UNL     1       5.521   0.071   4.672  0.00  0.00    -0.022 A 
ATOM     11  C   UNL     1       6.274   0.427   3.569  0.00  0.00    +0.006 A 
ATOM     12  C   UNL     1       7.521  -0.137   3.372  0.00  0.00    +0.004 A 
ENDBRANCH   5  10
BRANCH   5  13
ATOM     13  C   UNL     1       4.330   2.059   5.499  0.00  0.00    +0.014 A 
ATOM     14  C   UNL     1       4.203   2.438   6.794  0.00  0.00    +0.013 A 
ATOM     15  C   UNL     1       4.403   3.765   7.128  0.00  0.00    +0.008 A 
ATOM     16  C   UNL     1       4.720   4.647   6.149  0.00  0.00    +0.045 A 
ATOM     17  S   UNL     1       4.750   3.601   4.703  0.00  0.00    -0.099 S 
ENDBRANCH   5  13
ENDBRANCH   1   5
BRANCH   2  18
ATOM     18  C   UNL     1       1.407   0.966   2.249  0.00  0.00    +0.201 C 
BRANCH  18  19
ATOM     19  N   UNL     1      -0.035   1.116   2.485  0.00  0.00    -0.318 N 
ATOM     20  C   UNL     1      -0.753   1.009   1.288  0.00  0.00    +0.034 A 
ATOM     21  C   UNL     1      -0.566   0.150   0.206  0.00  0.00    +0.025 A 
ATOM     22  C   UNL     1      -1.409   0.214  -0.884  0.00  0.00    +0.030 A 
ATOM     23  C   UNL     1      -2.445   1.129  -0.911  0.00  0.00    +0.105 A 
ATOM     24  C   UNL     1      -2.636   1.986   0.157  0.00  0.00    +0.034 A 
ATOM     25  C   UNL     1      -1.794   1.929   1.248  0.00  0.00    -0.023 A 
ATOM     26  C   UNL     1      -1.753   2.736   2.530  0.00  0.00    +0.059 C 
ATOM     27  C   UNL     1      -0.340   2.436   3.080  0.00  0.00    +0.075 C 
ATOM     28  C   UNL     1       0.663   3.490   2.606  0.00  0.00    +0.028 C 
BRANCH  23  29
ATOM     29  S   UNL     1      -3.521   1.203  -2.305  0.00  0.00    +0.056 S 
ATOM     30  O   UNL     1      -4.074   2.512  -2.322  0.00  0.00    -0.153 OA
ATOM     31  O   UNL     1      -2.797   0.668  -3.405  0.00  0.00    -0.153 OA
BRANCH  29  32
ATOM     32  N   UNL     1      -4.775   0.163  -2.012  0.00  0.00    -0.204 NA
ATOM     33  H   UNL     1      -5.472   0.180  -2.863  0.00  0.00    +0.144 HD
ATOM     34  H   UNL     1      -5.303   0.473  -1.099  0.00  0.00    +0.144 HD
ENDBRANCH  29  32
ENDBRANCH  23  29
ENDBRANCH  18  19
ENDBRANCH   2  18
TORSDOF 7
