REMARK  Name = ZINC09962712
REMARK  11 active torsions:
REMARK  status: ('A' for Active; 'I' for Inactive)
REMARK    1  A    between atoms: C_1  and  C_2
REMARK    2  A    between atoms: C_2  and  C_3
REMARK    3  A    between atoms: C_3  and  C_5
REMARK    4  A    between atoms: C_3  and  N_61
REMARK    5  A    between atoms: C_8  and  S_17
REMARK    6  A    between atoms: N_9  and  C_10
REMARK    7  A    between atoms: C_10  and  C_11
REMARK    8  A    between atoms: S_17  and  C_18
REMARK    9  A    between atoms: C_18  and  C_19
REMARK   10  A    between atoms: C_33  and  N_61
REMARK   11  A    between atoms: C_34  and  N_61
REMARK                            x       y       z     vdW  Elec       q    Type
REMARK                         _______ _______ _______ _____ _____    ______ ____
ROOT
ATOM      1  C   UNL     1      -1.922  -4.220   0.317  0.00  0.00    +0.121 A 
ATOM      2  N   UNL     1      -0.763  -3.671   0.086  0.00  0.00    -0.135 NA
ATOM      3  N   UNL     1      -0.840  -2.397   0.237  0.00  0.00    -0.123 NA
ATOM      4  C   UNL     1      -2.061  -2.062   0.585  0.00  0.00    +0.192 A 
ATOM      5  N   UNL     1      -2.791  -3.215   0.643  0.00  0.00    -0.303 N 
ENDROOT
BRANCH   1   6
ATOM      6  C   UNL     1      -2.245  -5.690   0.239  0.00  0.00    +0.000 C 
BRANCH   6   9
ATOM      7  C   UNL     1      -1.972  -7.796   1.402  0.00  0.00    -0.096 C 
ATOM      8  C   UNL     1      -0.054  -6.371   1.013  0.00  0.00    -0.096 C 
ATOM      9  N   UNL     1      -1.503  -6.398   1.304  0.00  0.00    +0.383 N 
ATOM     10  H   UNL     1      -1.673  -5.925   2.199  0.00  0.00    -0.082 HD
ENDBRANCH   6   9
BRANCH   6  12
ATOM     11  C   UNL     1      -2.698  -5.545  -2.214  0.00  0.00    +0.002 C 
ATOM     12  C   UNL     1      -1.850  -6.227  -1.138  0.00  0.00    -0.011 C 
ENDBRANCH   6  12
ENDBRANCH   1   6
BRANCH   5  13
ATOM     13  C   UNL     1      -4.209  -3.349   0.985  0.00  0.00    +0.160 C 
BRANCH  13  14
ATOM     14  C   UNL     1      -5.044  -3.151  -0.254  0.00  0.00    -0.028 A 
ATOM     15  C   UNL     1      -5.459  -1.882  -0.614  0.00  0.00    +0.005 A 
ATOM     16  C   UNL     1      -6.221  -1.701  -1.752  0.00  0.00    +0.000 A 
ATOM     17  C   UNL     1      -6.577  -2.789  -2.526  0.00  0.00    +0.000 A 
ATOM     18  C   UNL     1      -6.168  -4.059  -2.164  0.00  0.00    +0.000 A 
ATOM     19  C   UNL     1      -5.401  -4.240  -1.028  0.00  0.00    +0.005 A 
ENDBRANCH  13  14
ENDBRANCH   5  13
BRANCH   4  20
ATOM     20  S   UNL     1      -2.650  -0.433   0.907  0.00  0.00    -0.078 S 
BRANCH  20  21
ATOM     21  C   UNL     1      -1.130   0.510   0.629  0.00  0.00    +0.151 C 
BRANCH  21  22
ATOM     22  C   UNL     1      -1.401   1.976   0.854  0.00  0.00    +0.121 A 
ATOM     23  N   UNL     1      -0.392   2.871   0.698  0.00  0.00    -0.310 N 
ATOM     24  H   UNL     1       0.489   2.554   0.444  0.00  0.00    +0.170 HD
ATOM     25  C   UNL     1      -0.590   4.189   0.890  0.00  0.00    +0.260 A 
ATOM     26  O   UNL     1       0.326   4.981   0.747  0.00  0.00    -0.267 OA
ATOM     27  C   UNL     1      -1.896   4.643   1.265  0.00  0.00    +0.075 A 
ATOM     28  C   UNL     1      -2.337   6.021   1.524  0.00  0.00    -0.023 A 
ATOM     29  C   UNL     1      -3.626   6.193   1.863  0.00  0.00    -0.004 A 
ATOM     30  S   UNL     1      -4.323   4.557   1.861  0.00  0.00    -0.073 S 
ATOM     31  C   UNL     1      -2.872   3.647   1.401  0.00  0.00    +0.116 A 
ATOM     32  N   UNL     1      -2.603   2.361   1.191  0.00  0.00    -0.226 NA
ATOM     33  C   UNL     1      -3.963   7.641   2.099  0.00  0.00    +0.043 C 
ATOM     34  C   UNL     1      -2.804   8.421   1.442  0.00  0.00    +0.010 C 
ATOM     35  C   UNL     1      -1.657   7.393   1.509  0.00  0.00    +0.037 C 
ENDBRANCH  21  22
ENDBRANCH  20  21
ENDBRANCH   4  20
TORSDOF 8
