REMARK  Name = ZINC01607037
REMARK  7 active torsions:
REMARK  status: ('A' for Active; 'I' for Inactive)
REMARK    1  A    between atoms: C_1  and  C_2
REMARK    2  A    between atoms: C_3  and  C_13
REMARK    3  A    between atoms: C_4  and  C_7
REMARK    4  A    between atoms: N_15  and  CA_16
REMARK    5  A    between atoms: CA_23  and  C_29
REMARK    6  A    between atoms: C_25  and  C_27
REMARK    7  A    between atoms: C_25  and  C_28
REMARK                            x       y       z     vdW  Elec       q    Type
REMARK                         _______ _______ _______ _____ _____    ______ ____
ROOT
ATOM      1  C   UNL     1      -2.645   0.380  -0.172  0.00  0.00    +0.250 C 
ATOM      2  O   UNL     1      -3.124   0.768  -1.220  0.00  0.00    -0.270 OA
ATOM      3  N   UNL     1      -3.292   0.606   0.989  0.00  0.00    -0.298 N 
ATOM      4  H   UNL     1      -2.880   0.356   1.831  0.00  0.00    +0.150 HD
ENDROOT
BRANCH   3   5
ATOM      5  CA  UNL     1      -4.617   1.230   0.980  0.00  0.00    +0.190 C 
ATOM      6  C   UNL     1      -4.922   2.021   2.253  0.00  0.00    +0.165 C 
ATOM      7  N   UNL     1      -5.926   0.960   2.485  0.00  0.00    -0.271 N 
ATOM      8  C   UNL     1      -5.729   0.273   1.330  0.00  0.00    +0.240 C 
ATOM      9  O   UNL     1      -6.231  -0.697   0.803  0.00  0.00    -0.273 OA
ATOM     10  CA  UNL     1      -5.799   0.251   3.760  0.00  0.00    +0.206 C 
ATOM     11  C   UNL     1      -4.293   0.065   4.116  0.00  0.00    +0.042 C 
ATOM     12  S   UNL     1      -3.678   1.753   3.585  0.00  0.00    -0.127 S 
ATOM     13  C   UNL     1      -4.091  -0.165   5.615  0.00  0.00    +0.025 C 
ATOM     14  C   UNL     1      -3.651  -1.051   3.288  0.00  0.00    +0.025 C 
BRANCH  10  15
ATOM     15  C   UNL     1      -6.457  -1.101   3.649  0.00  0.00    +0.377 C 
ATOM     16  O   UNL     1      -6.234  -1.958   4.487  0.00  0.00    -0.244 OA
ATOM     17  OXT UNL     1      -7.212  -1.337   2.721  0.00  0.00    -0.244 OA
ENDBRANCH  10  15
ENDBRANCH   3   5
BRANCH   1  20
ATOM     18  C   UNL     1       0.157   1.646   0.389  0.00  0.00    +0.090 C 
ATOM     19  C   UNL     1      -0.128   0.201   0.072  0.00  0.00    +0.147 A 
ATOM     20  C   UNL     1      -1.359  -0.337  -0.170  0.00  0.00    +0.106 A 
ATOM     21  C   UNL     1      -1.152  -1.769  -0.430  0.00  0.00    +0.126 A 
ATOM     22  N   UNL     1       0.134  -1.992  -0.332  0.00  0.00    -0.077 NA
ATOM     23  O   UNL     1       0.780  -0.773  -0.025  0.00  0.00    -0.359 OA
BRANCH  21  24
ATOM     24  C   UNL     1      -2.201  -2.770  -0.744  0.00  0.00    +0.004 A 
ATOM     25  C   UNL     1      -3.463  -2.667  -0.162  0.00  0.00    +0.010 A 
ATOM     26  C   UNL     1      -4.435  -3.601  -0.458  0.00  0.00    +0.001 A 
ATOM     27  C   UNL     1      -4.158  -4.638  -1.330  0.00  0.00    +0.000 A 
ATOM     28  C   UNL     1      -2.907  -4.747  -1.910  0.00  0.00    +0.001 A 
ATOM     29  C   UNL     1      -1.929  -3.815  -1.626  0.00  0.00    +0.010 A 
ENDBRANCH  21  24
ENDBRANCH   1  20
TORSDOF 4
