REMARK  Name = ZINC62826731
REMARK  4 active torsions:
REMARK  status: ('A' for Active; 'I' for Inactive)
REMARK    1  A    between atoms: C_3  and  C_9
REMARK    2  A    between atoms: C_4  and  N_8
REMARK    3  A    between atoms: C_11  and  C_14
REMARK    4  A    between atoms: C_14  and  C_15
REMARK                            x       y       z     vdW  Elec       q    Type
REMARK                         _______ _______ _______ _____ _____    ______ ____
ROOT
ATOM      1  C   UNL     1       3.799   1.848   0.328  0.00  0.00    +0.260 A 
ATOM      2  N   UNL     1       4.071   3.129   0.453  0.00  0.00    -0.191 NA
ATOM      3  C   UNL     1       5.387   3.304   0.589  0.00  0.00    +0.176 A 
ATOM      4  N   UNL     1       5.978   2.143   0.555  0.00  0.00    -0.061 NA
ATOM      5  O   UNL     1       4.958   1.169   0.389  0.00  0.00    -0.333 OA
ENDROOT
BRANCH   1   8
ATOM      6  C   UNL     1       0.150   1.111   0.812  0.00  0.00    +0.002 A 
ATOM      7  C   UNL     1       1.402   1.665   0.977  0.00  0.00    +0.015 A 
ATOM      8  C   UNL     1       2.457   1.259   0.157  0.00  0.00    +0.061 A 
ATOM      9  C   UNL     1       2.233   0.288  -0.831  0.00  0.00    +0.051 A 
ATOM     10  C   UNL     1       0.965  -0.259  -0.983  0.00  0.00    +0.039 A 
ATOM     11  C   UNL     1      -0.068   0.153  -0.164  0.00  0.00    +0.017 A 
ATOM     12 BR   UNL     1       0.654  -1.569  -2.311  0.00  0.00    -0.048 Br
BRANCH   9  13
ATOM     13  N   UNL     1       3.276  -0.125  -1.655  0.00  0.00    -0.357 N 
ATOM     14  H   UNL     1       4.135   0.324  -1.612  0.00  0.00    +0.142 HD
ATOM     15  H   UNL     1       3.144  -0.862  -2.272  0.00  0.00    +0.142 HD
ENDBRANCH   9  13
ENDBRANCH   1   8
BRANCH   3  16
ATOM     16  C   UNL     1       6.079   4.632   0.756  0.00  0.00    +0.114 C 
BRANCH  16  17
ATOM     17  C   UNL     1       6.178   4.966   2.223  0.00  0.00    -0.040 A 
ATOM     18  C   UNL     1       5.162   5.672   2.840  0.00  0.00    +0.007 A 
ATOM     19  C   UNL     1       5.251   5.979   4.184  0.00  0.00    +0.038 A 
ATOM     20  C   UNL     1       6.358   5.578   4.913  0.00  0.00    +0.123 A 
ATOM     21  C   UNL     1       7.374   4.871   4.294  0.00  0.00    +0.038 A 
ATOM     22  C   UNL     1       7.281   4.561   2.951  0.00  0.00    +0.007 A 
ATOM     23  F   UNL     1       6.446   5.878   6.228  0.00  0.00    -0.205 F 
ENDBRANCH  16  17
ENDBRANCH   3  16
TORSDOF 4
