REMARK  Name = ZINC35212396
REMARK  12 active torsions:
REMARK  status: ('A' for Active; 'I' for Inactive)
REMARK    1  A    between atoms: C_1  and  C_2
REMARK    2  A    between atoms: N_8  and  C_9
REMARK    3  A    between atoms: C_9  and  C_10
REMARK    4  A    between atoms: C_10  and  C_11
REMARK    5  A    between atoms: C_11  and  N_12
REMARK    6  A    between atoms: C_13  and  C_15
REMARK    7  A    between atoms: C_19  and  C_34
REMARK    8  A    between atoms: C_22  and  C_24
REMARK    9  A    between atoms: C_27  and  C_30
REMARK   10  A    between atoms: C_30  and  C_31
REMARK   11  A    between atoms: C_30  and  C_32
REMARK   12  A    between atoms: C_30  and  C_33
REMARK                            x       y       z     vdW  Elec       q    Type
REMARK                         _______ _______ _______ _____ _____    ______ ____
ROOT
ATOM      1  C   UNL     1       1.391  -0.196   8.522  0.00  0.00    +0.173 C 
ATOM      2  C   UNL     1       1.338  -1.743   8.693  0.00  0.00    +0.103 C 
ATOM      3  S   UNL     1      -0.312  -1.867   9.517  0.00  0.00    -0.131 S 
ATOM      4  C   UNL     1      -0.261  -0.242  10.385  0.00  0.00    +0.166 C 
ATOM      5  N   UNL     1       0.823   0.473   9.689  0.00  0.00    -0.269 N 
ATOM      6  C   UNL     1       1.264   1.676  10.107  0.00  0.00    +0.248 C 
ATOM      7  O   UNL     1       2.085   2.285   9.448  0.00  0.00    -0.270 OA
ENDROOT
BRANCH   4   8
ATOM      8  C   UNL     1      -1.571   0.486  10.230  0.00  0.00    -0.014 A 
ATOM      9  C   UNL     1      -1.621   1.674   9.524  0.00  0.00    +0.006 A 
ATOM     10  C   UNL     1      -2.822   2.343   9.380  0.00  0.00    +0.003 A 
ATOM     11  C   UNL     1      -3.974   1.826   9.944  0.00  0.00    +0.038 A 
ATOM     12  C   UNL     1      -3.924   0.637  10.651  0.00  0.00    +0.124 A 
ATOM     13  C   UNL     1      -2.721  -0.035  10.789  0.00  0.00    +0.044 A 
ATOM     14  F   UNL     1      -5.049   0.132  11.203  0.00  0.00    -0.205 F 
ENDBRANCH   4   8
BRANCH   6  15
ATOM     15  C   UNL     1       0.748   2.257  11.365  0.00  0.00    +0.037 A 
ATOM     16  C   UNL     1      -0.268   1.610  12.070  0.00  0.00    +0.013 A 
ATOM     17  C   UNL     1      -0.744   2.157  13.244  0.00  0.00    +0.005 A 
ATOM     18  C   UNL     1      -0.217   3.343  13.722  0.00  0.00    -0.042 A 
ATOM     19  C   UNL     1       0.791   3.989  13.028  0.00  0.00    +0.005 A 
ATOM     20  C   UNL     1       1.280   3.450  11.856  0.00  0.00    +0.013 A 
BRANCH  18  21
ATOM     21  C   UNL     1      -0.742   3.935  15.005  0.00  0.00    -0.013 C 
ATOM     22  C   UNL     1      -0.526   2.943  16.150  0.00  0.00    +0.015 C 
ATOM     23  C   UNL     1       0.003   5.236  15.309  0.00  0.00    +0.015 C 
ATOM     24  C   UNL     1      -2.237   4.225  14.858  0.00  0.00    +0.015 C 
ENDBRANCH  18  21
ENDBRANCH   6  15
BRANCH   1  26
ATOM     25  N   UNL     1       1.025  -0.198   6.076  0.00  0.00    -0.314 N 
ATOM     26  C   UNL     1       0.608   0.195   7.296  0.00  0.00    +0.234 C 
ATOM     27  O   UNL     1      -0.399   0.862   7.407  0.00  0.00    -0.274 OA
ATOM     28  H   UNL     1       1.830  -0.732   5.987  0.00  0.00    +0.149 HD
BRANCH  25  29
ATOM     29  C   UNL     1       0.263   0.182   4.884  0.00  0.00    +0.102 C 
BRANCH  29  30
ATOM     30  C   UNL     1       0.947  -0.386   3.639  0.00  0.00    +0.000 C 
BRANCH  30  31
ATOM     31  C   UNL     1       0.151   0.011   2.394  0.00  0.00    -0.077 C 
BRANCH  31  38
ATOM     32  C   UNL     1       0.093   1.475  -0.001  0.00  0.00    -0.013 C 
ATOM     33  C   UNL     1       0.113  -0.055  -0.002  0.00  0.00    -0.072 C 
ATOM     34  C   UNL     1       0.842  -0.555  -1.251  0.00  0.00    -0.016 C 
ATOM     35  C   UNL     1       0.859  -2.086  -1.248  0.00  0.00    -0.003 C 
ATOM     36  C   UNL     1       1.519  -2.576   0.044  0.00  0.00    -0.019 C 
ATOM     37  C   UNL     1       0.765  -2.002   1.246  0.00  0.00    -0.078 C 
ATOM     38  N   UNL     1       0.808  -0.535   1.198  0.00  0.00    +0.381 N 
ATOM     39  H   UNL     1       1.769  -0.228   1.175  0.00  0.00    -0.081 HD
ENDBRANCH  31  38
ENDBRANCH  30  31
ENDBRANCH  29  30
ENDBRANCH  25  29
ENDBRANCH   1  26
TORSDOF 8
