REMARK  Name = ZINC18195335
REMARK  5 active torsions:
REMARK  status: ('A' for Active; 'I' for Inactive)
REMARK    1  A    between atoms: C_1  and  C_2
REMARK    2  A    between atoms: C_2  and  C_34
REMARK    3  A    between atoms: C_6  and  C_22
REMARK    4  A    between atoms: N_12  and  C_15
REMARK    5  A    between atoms: C_27  and  C_28
REMARK                            x       y       z     vdW  Elec       q    Type
REMARK                         _______ _______ _______ _____ _____    ______ ____
ROOT
ATOM      1  C   UNL     1       3.862   1.664  -3.529  0.00  0.00    +0.011 C 
ATOM      2  C   UNL     1       4.841   0.520  -3.805  0.00  0.00    -0.023 C 
ATOM      3  C   UNL     1       6.264   1.073  -3.903  0.00  0.00    +0.058 C 
ATOM      4  C   UNL     1       6.647   1.728  -2.595  0.00  0.00    +0.017 C 
ATOM      5  C   UNL     1       6.147   1.279  -1.427  0.00  0.00    +0.024 C 
ATOM      6  C   UNL     1       6.507   1.908  -0.098  0.00  0.00    +0.093 C 
ATOM      7  C   UNL     1       7.698   2.808  -0.274  0.00  0.00    +0.070 A 
ATOM      8  C   UNL     1       8.144   3.204  -1.510  0.00  0.00    +0.125 A 
ATOM      9  N   UNL     1       9.225   4.011  -1.333  0.00  0.00    -0.277 N 
ATOM     10  H   UNL     1       9.741   4.437  -2.036  0.00  0.00    +0.189 HD
ATOM     11  N   UNL     1       9.461   4.118   0.047  0.00  0.00    -0.218 N 
ATOM     12  C   UNL     1       8.527   3.382   0.689  0.00  0.00    +0.278 A 
ATOM     13  O   UNL     1       8.428   3.245   1.896  0.00  0.00    -0.265 OA
ATOM     14  N   UNL     1       7.524   2.787  -2.663  0.00  0.00    -0.303 N 
ATOM     15  C   UNL     1       5.252   0.192  -1.392  0.00  0.00    +0.162 C 
ATOM     16  O   UNL     1       4.841  -0.205  -0.320  0.00  0.00    -0.292 OA
ATOM     17  C   UNL     1       4.795  -0.488  -2.652  0.00  0.00    +0.086 C 
ATOM     18  C   UNL     1       4.465  -0.175  -5.115  0.00  0.00    +0.011 C 
ATOM     19  H   UNL     1       7.700   3.229  -3.508  0.00  0.00    +0.153 HD
ENDROOT
BRANCH  11  20
ATOM     20  C   UNL     1      10.484   4.856   0.651  0.00  0.00    +0.067 A 
ATOM     21  C   UNL     1      10.609   4.870   2.034  0.00  0.00    +0.028 A 
ATOM     22  C   UNL     1      11.620   5.600   2.627  0.00  0.00    +0.002 A 
ATOM     23  C   UNL     1      12.508   6.316   1.845  0.00  0.00    +0.000 A 
ATOM     24  C   UNL     1      12.387   6.304   0.468  0.00  0.00    +0.002 A 
ATOM     25  C   UNL     1      11.382   5.571  -0.132  0.00  0.00    +0.028 A 
ENDBRANCH  11  20
BRANCH   6  26
ATOM     26  C   UNL     1       5.339   2.714   0.409  0.00  0.00    -0.021 A 
ATOM     27  C   UNL     1       4.769   3.683  -0.390  0.00  0.00    +0.005 A 
ATOM     28  C   UNL     1       3.696   4.424   0.074  0.00  0.00    +0.000 A 
ATOM     29  C   UNL     1       3.188   4.199   1.341  0.00  0.00    +0.001 A 
ATOM     30  C   UNL     1       3.748   3.234   2.152  0.00  0.00    +0.015 A 
ATOM     31  C   UNL     1       4.827   2.478   1.688  0.00  0.00    +0.067 A 
BRANCH  31  32
ATOM     32  C   UNL     1       5.428   1.438   2.546  0.00  0.00    +0.387 C 
ATOM     33  O   UNL     1       5.850   1.731   3.656  0.00  0.00    -0.241 OA
ATOM     34  O   UNL     1       5.504   0.285   2.147  0.00  0.00    -0.241 OA
ENDBRANCH  31  32
ENDBRANCH   6  26
TORSDOF 3
