REMARK  Name = ZINC15969303
REMARK  5 active torsions:
REMARK  status: ('A' for Active; 'I' for Inactive)
REMARK    1  A    between atoms: C_1  and  C_2
REMARK    2  A    between atoms: C_2  and  C_4
REMARK    3  A    between atoms: C_2  and  O_37
REMARK    4  A    between atoms: N_12  and  C_15
REMARK    5  A    between atoms: C_15  and  C_16
REMARK                            x       y       z     vdW  Elec       q    Type
REMARK                         _______ _______ _______ _____ _____    ______ ____
ROOT
ATOM      1  C   UNL     1       0.718  -0.497  -1.257  0.00  0.00    +0.096 C 
ATOM      2  C   UNL     1       0.718  -2.040  -1.305  0.00  0.00    +0.109 C 
ATOM      3  C   UNL     1       0.516  -2.393  -2.805  0.00  0.00    +0.123 C 
ATOM      4  C   UNL     1      -0.830  -3.083  -2.821  0.00  0.00    +0.229 C 
ATOM      5  O   UNL     1      -1.374  -3.535  -3.806  0.00  0.00    -0.275 OA
ATOM      6  N   UNL     1      -1.326  -3.119  -1.579  0.00  0.00    -0.237 N 
ATOM      7  C   UNL     1      -0.534  -2.561  -0.636  0.00  0.00    +0.228 C 
ATOM      8  O   UNL     1      -0.778  -2.484   0.549  0.00  0.00    -0.275 OA
ATOM      9  C   UNL     1       0.422  -1.034  -3.511  0.00  0.00    +0.136 C 
ATOM     10  N   UNL     1      -0.024  -0.075  -2.474  0.00  0.00    -0.293 NA
ATOM     11  C   UNL     1       1.734  -0.641  -4.127  0.00  0.00    +0.005 A 
ATOM     12  C   UNL     1       2.996  -0.431  -3.616  0.00  0.00    +0.008 A 
ATOM     13  C   UNL     1       4.032  -0.068  -4.457  0.00  0.00    +0.002 A 
ATOM     14  C   UNL     1       3.798   0.084  -5.812  0.00  0.00    +0.022 A 
ATOM     15  C   UNL     1       2.536  -0.125  -6.329  0.00  0.00    +0.062 A 
ATOM     16  C   UNL     1       1.486  -0.490  -5.487  0.00  0.00    +0.057 A 
ATOM     17  N   UNL     1       0.141  -0.751  -5.765  0.00  0.00    -0.282 N 
ATOM     18  C   UNL     1      -0.552  -1.077  -4.657  0.00  0.00    +0.243 C 
ATOM     19  O   UNL     1      -1.731  -1.352  -4.595  0.00  0.00    -0.273 OA
ATOM     20 CL   UNL     1       2.254   0.069  -8.030  0.00  0.00    -0.082 Cl
ATOM     21  H   UNL     1      -1.021  -0.126  -2.325  0.00  0.00    +0.124 HD
ATOM     22  H   UNL     1      -0.248  -0.702  -6.652  0.00  0.00    +0.155 HD
ENDROOT
BRANCH   1  24
ATOM     23  C   UNL     1       0.853  -0.327   1.232  0.00  0.00    +0.039 C 
ATOM     24  C   UNL     1       0.002  -0.004   0.002  0.00  0.00    +0.129 C 
BRANCH  24  25
ATOM     25  O   UNL     1      -0.194   1.409  -0.084  0.00  0.00    -0.390 OA
ATOM     26  H   UNL     1      -0.644   1.791   0.682  0.00  0.00    +0.210 HD
ENDBRANCH  24  25
ENDBRANCH   1  24
BRANCH   6  27
ATOM     27  C   UNL     1      -2.624  -3.721  -1.262  0.00  0.00    +0.151 C 
BRANCH  27  28
ATOM     28  C   UNL     1      -2.434  -5.180  -0.936  0.00  0.00    -0.026 A 
ATOM     29  C   UNL     1      -2.496  -6.125  -1.943  0.00  0.00    +0.009 A 
ATOM     30  C   UNL     1      -2.322  -7.465  -1.648  0.00  0.00    +0.050 A 
ATOM     31  C   UNL     1      -2.087  -7.863  -0.342  0.00  0.00    +0.166 A 
ATOM     32  C   UNL     1      -2.025  -6.911   0.672  0.00  0.00    +0.167 A 
ATOM     33  C   UNL     1      -2.194  -5.569   0.369  0.00  0.00    +0.054 A 
ATOM     34  O   UNL     1      -1.786  -7.548   1.855  0.00  0.00    -0.453 OA
ATOM     35  C   UNL     1      -2.107  -8.932   1.618  0.00  0.00    +0.466 C 
ATOM     36  O   UNL     1      -1.885  -9.097   0.205  0.00  0.00    -0.453 OA
ENDBRANCH  27  28
ENDBRANCH   6  27
TORSDOF 4
