REMARK  Name = ZINC23248823
REMARK  11 active torsions:
REMARK  status: ('A' for Active; 'I' for Inactive)
REMARK    1  A    between atoms: C_1  and  C_2
REMARK    2  A    between atoms: C_9  and  N_15
REMARK    3  A    between atoms: C_10  and  C_11
REMARK    4  A    between atoms: C_11  and  O_13
REMARK    5  A    between atoms: O_13  and  C_14
REMARK    6  A    between atoms: C_16  and  C_18
REMARK    7  A    between atoms: C_18  and  N_19
REMARK    8  A    between atoms: N_22  and  C_25
REMARK    9  A    between atoms: C_25  and  C_27
REMARK   10  A    between atoms: C_25  and  C_28
REMARK   11  A    between atoms: N_30  and  C_31
REMARK                            x       y       z     vdW  Elec       q    Type
REMARK                         _______ _______ _______ _____ _____    ______ ____
ROOT
ATOM      1  N   UNL     1       1.926  -3.211  -2.251  0.00  0.00    -0.278 N 
ATOM      2  C   UNL     1       3.054  -3.941  -2.358  0.00  0.00    +0.232 C 
ATOM      3  O   UNL     1       3.103  -5.054  -1.881  0.00  0.00    -0.274 OA
ATOM      4  H   UNL     1       1.881  -2.201  -2.684  0.00  0.00    +0.155 HD
ENDROOT
BRANCH   1  12
ATOM      5  C   UNL     1      -4.049  -6.494   1.585  0.00  0.00    +0.008 C 
ATOM      6  C   UNL     1      -3.055  -5.449   1.074  0.00  0.00    -0.009 C 
ATOM      7  C   UNL     1      -3.711  -4.605  -0.022  0.00  0.00    +0.008 C 
ATOM      8  C   UNL     1      -2.820  -3.409  -0.361  0.00  0.00    +0.037 C 
ATOM      9  C   UNL     1      -1.415  -3.914  -0.665  0.00  0.00    -0.021 A 
ATOM     10  C   UNL     1      -1.017  -5.143  -0.269  0.00  0.00    -0.004 A 
ATOM     11  S   UNL     1       0.654  -5.282  -0.837  0.00  0.00    -0.077 S 
ATOM     12  C   UNL     1       0.822  -3.733  -1.595  0.00  0.00    +0.086 A 
ATOM     13  C   UNL     1      -0.416  -3.142  -1.384  0.00  0.00    +0.091 A 
ATOM     14  C   UNL     1      -1.824  -6.154   0.485  0.00  0.00    +0.046 C 
BRANCH  13  15
ATOM     15  C   UNL     1      -0.707  -1.792  -1.873  0.00  0.00    +0.342 C 
ATOM     16  O   UNL     1      -0.484  -0.828  -1.166  0.00  0.00    -0.245 OA
BRANCH  15  17
ATOM     17  O   UNL     1      -1.221  -1.619  -3.108  0.00  0.00    -0.464 OA
ATOM     18  C   UNL     1      -1.484  -0.254  -3.527  0.00  0.00    +0.280 C 
ENDBRANCH  15  17
ENDBRANCH  13  15
ENDBRANCH   1  12
BRANCH   2  19
ATOM     19  C   UNL     1       4.254  -3.373  -3.071  0.00  0.00    +0.180 C 
BRANCH  19  20
ATOM     20  N   UNL     1       5.346  -4.355  -3.051  0.00  0.00    -0.298 NA
ATOM     21  C   UNL     1       5.830  -4.578  -1.682  0.00  0.00    +0.066 C 
ATOM     22  C   UNL     1       6.909  -5.663  -1.695  0.00  0.00    -0.062 C 
ATOM     23  N   UNL     1       8.008  -5.247  -2.577  0.00  0.00    +0.389 N 
ATOM     24  C   UNL     1       7.524  -5.025  -3.947  0.00  0.00    -0.062 C 
ATOM     25  C   UNL     1       6.445  -3.939  -3.934  0.00  0.00    +0.066 C 
ATOM     26  H   UNL     1       8.406  -4.294  -2.199  0.00  0.00    -0.081 HD
BRANCH  23  27
ATOM     27  C   UNL     1       9.099  -6.230  -2.558  0.00  0.00    +0.016 C 
ATOM     28  C   UNL     1       9.517  -6.499  -1.111  0.00  0.00    -0.004 C 
BRANCH  27  29
ATOM     29  C   UNL     1      10.276  -5.689  -3.328  0.00  0.00    +0.199 C 
ATOM     30  O   UNL     1      10.442  -4.491  -3.420  0.00  0.00    -0.278 OA
ATOM     31  N   UNL     1      11.144  -6.537  -3.916  0.00  0.00    -0.314 N 
ATOM     32  H   UNL     1      10.993  -7.623  -3.833  0.00  0.00    +0.149 HD
BRANCH  31  33
ATOM     33  C   UNL     1      12.288  -6.011  -4.665  0.00  0.00    +0.073 C 
ATOM     34  C   UNL     1      12.608  -6.660  -6.013  0.00  0.00    +0.024 C 
ATOM     35  C   UNL     1      13.515  -6.913  -4.806  0.00  0.00    +0.024 C 
ENDBRANCH  31  33
ENDBRANCH  27  29
ENDBRANCH  23  27
ENDBRANCH  19  20
ENDBRANCH   2  19
TORSDOF 8
