REMARK  Name = ZINC63731678
REMARK  13 active torsions:
REMARK  status: ('A' for Active; 'I' for Inactive)
REMARK    1  A    between atoms: C_1  and  C_2
REMARK    2  A    between atoms: C_2  and  O_3
REMARK    3  A    between atoms: O_3  and  C_4
REMARK    4  A    between atoms: C_4  and  C_6
REMARK    5  A    between atoms: C_11  and  N_12
REMARK    6  A    between atoms: C_13  and  C_15
REMARK    7  A    between atoms: C_15  and  O_16
REMARK    8  A    between atoms: O_16  and  C_17
REMARK    9  A    between atoms: C_17  and  C_19
REMARK   10  A    between atoms: C_19  and  C_21
REMARK   11  A    between atoms: C_19  and  N_31
REMARK   12  A    between atoms: C_21  and  C_22
REMARK   13  A    between atoms: C_32  and  C_34
REMARK                            x       y       z     vdW  Elec       q    Type
REMARK                         _______ _______ _______ _____ _____    ______ ____
ROOT
ATOM      1  C   UNL     1       1.028  -9.296  -0.392  0.00  0.00    +0.328 C 
ATOM      2  O   UNL     1       0.300  -9.073   0.547  0.00  0.00    -0.249 OA
ENDROOT
BRANCH   1   3
ATOM      3  O   UNL     1       1.439  -8.288  -1.177  0.00  0.00    -0.454 OA
BRANCH   3   4
ATOM      4  C   UNL     1       0.976  -6.977  -0.845  0.00  0.00    +0.328 C 
BRANCH   4   6
ATOM      5  N   UNL     1       1.232  -4.675  -1.712  0.00  0.00    -0.282 N 
ATOM      6  C   UNL     1       1.536  -5.982  -1.829  0.00  0.00    +0.255 C 
ATOM      7  O   UNL     1       2.260  -6.359  -2.727  0.00  0.00    -0.272 OA
ATOM      8  H   UNL     1       0.717  -4.362  -0.952  0.00  0.00    +0.155 HD
BRANCH   5  14
ATOM      9  C   UNL     1       2.022  -2.466  -2.320  0.00  0.00    +0.080 A 
ATOM     10  C   UNL     1       2.453  -1.571  -3.303  0.00  0.00    +0.017 A 
ATOM     11  C   UNL     1       2.513  -1.973  -4.620  0.00  0.00    +0.001 A 
ATOM     12  C   UNL     1       2.148  -3.262  -4.975  0.00  0.00    +0.002 A 
ATOM     13  C   UNL     1       1.719  -4.157  -4.016  0.00  0.00    +0.024 A 
ATOM     14  C   UNL     1       1.658  -3.772  -2.683  0.00  0.00    +0.048 A 
BRANCH   9  15
ATOM     15  C   UNL     1       1.956  -2.042  -0.910  0.00  0.00    +0.341 C 
ATOM     16  O   UNL     1       1.501  -2.794  -0.071  0.00  0.00    -0.245 OA
BRANCH  15  17
ATOM     17  O   UNL     1       2.401  -0.822  -0.551  0.00  0.00    -0.461 OA
BRANCH  17  19
ATOM     18  C   UNL     1       2.855   0.934   1.045  0.00  0.00    +0.048 C 
ATOM     19  C   UNL     1       2.307  -0.478   0.832  0.00  0.00    +0.229 C 
ENDBRANCH  17  19
ENDBRANCH  15  17
ENDBRANCH   9  15
ENDBRANCH   5  14
ENDBRANCH   4   6
ENDBRANCH   3   4
ENDBRANCH   1   3
BRANCH   1  20
ATOM     20  C   UNL     1       1.475 -10.706  -0.680  0.00  0.00    +0.186 C 
BRANCH  20  21
ATOM     21  N   UNL     1       1.316 -11.524   0.524  0.00  0.00    -0.302 N 
ATOM     22  C   UNL     1       0.097 -11.676   1.080  0.00  0.00    +0.211 C 
ATOM     23  O   UNL     1      -0.867 -11.135   0.583  0.00  0.00    -0.276 OA
ATOM     24  C   UNL     1      -0.066 -12.519   2.319  0.00  0.00    +0.109 C 
ATOM     25  H   UNL     1       2.088 -11.957   0.922  0.00  0.00    +0.150 HD
ENDBRANCH  20  21
BRANCH  20  26
ATOM     26  C   UNL     1       0.624 -11.290  -1.810  0.00  0.00    +0.067 C 
BRANCH  26  27
ATOM     27  C   UNL     1       1.149 -12.652  -2.182  0.00  0.00    -0.039 C 
ATOM     28  C   UNL     1       0.707 -13.846  -1.726  0.00  0.00    -0.001 A 
ATOM     29  C   UNL     1      -0.354 -14.220  -0.782  0.00  0.00    +0.010 A 
ATOM     30  C   UNL     1      -0.566 -15.529  -0.518  0.00  0.00    +0.001 A 
ATOM     31  C   UNL     1       0.201 -16.536  -1.121  0.00  0.00    +0.002 A 
ATOM     32  C   UNL     1       1.193 -16.271  -1.998  0.00  0.00    +0.026 A 
ATOM     33  C   UNL     1       1.502 -14.929  -2.349  0.00  0.00    +0.043 A 
ATOM     34  N   UNL     1       2.401 -14.423  -3.159  0.00  0.00    -0.380 N 
ATOM     35  C   UNL     1       2.273 -12.961  -3.145  0.00  0.00    +0.144 C 
ATOM     36  H   UNL     1       3.040 -14.931  -3.682  0.00  0.00    +0.160 HD
ENDBRANCH  26  27
ENDBRANCH  20  26
ENDBRANCH   1  20
TORSDOF 11
