REMARK  Name = ZINC39534062
REMARK  8 active torsions:
REMARK  status: ('A' for Active; 'I' for Inactive)
REMARK    1  A    between atoms: C_4  and  O_32
REMARK    2  A    between atoms: C_5  and  C_7
REMARK    3  A    between atoms: C_10  and  C_13
REMARK    4  A    between atoms: C_13  and  C_15
REMARK    5  A    between atoms: C_13  and  N_24
REMARK    6  A    between atoms: C_15  and  N_16
REMARK    7  A    between atoms: N_16  and  C_17
REMARK    8  A    between atoms: C_22  and  O_23
REMARK                            x       y       z     vdW  Elec       q    Type
REMARK                         _______ _______ _______ _____ _____    ______ ____
ROOT
ATOM      1  C   UNL     1       1.319  -6.441  -0.046  0.00  0.00    +0.104 C 
ENDROOT
BRANCH   1   2
ATOM      2  N   UNL     1       1.456  -6.936   1.330  0.00  0.00    -0.289 NA
ATOM      3  C   UNL     1       0.289  -6.565   2.142  0.00  0.00    +0.100 C 
ATOM      4  C   UNL     1       0.433  -7.166   3.542  0.00  0.00    +0.099 C 
ATOM      5  N   UNL     1       1.675  -6.677   4.156  0.00  0.00    -0.285 NA
ATOM      6  C   UNL     1       2.842  -7.048   3.344  0.00  0.00    +0.248 C 
ATOM      7  C   UNL     1       2.698  -6.447   1.944  0.00  0.00    +0.138 C 
ATOM      8  F   UNL     1       4.005  -6.555   3.947  0.00  0.00    -0.227 F 
ATOM      9  H   UNL     1       1.638  -5.679   4.302  0.00  0.00    +0.125 HD
ENDBRANCH   1   2
BRANCH   1  13
ATOM     10  C   UNL     1       0.858  -2.190   0.009  0.00  0.00    -0.014 A 
ATOM     11  C   UNL     1      -0.172  -3.011   0.462  0.00  0.00    +0.009 A 
ATOM     12  C   UNL     1      -0.018  -4.383   0.441  0.00  0.00    +0.006 A 
ATOM     13  C   UNL     1       1.157  -4.942  -0.027  0.00  0.00    -0.029 A 
ATOM     14  C   UNL     1       2.183  -4.132  -0.478  0.00  0.00    +0.006 A 
ATOM     15  C   UNL     1       2.038  -2.760  -0.467  0.00  0.00    +0.009 A 
BRANCH  10  20
ATOM     16  C   UNL     1       1.535   1.460   0.604  0.00  0.00    +0.001 A 
ATOM     17  C   UNL     1       0.400   2.040   0.065  0.00  0.00    +0.004 A 
ATOM     18  C   UNL     1      -0.588   1.252  -0.493  0.00  0.00    +0.046 A 
ATOM     19  C   UNL     1      -0.447  -0.127  -0.516  0.00  0.00    +0.125 A 
ATOM     20  C   UNL     1       0.698  -0.716   0.028  0.00  0.00    +0.024 A 
ATOM     21  C   UNL     1       1.688   0.088   0.589  0.00  0.00    +0.012 A 
BRANCH  19  22
ATOM     22  O   UNL     1      -1.418  -0.903  -1.063  0.00  0.00    -0.506 OA
ATOM     23  H   UNL     1      -1.299  -1.073  -2.008  0.00  0.00    +0.292 HD
ENDBRANCH  19  22
ENDBRANCH  10  20
ENDBRANCH   1  13
BRANCH   1  24
ATOM     24  C   UNL     1       0.091  -7.078  -0.698  0.00  0.00    +0.125 C 
BRANCH  24  25
ATOM     25  N   UNL     1       0.193  -8.537  -0.610  0.00  0.00    -0.339 N 
ATOM     26  H   UNL     1       0.964  -8.944  -0.183  0.00  0.00    +0.146 HD
BRANCH  25  27
ATOM     27  C   UNL     1      -0.820  -9.343  -1.141  0.00  0.00    +0.069 A 
ATOM     28  C   UNL     1      -1.919  -8.763  -1.757  0.00  0.00    +0.026 A 
ATOM     29  C   UNL     1      -2.918  -9.561  -2.281  0.00  0.00    +0.002 A 
ATOM     30  C   UNL     1      -2.825 -10.938  -2.194  0.00  0.00    +0.004 A 
ATOM     31  C   UNL     1      -1.732 -11.524  -1.582  0.00  0.00    +0.047 A 
ATOM     32  C   UNL     1      -0.724 -10.731  -1.059  0.00  0.00    +0.138 A 
BRANCH  32  33
ATOM     33  O   UNL     1       0.354 -11.305  -0.461  0.00  0.00    -0.505 OA
ATOM     34  H   UNL     1       0.244 -11.454   0.488  0.00  0.00    +0.292 HD
ENDBRANCH  32  33
ENDBRANCH  25  27
ENDBRANCH  24  25
ENDBRANCH   1  24
TORSDOF 8
