REMARK  Name = ZINC67648544
REMARK  6 active torsions:
REMARK  status: ('A' for Active; 'I' for Inactive)
REMARK    1  A    between atoms: C_1  and  C_2
REMARK    2  A    between atoms: C_2  and  C_4
REMARK    3  A    between atoms: C_2  and  N_12
REMARK    4  A    between atoms: C_7  and  C_10
REMARK    5  A    between atoms: C_13  and  C_15
REMARK    6  A    between atoms: C_17  and  N_22
REMARK                            x       y       z     vdW  Elec       q    Type
REMARK                         _______ _______ _______ _____ _____    ______ ____
ROOT
ATOM      1  N   UNL     1       0.688  -0.476  -1.203  0.00  0.00    -0.305 N 
ATOM      2  C   UNL     1       2.031  -0.587  -1.215  0.00  0.00    +0.246 C 
ATOM      3  O   UNL     1       2.674  -0.295  -0.225  0.00  0.00    -0.270 OA
ATOM      4  H   UNL     1       0.175  -0.710  -1.993  0.00  0.00    +0.150 HD
ENDROOT
BRANCH   2   5
ATOM      5  C   UNL     1       2.723  -1.064  -2.431  0.00  0.00    +0.053 A 
ATOM      6  C   UNL     1       1.988  -1.395  -3.571  0.00  0.00    +0.047 A 
ATOM      7  C   UNL     1       2.640  -1.839  -4.703  0.00  0.00    +0.127 A 
ATOM      8  C   UNL     1       4.019  -1.956  -4.710  0.00  0.00    +0.034 A 
ATOM      9  C   UNL     1       4.753  -1.630  -3.585  0.00  0.00    +0.018 A 
ATOM     10  C   UNL     1       4.114  -1.179  -2.446  0.00  0.00    +0.030 A 
ATOM     11 BR   UNL     1       5.121  -0.727  -0.910  0.00  0.00    -0.050 Br
BRANCH   7  12
ATOM     12  N   UNL     1       1.863  -2.190  -5.912  0.00  0.00    +0.056 N 
ATOM     13  O   UNL     1       0.658  -2.089  -5.907  0.00  0.00    -0.126 OA
ATOM     14  O   UNL     1       2.432  -2.579  -6.905  0.00  0.00    -0.126 OA
ENDBRANCH   7  12
ENDBRANCH   2   5
BRANCH   1  16
ATOM     15  C   UNL     1      -0.019   1.526   0.010  0.00  0.00    +0.033 C 
ATOM     16  C   UNL     1       0.002  -0.004   0.002  0.00  0.00    +0.100 C 
BRANCH  16  17
ATOM     17  C   UNL     1      -1.412  -0.526   0.013  0.00  0.00    -0.027 A 
ATOM     18  C   UNL     1      -2.139  -0.568  -1.163  0.00  0.00    +0.007 A 
ATOM     19  C   UNL     1      -3.434  -1.044  -1.161  0.00  0.00    +0.019 A 
ATOM     20  C   UNL     1      -4.010  -1.485   0.032  0.00  0.00    +0.052 A 
ATOM     21  C   UNL     1      -3.270  -1.440   1.216  0.00  0.00    +0.019 A 
ATOM     22  C   UNL     1      -1.974  -0.966   1.198  0.00  0.00    +0.007 A 
BRANCH  20  23
ATOM     23  C   UNL     1      -5.353  -1.980   0.043  0.00  0.00    +0.099 C 
ATOM     24  N   UNL     1      -6.419  -2.373   0.051  0.00  0.00    -0.191 NA
ENDBRANCH  20  23
ENDBRANCH  16  17
ENDBRANCH   1  16
TORSDOF 5
