REMARK  Name = ZINC03840351
REMARK  4 active torsions:
REMARK  status: ('A' for Active; 'I' for Inactive)
REMARK    1  A    between atoms: C_1  and  N_2
REMARK    2  A    between atoms: C_6  and  C_7
REMARK    3  A    between atoms: N_9  and  C_10
REMARK    4  A    between atoms: N_20  and  C_23
REMARK                            x       y       z     vdW  Elec       q    Type
REMARK                         _______ _______ _______ _____ _____    ______ ____
ROOT
ATOM      1  C   UNL     1       0.720  -2.530  -1.094  0.00  0.00    +0.077 C 
ATOM      2  C   UNL     1      -0.664  -1.962  -1.408  0.00  0.00    +0.041 C 
ATOM      3  C   UNL     1      -1.077  -0.968  -0.311  0.00  0.00    +0.112 C 
ATOM      4  N   UNL     1       0.026  -0.018  -0.144  0.00  0.00    -0.273 N 
ATOM      5  C   UNL     1       1.433  -0.433   0.044  0.00  0.00    +0.166 C 
ATOM      6  C   UNL     1       1.769  -1.414  -1.084  0.00  0.00    +0.054 C 
ATOM      7  C   UNL     1       2.194   0.862  -0.126  0.00  0.00    +0.248 C 
ATOM      8  O   UNL     1       3.397   1.004  -0.180  0.00  0.00    -0.273 OA
ATOM      9  N   UNL     1       1.254   1.828  -0.204  0.00  0.00    -0.193 N 
ATOM     10  C   UNL     1       0.015   1.317  -0.158  0.00  0.00    +0.316 C 
ATOM     11  O   UNL     1      -0.998   1.989  -0.138  0.00  0.00    -0.252 OA
ENDROOT
BRANCH   9  12
ATOM     12  C   UNL     1       1.538   3.197  -0.320  0.00  0.00    +0.046 A 
ATOM     13  C   UNL     1       2.849   3.645  -0.225  0.00  0.00    +0.025 A 
ATOM     14  C   UNL     1       3.127   4.993  -0.345  0.00  0.00    +0.022 A 
ATOM     15  C   UNL     1       2.099   5.897  -0.548  0.00  0.00    +0.041 A 
ATOM     16  C   UNL     1       0.792   5.453  -0.637  0.00  0.00    +0.022 A 
ATOM     17  C   UNL     1       0.509   4.106  -0.524  0.00  0.00    +0.025 A 
ATOM     18 CL   UNL     1       2.451   7.591  -0.691  0.00  0.00    -0.084 Cl
ENDBRANCH   9  12
BRANCH   1  21
ATOM     19  C   UNL     1       0.280  -4.455   0.333  0.00  0.00    +0.261 C 
ATOM     20  O   UNL     1       0.021  -5.102  -0.665  0.00  0.00    -0.269 OA
ATOM     21  N   UNL     1       0.690  -3.177   0.221  0.00  0.00    -0.307 N 
ATOM     22  H   UNL     1       0.966  -2.685   1.010  0.00  0.00    +0.149 HD
BRANCH  19  28
ATOM     23  C   UNL     1      -0.440  -7.413   0.912  0.00  0.00    +0.149 C 
ATOM     24  N   UNL     1      -0.175  -6.382   1.919  0.00  0.00    -0.346 N 
ATOM     25  C   UNL     1      -0.202  -6.563   3.262  0.00  0.00    +0.086 A 
ATOM     26  C   UNL     1       0.086  -5.387   3.869  0.00  0.00    +0.020 A 
ATOM     27  C   UNL     1       0.307  -4.433   2.871  0.00  0.00    +0.032 A 
ATOM     28  C   UNL     1       0.144  -5.068   1.659  0.00  0.00    +0.104 A 
ENDBRANCH  19  28
ENDBRANCH   1  21
TORSDOF 3
