REMARK  Name = ZINC12497314
REMARK  8 active torsions:
REMARK  status: ('A' for Active; 'I' for Inactive)
REMARK    1  A    between atoms: C_1  and  C_2
REMARK    2  A    between atoms: C_5  and  C_8
REMARK    3  A    between atoms: N_16  and  C_19
REMARK    4  A    between atoms: C_22  and  C_25
REMARK    5  A    between atoms: C_26  and  C_27
REMARK    6  A    between atoms: C_26  and  C_28
REMARK    7  A    between atoms: C_28  and  O_30
REMARK    8  A    between atoms: O_30  and  C_31
REMARK                            x       y       z     vdW  Elec       q    Type
REMARK                         _______ _______ _______ _____ _____    ______ ____
ROOT
ATOM      1  C   UNL     1      -0.076   5.774   0.034  0.00  0.00    -0.027 C 
ATOM      2  C   UNL     1      -0.378   6.296  -1.324  0.00  0.00    +0.077 C 
ATOM      3  C   UNL     1      -1.959   6.224  -1.329  0.00  0.00    +0.086 C 
ATOM      4  C   UNL     1      -2.175   6.784  -2.682  0.00  0.00    +0.229 C 
ATOM      5  O   UNL     1      -3.078   7.508  -3.043  0.00  0.00    -0.275 OA
ATOM      6  N   UNL     1      -1.136   6.310  -3.439  0.00  0.00    -0.210 N 
ATOM      7  C   UNL     1      -0.113   5.808  -2.674  0.00  0.00    +0.229 C 
ATOM      8  O   UNL     1       0.810   5.112  -3.039  0.00  0.00    -0.275 OA
ATOM      9  C   UNL     1      -2.202   6.930  -0.016  0.00  0.00    +0.041 C 
ATOM     10  C   UNL     1      -3.628   6.683   0.483  0.00  0.00    +0.002 C 
ATOM     11  N   UNL     1      -1.197   6.278   0.877  0.00  0.00    +0.395 N 
ATOM     12  H   UNL     1      -0.841   6.962   1.555  0.00  0.00    -0.083 HD
ATOM     13  H   UNL     1      -1.634   5.496   1.378  0.00  0.00    -0.083 HD
ENDROOT
BRANCH   1  18
ATOM     14  C   UNL     1       0.002  -0.004   0.002  0.00  0.00    +0.044 C 
ATOM     15  C   UNL     1      -0.018   1.503   0.010  0.00  0.00    -0.050 A 
ATOM     16  C   UNL     1      -1.225   2.178   0.020  0.00  0.00    +0.003 A 
ATOM     17  C   UNL     1      -1.244   3.560   0.032  0.00  0.00    +0.002 A 
ATOM     18  C   UNL     1      -0.056   4.267   0.025  0.00  0.00    -0.061 A 
ATOM     19  C   UNL     1       1.151   3.592   0.010  0.00  0.00    +0.002 A 
ATOM     20  C   UNL     1       1.169   2.210   0.003  0.00  0.00    +0.003 A 
ENDBRANCH   1  18
BRANCH   6  21
ATOM     21  C   UNL     1      -1.120   6.335  -4.841  0.00  0.00    +0.044 A 
ATOM     22  C   UNL     1      -2.200   6.857  -5.539  0.00  0.00    +0.024 A 
ATOM     23  C   UNL     1      -2.179   6.884  -6.920  0.00  0.00    +0.005 A 
ATOM     24  C   UNL     1      -1.088   6.384  -7.607  0.00  0.00    -0.050 A 
ATOM     25  C   UNL     1      -0.013   5.859  -6.914  0.00  0.00    +0.005 A 
ATOM     26  C   UNL     1      -0.026   5.833  -5.533  0.00  0.00    +0.024 A 
ATOM     27  C   UNL     1      -1.071   6.411  -9.114  0.00  0.00    +0.044 C 
ENDBRANCH   6  21
BRANCH   9  28
ATOM     28  C   UNL     1      -1.930   8.406  -0.143  0.00  0.00    +0.296 C 
ATOM     29  O   UNL     1      -2.111   8.966  -1.198  0.00  0.00    -0.252 OA
BRANCH  28  30
ATOM     30  O   UNL     1      -1.486   9.100   0.917  0.00  0.00    -0.469 OA
ATOM     31  C   UNL     1      -1.245  10.519   0.722  0.00  0.00    +0.280 C 
ENDBRANCH  28  30
ENDBRANCH   9  28
TORSDOF 4
