REMARK  Name = ZINC63314288
REMARK  10 active torsions:
REMARK  status: ('A' for Active; 'I' for Inactive)
REMARK    1  A    between atoms: C_1  and  C_2
REMARK    2  A    between atoms: C_2  and  C_3
REMARK    3  A    between atoms: C_3  and  S_4
REMARK    4  A    between atoms: S_4  and  C_5
REMARK    5  A    between atoms: C_10  and  N_15
REMARK    6  A    between atoms: C_16  and  C_18
REMARK    7  A    between atoms: C_18  and  S_19
REMARK    8  A    between atoms: S_19  and  C_20
REMARK    9  A    between atoms: C_23  and  S_26
REMARK   10  A    between atoms: S_26  and  C_27
REMARK                            x       y       z     vdW  Elec       q    Type
REMARK                         _______ _______ _______ _____ _____    ______ ____
ROOT
ATOM      1  C   UNL     1      -3.112  -2.797   0.017  0.00  0.00    +0.010 A 
ATOM      2  C   UNL     1      -4.125  -1.744   0.026  0.00  0.00    +0.017 A 
ATOM      3  C   UNL     1      -5.439  -2.040   0.037  0.00  0.00    +0.028 A 
ATOM      4  C   UNL     1      -5.860  -3.450   0.040  0.00  0.00    +0.061 A 
ATOM      5  N   UNL     1      -7.035  -4.010   0.050  0.00  0.00    -0.348 N 
ATOM      6  C   UNL     1      -6.834  -5.463   0.047  0.00  0.00    +0.269 C 
ATOM      7  N   UNL     1      -5.383  -5.682   0.034  0.00  0.00    -0.348 N 
ATOM      8  C   UNL     1      -4.811  -4.505   0.029  0.00  0.00    +0.062 A 
ATOM      9  C   UNL     1      -3.449  -4.113   0.013  0.00  0.00    +0.042 A 
ATOM     10  H   UNL     1      -7.889  -3.549   0.058  0.00  0.00    +0.163 HD
ATOM     11  H   UNL     1      -4.931  -6.540   0.029  0.00  0.00    +0.163 HD
ENDROOT
BRANCH   6  12
ATOM     12  N   UNL     1      -7.443  -6.053  -1.148  0.00  0.00    -0.278 N 
ATOM     13  C   UNL     1      -8.780  -6.211  -1.215  0.00  0.00    +0.226 C 
ATOM     14  O   UNL     1      -9.479  -5.866  -0.286  0.00  0.00    -0.275 OA
ATOM     15  H   UNL     1      -6.884  -6.329  -1.891  0.00  0.00    +0.152 HD
BRANCH  13  16
ATOM     16  C   UNL     1      -9.406  -6.817  -2.444  0.00  0.00    +0.167 C 
BRANCH  16  17
ATOM     17  S   UNL     1     -11.206  -6.896  -2.230  0.00  0.00    -0.117 S 
BRANCH  17  18
ATOM     18  C   UNL     1     -11.800  -7.639  -3.775  0.00  0.00    +0.213 C 
ATOM     19  N   UNL     1     -11.348  -6.865  -4.955  0.00  0.00    -0.302 N 
ATOM     20  C   UNL     1     -10.537  -7.588  -5.783  0.00  0.00    +0.163 C 
ATOM     21  N   UNL     1     -10.205  -8.816  -5.554  0.00  0.00    -0.190 NA
ATOM     22  S   UNL     1     -10.960  -9.238  -4.115  0.00  0.00    +0.011 S 
ATOM     23  H   UNL     1     -11.601  -5.944  -5.121  0.00  0.00    +0.150 HD
BRANCH  20  24
ATOM     24  S   UNL     1      -9.915  -6.808  -7.236  0.00  0.00    -0.093 S 
ATOM     25  C   UNL     1      -8.909  -8.094  -8.027  0.00  0.00    +0.093 C 
ENDBRANCH  20  24
ENDBRANCH  17  18
ENDBRANCH  16  17
ENDBRANCH  13  16
ENDBRANCH   6  12
BRANCH   1  26
ATOM     26  S   UNL     1      -1.409  -2.348   0.003  0.00  0.00    -0.125 S 
BRANCH  26  27
ATOM     27  C   UNL     1      -1.433  -0.534   0.013  0.00  0.00    +0.074 C 
BRANCH  27  29
ATOM     28  C   UNL     1      -0.019   1.526   0.010  0.00  0.00    +0.004 C 
ATOM     29  C   UNL     1       0.002  -0.004   0.002  0.00  0.00    +0.008 C 
ENDBRANCH  27  29
ENDBRANCH  26  27
ENDBRANCH   1  26
TORSDOF 8
