REMARK  Name = ZINC67292204
REMARK  5 active torsions:
REMARK  status: ('A' for Active; 'I' for Inactive)
REMARK    1  A    between atoms: C_1  and  C_2
REMARK    2  A    between atoms: C_6  and  N_8
REMARK    3  A    between atoms: C_10  and  C_20
REMARK    4  A    between atoms: N_22  and  C_23
REMARK    5  A    between atoms: C_23  and  C_24
REMARK                            x       y       z     vdW  Elec       q    Type
REMARK                         _______ _______ _______ _____ _____    ______ ____
ROOT
ATOM      1  N   UNL     1       0.049  -2.785   2.367  0.00  0.00    -0.325 N 
ATOM      2  C   UNL     1      -0.741  -3.824   2.526  0.00  0.00    +0.212 A 
ATOM      3  C   UNL     1      -0.669  -4.655   3.744  0.00  0.00    +0.097 A 
ATOM      4  C   UNL     1      -1.824  -5.331   4.118  0.00  0.00    +0.030 A 
ATOM      5  C   UNL     1      -3.008  -5.158   3.273  0.00  0.00    +0.019 A 
ATOM      6  C   UNL     1      -4.269  -5.577   3.713  0.00  0.00    +0.026 A 
ATOM      7  C   UNL     1      -5.367  -5.400   2.900  0.00  0.00    +0.019 A 
ATOM      8  C   UNL     1      -5.228  -4.809   1.652  0.00  0.00    +0.019 A 
ATOM      9  C   UNL     1      -3.991  -4.392   1.204  0.00  0.00    +0.048 A 
ATOM     10  C   UNL     1      -2.871  -4.562   2.005  0.00  0.00    +0.137 A 
ATOM     11  O   UNL     1      -1.652  -4.161   1.578  0.00  0.00    -0.439 OA
ATOM     12 BR   UNL     1      -7.073  -5.965   3.489  0.00  0.00    -0.050 Br
ATOM     13  H   UNL     1       0.633  -2.504   3.090  0.00  0.00    +0.169 HD
ENDROOT
BRANCH   1  19
ATOM     14  C   UNL     1       0.000   1.489  -0.019  0.00  0.00    +0.044 C 
ATOM     15  C   UNL     1       0.024  -0.018  -0.015  0.00  0.00    -0.049 A 
ATOM     16  C   UNL     1       0.046  -0.711  -1.213  0.00  0.00    +0.003 A 
ATOM     17  C   UNL     1       0.068  -2.094  -1.218  0.00  0.00    +0.002 A 
ATOM     18  C   UNL     1       0.069  -2.792  -0.029  0.00  0.00    +0.026 A 
ATOM     19  C   UNL     1       0.048  -2.099   1.184  0.00  0.00    +0.042 A 
ATOM     20  C   UNL     1       0.031  -0.702   1.182  0.00  0.00    +0.029 A 
ENDBRANCH   1  19
BRANCH   3  21
ATOM     21  C   UNL     1       0.573  -4.765   4.528  0.00  0.00    +0.249 C 
ATOM     22  O   UNL     1       1.542  -4.095   4.227  0.00  0.00    -0.270 OA
ATOM     23  N   UNL     1       0.635  -5.607   5.578  0.00  0.00    -0.309 N 
ATOM     24  H   UNL     1      -0.111  -6.195   5.773  0.00  0.00    +0.149 HD
BRANCH  23  25
ATOM     25  C   UNL     1       1.830  -5.634   6.425  0.00  0.00    +0.136 C 
BRANCH  25  26
ATOM     26  C   UNL     1       1.644  -6.669   7.536  0.00  0.00    +0.135 C 
ATOM     27  C   UNL     1       2.883  -6.689   8.466  0.00  0.00    +0.035 C 
ATOM     28  C   UNL     1       2.260  -7.243   9.776  0.00  0.00    +0.031 C 
ATOM     29  C   UNL     1       0.840  -6.639   9.744  0.00  0.00    +0.160 C 
ATOM     30  O   UNL     1       0.544  -6.299   8.383  0.00  0.00    -0.375 OA
ENDBRANCH  25  26
ENDBRANCH  23  25
ENDBRANCH   3  21
TORSDOF 4
