REMARK  Name = ZINC39634764
REMARK  14 active torsions:
REMARK  status: ('A' for Active; 'I' for Inactive)
REMARK    1  A    between atoms: C_1  and  C_2
REMARK    2  A    between atoms: C_2  and  C_4
REMARK    3  A    between atoms: C_2  and  O_29
REMARK    4  A    between atoms: C_8  and  C_17
REMARK    5  A    between atoms: N_19  and  C_20
REMARK    6  A    between atoms: C_20  and  C_21
REMARK    7  A    between atoms: C_21  and  N_22
REMARK    8  A    between atoms: N_22  and  C_23
REMARK    9  A    between atoms: N_22  and  C_26
REMARK   10  A    between atoms: C_23  and  C_24
REMARK   11  A    between atoms: C_23  and  C_25
REMARK   12  A    between atoms: C_26  and  C_27
REMARK   13  A    between atoms: C_26  and  C_28
REMARK   14  A    between atoms: O_29  and  C_30
REMARK                            x       y       z     vdW  Elec       q    Type
REMARK                         _______ _______ _______ _____ _____    ______ ____
ROOT
ATOM      1  C   UNL     1      -2.022  -4.680  -1.551  0.00  0.00    +0.256 C 
ATOM      2  O   UNL     1      -2.464  -5.664  -0.997  0.00  0.00    -0.272 OA
ATOM      3  N   UNL     1      -2.810  -3.956  -2.371  0.00  0.00    -0.297 N 
ATOM      4  C   UNL     1      -2.451  -2.738  -3.135  0.00  0.00    +0.121 C 
ATOM      5  C   UNL     1      -3.164  -2.907  -4.495  0.00  0.00    +0.100 C 
ATOM      6  C   UNL     1      -4.332  -3.865  -4.210  0.00  0.00    -0.004 C 
ATOM      7  C   UNL     1      -4.231  -4.203  -2.716  0.00  0.00    +0.115 C 
ATOM      8  C   UNL     1      -4.189  -5.136  -5.043  0.00  0.00    -0.010 C 
ATOM      9  C   UNL     1      -5.392  -6.048  -4.785  0.00  0.00    -0.082 C 
ATOM     10  N   UNL     1      -6.629  -5.342  -5.142  0.00  0.00    +0.379 N 
ATOM     11  C   UNL     1      -6.806  -4.172  -4.273  0.00  0.00    -0.082 C 
ATOM     12  C   UNL     1      -5.663  -3.181  -4.509  0.00  0.00    -0.010 C 
ATOM     13  H   UNL     1      -6.577  -5.040  -6.103  0.00  0.00    -0.086 HD
ATOM     14  H   UNL     1      -7.415  -5.964  -5.029  0.00  0.00    -0.086 HD
ENDROOT
BRANCH   5  15
ATOM     15  C   UNL     1      -3.679  -1.579  -4.987  0.00  0.00    +0.218 C 
ATOM     16  O   UNL     1      -3.933  -0.697  -4.194  0.00  0.00    -0.275 OA
ATOM     17  N   UNL     1      -3.858  -1.371  -6.306  0.00  0.00    -0.317 N 
ATOM     18  H   UNL     1      -3.655  -2.077  -6.940  0.00  0.00    +0.149 HD
BRANCH  17  19
ATOM     19  C   UNL     1      -4.359  -0.080  -6.783  0.00  0.00    +0.085 C 
BRANCH  19  20
ATOM     20  C   UNL     1      -4.469  -0.108  -8.309  0.00  0.00    -0.059 C 
BRANCH  20  21
ATOM     21  N   UNL     1      -4.871   1.218  -8.796  0.00  0.00    +0.384 N 
ATOM     22  H   UNL     1      -4.242   1.916  -8.428  0.00  0.00    -0.081 HD
BRANCH  21  23
ATOM     23  C   UNL     1      -4.820   1.238 -10.264  0.00  0.00    -0.074 C 
ATOM     24  C   UNL     1      -5.111   2.653 -10.765  0.00  0.00    -0.014 C 
ATOM     25  C   UNL     1      -3.429   0.806 -10.731  0.00  0.00    -0.014 C 
ENDBRANCH  21  23
BRANCH  21  26
ATOM     26  C   UNL     1      -6.240   1.509  -8.349  0.00  0.00    -0.074 C 
ATOM     27  C   UNL     1      -7.009   0.198  -8.173  0.00  0.00    -0.014 C 
ATOM     28  C   UNL     1      -6.194   2.256  -7.015  0.00  0.00    -0.014 C 
ENDBRANCH  21  26
ENDBRANCH  20  21
ENDBRANCH  19  20
ENDBRANCH  17  19
ENDBRANCH   5  15
BRANCH   1  30
ATOM     29  C   UNL     1      -0.558  -2.913  -0.610  0.00  0.00    +0.062 C 
ATOM     30  C   UNL     1      -0.591  -4.266  -1.324  0.00  0.00    +0.256 C 
BRANCH  30  31
ATOM     31  O   UNL     1       0.066  -5.246  -0.518  0.00  0.00    -0.480 OA
BRANCH  31  32
ATOM     32  C   UNL     1       1.394  -5.436  -0.737  0.00  0.00    +0.122 A 
ATOM     33  C   UNL     1       2.064  -6.466  -0.092  0.00  0.00    +0.045 A 
ATOM     34  C   UNL     1       3.414  -6.657  -0.317  0.00  0.00    +0.004 A 
ATOM     35  C   UNL     1       4.097  -5.823  -1.183  0.00  0.00    +0.000 A 
ATOM     36  C   UNL     1       3.431  -4.795  -1.826  0.00  0.00    +0.004 A 
ATOM     37  C   UNL     1       2.080  -4.604  -1.609  0.00  0.00    +0.045 A 
ENDBRANCH  31  32
ENDBRANCH  30  31
ENDBRANCH   1  30
TORSDOF 9
