REMARK  Name = ZINC20232673
REMARK  6 active torsions:
REMARK  status: ('A' for Active; 'I' for Inactive)
REMARK    1  A    between atoms: C_1  and  C_2
REMARK    2  A    between atoms: C_6  and  C_8
REMARK    3  A    between atoms: C_8  and  N_9
REMARK    4  A    between atoms: C_13  and  C_16
REMARK    5  A    between atoms: C_17  and  C_22
REMARK    6  A    between atoms: C_26  and  C_28
REMARK                            x       y       z     vdW  Elec       q    Type
REMARK                         _______ _______ _______ _____ _____    ______ ____
ROOT
ATOM      1  C   UNL     1       0.634   6.347  -7.505  0.00  0.00    +0.048 A 
ATOM      2  C   UNL     1       1.871   6.734  -7.931  0.00  0.00    +0.023 A 
ATOM      3  C   UNL     1       1.776   7.020  -9.307  0.00  0.00    +0.143 A 
ATOM      4  N   UNL     1       0.541   6.812  -9.680  0.00  0.00    -0.181 NA
ATOM      5  N   UNL     1      -0.194   6.384  -8.568  0.00  0.00    -0.281 N 
ATOM      6  H   UNL     1      -1.136   6.155  -8.563  0.00  0.00    +0.189 HD
ENDROOT
BRANCH   1  11
ATOM      7  N   UNL     1      -0.649   4.123  -4.739  0.00  0.00    -0.296 NA
ATOM      8  C   UNL     1      -1.725   4.981  -4.226  0.00  0.00    +0.085 C 
ATOM      9  C   UNL     1      -1.238   6.431  -4.168  0.00  0.00    +0.016 C 
ATOM     10  C   UNL     1      -0.825   6.883  -5.571  0.00  0.00    +0.012 C 
ATOM     11  C   UNL     1       0.262   5.944  -6.101  0.00  0.00    +0.052 C 
ATOM     12  C   UNL     1      -0.267   4.508  -6.104  0.00  0.00    +0.094 C 
BRANCH   7  13
ATOM     13  C   UNL     1      -1.032   2.706  -4.680  0.00  0.00    +0.139 C 
BRANCH  13  19
ATOM     14  C   UNL     1      -0.013   1.086   0.008  0.00  0.00    +0.084 C 
ATOM     15  C   UNL     1      -0.742   1.585  -1.213  0.00  0.00    +0.081 A 
ATOM     16  N   UNL     1      -2.022   1.822  -1.290  0.00  0.00    -0.350 N 
ATOM     17  H   UNL     1       0.763   1.785  -2.632  0.00  0.00    +0.167 HD
ATOM     18  C   UNL     1      -2.319   2.254  -2.525  0.00  0.00    +0.106 A 
ATOM     19  C   UNL     1      -1.178   2.285  -3.240  0.00  0.00    +0.047 A 
ATOM     20  N   UNL     1      -0.176   1.867  -2.407  0.00  0.00    -0.346 N 
ATOM     21  H   UNL     1      -2.660   1.704  -0.568  0.00  0.00    +0.166 HD
ENDBRANCH  13  19
ENDBRANCH   7  13
ENDBRANCH   1  11
BRANCH   2  22
ATOM     22  C   UNL     1       3.094   6.837  -7.096  0.00  0.00    -0.014 A 
ATOM     23  C   UNL     1       3.058   7.525  -5.885  0.00  0.00    +0.008 A 
ATOM     24  C   UNL     1       4.198   7.617  -5.112  0.00  0.00    +0.001 A 
ATOM     25  C   UNL     1       5.375   7.028  -5.538  0.00  0.00    +0.012 A 
ATOM     26  C   UNL     1       5.416   6.344  -6.740  0.00  0.00    +0.055 A 
ATOM     27  C   UNL     1       4.280   6.241  -7.518  0.00  0.00    +0.021 A 
BRANCH  26  28
ATOM     28  C   UNL     1       6.702   5.705  -7.198  0.00  0.00    +0.417 C 
ATOM     29  F   UNL     1       7.703   5.938  -6.248  0.00  0.00    -0.166 F 
ATOM     30  F   UNL     1       6.511   4.327  -7.346  0.00  0.00    -0.166 F 
ATOM     31  F   UNL     1       7.086   6.257  -8.425  0.00  0.00    -0.166 F 
ENDBRANCH  26  28
ENDBRANCH   2  22
TORSDOF 5
