REMARK  Name = ZINC63694484
REMARK  11 active torsions:
REMARK  status: ('A' for Active; 'I' for Inactive)
REMARK    1  A    between atoms: C_1  and  O_2
REMARK    2  A    between atoms: O_2  and  C_3
REMARK    3  A    between atoms: C_6  and  N_9
REMARK    4  A    between atoms: N_12  and  C_15
REMARK    5  A    between atoms: C_15  and  C_17
REMARK    6  A    between atoms: C_15  and  C_35
REMARK    7  A    between atoms: C_17  and  N_18
REMARK    8  A    between atoms: C_19  and  C_21
REMARK    9  A    between atoms: N_23  and  C_24
REMARK   10  A    between atoms: C_24  and  C_25
REMARK   11  A    between atoms: C_25  and  C_26
REMARK                            x       y       z     vdW  Elec       q    Type
REMARK                         _______ _______ _______ _____ _____    ______ ____
ROOT
ATOM      1  C   UNL     1       2.830  -5.719  -8.153  0.00  0.00    +0.131 C 
ENDROOT
BRANCH   1   2
ATOM      2  N   UNL     1       4.262  -5.799  -7.854  0.00  0.00    -0.306 N 
ATOM      3  C   UNL     1       4.884  -6.995  -7.851  0.00  0.00    +0.299 C 
ATOM      4  O   UNL     1       4.258  -8.005  -8.097  0.00  0.00    -0.265 OA
ATOM      5  H   UNL     1       4.763  -4.991  -7.658  0.00  0.00    +0.149 HD
BRANCH   3   6
ATOM      6  C   UNL     1       6.345  -7.076  -7.546  0.00  0.00    +0.299 C 
ATOM      7  O   UNL     1       6.971  -6.066  -7.301  0.00  0.00    -0.265 OA
ATOM      8  N   UNL     1       6.967  -8.272  -7.544  0.00  0.00    -0.307 N 
ATOM      9  H   UNL     1       6.467  -9.079  -7.740  0.00  0.00    +0.149 HD
BRANCH   8  10
ATOM     10  C   UNL     1       8.399  -8.352  -7.245  0.00  0.00    +0.109 C 
BRANCH  10  11
ATOM     11  C   UNL     1       8.852  -9.812  -7.307  0.00  0.00    +0.052 C 
BRANCH  11  12
ATOM     12  C   UNL     1      10.325  -9.894  -6.999  0.00  0.00    -0.040 C 
ATOM     13  C   UNL     1      10.892 -10.152  -5.799  0.00  0.00    -0.001 A 
ATOM     14  C   UNL     1      10.328 -10.422  -4.471  0.00  0.00    +0.010 A 
ATOM     15  C   UNL     1      11.168 -10.649  -3.435  0.00  0.00    +0.001 A 
ATOM     16  C   UNL     1      12.560 -10.632  -3.598  0.00  0.00    +0.002 A 
ATOM     17  C   UNL     1      13.152 -10.391  -4.787  0.00  0.00    +0.026 A 
ATOM     18  C   UNL     1      12.365 -10.140  -5.944  0.00  0.00    +0.043 A 
ATOM     19  N   UNL     1      12.696  -9.885  -7.187  0.00  0.00    -0.380 N 
ATOM     20  C   UNL     1      11.469  -9.711  -7.972  0.00  0.00    +0.144 C 
ATOM     21  H   UNL     1      13.601  -9.824  -7.530  0.00  0.00    +0.160 HD
ENDBRANCH  11  12
ENDBRANCH  10  11
ENDBRANCH   8  10
ENDBRANCH   3   6
ENDBRANCH   1   2
BRANCH   1  22
ATOM     22  C   UNL     1       2.377  -4.259  -8.091  0.00  0.00    +0.140 C 
BRANCH  22  26
ATOM     23  N   UNL     1       2.458  -2.457  -4.301  0.00  0.00    -0.327 N 
ATOM     24  C   UNL     1       2.973  -1.665  -5.428  0.00  0.00    +0.120 C 
ATOM     25  C   UNL     1       2.422  -2.256  -6.730  0.00  0.00    +0.104 C 
ATOM     26  N   UNL     1       2.735  -3.691  -6.784  0.00  0.00    -0.288 NA
ATOM     27  C   UNL     1       2.076  -4.421  -5.694  0.00  0.00    +0.104 C 
ATOM     28  C   UNL     1       2.618  -3.918  -4.346  0.00  0.00    +0.120 C 
BRANCH  23  32
ATOM     29  C   UNL     1       0.608  -0.608  -1.056  0.00  0.00    +0.120 A 
ATOM     30  C   UNL     1       0.644  -1.992  -1.136  0.00  0.00    +0.047 A 
ATOM     31  C   UNL     1       1.256  -2.605  -2.211  0.00  0.00    +0.027 A 
ATOM     32  C   UNL     1       1.836  -1.836  -3.212  0.00  0.00    +0.030 A 
ATOM     33  C   UNL     1       1.800  -0.451  -3.130  0.00  0.00    +0.027 A 
ATOM     34  C   UNL     1       1.182   0.162  -2.057  0.00  0.00    +0.047 A 
BRANCH  29  36
ATOM     35  C   UNL     1      -0.566  -0.857   0.998  0.00  0.00    +0.277 C 
ATOM     36  O   UNL     1       0.004  -0.004   0.003  0.00  0.00    -0.495 OA
ENDBRANCH  29  36
ENDBRANCH  23  32
ENDBRANCH  22  26
BRANCH  22  37
ATOM     37  C   UNL     1       0.883  -4.188  -8.277  0.00  0.00    +0.123 A 
ATOM     38  C   UNL     1       0.247  -3.880  -9.421  0.00  0.00    +0.046 A 
ATOM     39  C   UNL     1      -1.139  -3.931  -9.146  0.00  0.00    +0.041 A 
ATOM     40  C   UNL     1      -1.266  -4.268  -7.850  0.00  0.00    +0.195 A 
ATOM     41  O   UNL     1      -0.038  -4.428  -7.330  0.00  0.00    -0.466 OA
ENDBRANCH  22  37
ENDBRANCH   1  22
TORSDOF 10
