REMARK  Name = ZINC29401123
REMARK  6 active torsions:
REMARK  status: ('A' for Active; 'I' for Inactive)
REMARK    1  A    between atoms: N_9  and  C_10
REMARK    2  A    between atoms: N_13  and  C_16
REMARK    3  A    between atoms: C_16  and  C_17
REMARK    4  A    between atoms: N_19  and  C_20
REMARK    5  A    between atoms: C_30  and  C_32
REMARK    6  A    between atoms: C_32  and  C_33
REMARK                            x       y       z     vdW  Elec       q    Type
REMARK                         _______ _______ _______ _____ _____    ______ ____
ROOT
ATOM      1  C   UNL     1      -2.916   6.740  -1.597  0.00  0.00    +0.197 C 
ATOM      2  O   UNL     1      -2.041   6.760  -2.437  0.00  0.00    -0.278 OA
ATOM      3  N   UNL     1      -3.835   7.724  -1.558  0.00  0.00    -0.313 N 
ATOM      4  H   UNL     1      -4.629   7.706  -0.796  0.00  0.00    +0.149 HD
ENDROOT
BRANCH   3   5
ATOM      5  C   UNL     1      -3.778   8.819  -2.530  0.00  0.00    +0.081 C 
ATOM      6  C   UNL     1      -2.836   9.915  -2.019  0.00  0.00    +0.027 C 
ATOM      7  C   UNL     1      -2.609  10.920  -3.146  0.00  0.00    +0.037 C 
ATOM      8  C   UNL     1      -3.924  11.377  -3.721  0.00  0.00    -0.041 A 
ATOM      9  C   UNL     1      -3.928  12.540  -4.480  0.00  0.00    +0.042 A 
ATOM     10  C   UNL     1      -5.099  13.005  -5.045  0.00  0.00    +0.124 A 
ATOM     11  C   UNL     1      -6.279  12.307  -4.851  0.00  0.00    +0.038 A 
ATOM     12  C   UNL     1      -6.276  11.155  -4.094  0.00  0.00    +0.007 A 
ATOM     13  C   UNL     1      -5.098  10.687  -3.525  0.00  0.00    -0.039 A 
ATOM     14  C   UNL     1      -5.169   9.424  -2.706  0.00  0.00    +0.044 C 
ATOM     15  F   UNL     1      -5.094  14.137  -5.784  0.00  0.00    -0.205 F 
BRANCH  14  16
ATOM     16  C   UNL     1      -6.073   8.413  -3.416  0.00  0.00    +0.046 C 
BRANCH  16  17
ATOM     17  C   UNL     1      -5.426   7.981  -4.707  0.00  0.00    -0.029 A 
ATOM     18  C   UNL     1      -5.638   8.700  -5.874  0.00  0.00    +0.006 A 
ATOM     19  C   UNL     1      -5.019   8.268  -7.036  0.00  0.00    +0.020 A 
ATOM     20  C   UNL     1      -4.224   7.138  -6.997  0.00  0.00    +0.111 A 
ATOM     21  N   UNL     1      -4.049   6.476  -5.870  0.00  0.00    -0.263 NA
ATOM     22  C   UNL     1      -4.618   6.861  -4.744  0.00  0.00    +0.114 A 
ENDBRANCH  16  17
ENDBRANCH  14  16
ENDBRANCH   3   5
BRANCH   1  23
ATOM     23  C   UNL     1      -2.975   5.614  -0.597  0.00  0.00    +0.019 C 
BRANCH  23  27
ATOM     24  C   UNL     1      -0.628   2.115  -1.327  0.00  0.00    +0.089 C 
ATOM     25  C   UNL     1      -0.802   3.152  -2.441  0.00  0.00    +0.006 C 
ATOM     26  C   UNL     1      -2.035   4.008  -2.146  0.00  0.00    -0.076 C 
ATOM     27  N   UNL     1      -1.872   4.677  -0.849  0.00  0.00    +0.386 N 
ATOM     28  C   UNL     1      -1.752   3.700   0.241  0.00  0.00    -0.076 C 
ATOM     29  C   UNL     1      -0.509   2.836   0.018  0.00  0.00    +0.006 C 
ATOM     30  H   UNL     1      -0.937   5.255  -0.885  0.00  0.00    -0.081 HD
BRANCH  24  39
ATOM     31  C   UNL     1       1.450  -2.658  -2.193  0.00  0.00    +0.002 A 
ATOM     32  C   UNL     1       0.111  -2.359  -1.989  0.00  0.00    +0.002 A 
ATOM     33  C   UNL     1      -0.288  -1.057  -1.771  0.00  0.00    +0.028 A 
ATOM     34  C   UNL     1       0.654  -0.039  -1.757  0.00  0.00    +0.070 A 
ATOM     35  C   UNL     1       2.011  -0.337  -1.963  0.00  0.00    +0.067 A 
ATOM     36  C   UNL     1       2.399  -1.661  -2.182  0.00  0.00    +0.028 A 
ATOM     37  N   UNL     1       2.691   0.838  -1.897  0.00  0.00    -0.306 N 
ATOM     38  C   UNL     1       1.856   1.817  -1.667  0.00  0.00    +0.328 A 
ATOM     39  N   UNL     1       0.585   1.331  -1.573  0.00  0.00    -0.289 N 
ATOM     40  O   UNL     1       2.201   3.119  -1.543  0.00  0.00    -0.247 OA
ATOM     41  H   UNL     1       3.783   0.849  -2.030  0.00  0.00    +0.170 HD
ENDBRANCH  24  39
ENDBRANCH  23  27
ENDBRANCH   1  23
TORSDOF 6
