REMARK  Name = ZINC39762569
REMARK  12 active torsions:
REMARK  status: ('A' for Active; 'I' for Inactive)
REMARK    1  A    between atoms: C_1  and  C_2
REMARK    2  A    between atoms: C_2  and  O_3
REMARK    3  A    between atoms: O_3  and  C_4
REMARK    4  A    between atoms: C_4  and  C_6
REMARK    5  A    between atoms: C_7  and  N_35
REMARK    6  A    between atoms: C_21  and  C_23
REMARK    7  A    between atoms: C_26  and  O_33
REMARK    8  A    between atoms: C_27  and  O_31
REMARK    9  A    between atoms: C_28  and  O_29
REMARK   10  A    between atoms: O_29  and  C_30
REMARK   11  A    between atoms: O_31  and  C_32
REMARK   12  A    between atoms: O_33  and  C_34
REMARK                            x       y       z     vdW  Elec       q    Type
REMARK                         _______ _______ _______ _____ _____    ______ ____
ROOT
ATOM      1  C   UNL     1      -2.788  -2.393   0.002  0.00  0.00    +0.102 C 
ATOM      2  C   UNL     1      -2.916  -3.738  -0.088  0.00  0.00    +0.194 C 
ATOM      3  O   UNL     1      -4.128  -4.341  -0.090  0.00  0.00    -0.445 OA
ATOM      4  C   UNL     1      -5.181  -3.571   0.191  0.00  0.00    +0.129 C 
ATOM      5  C   UNL     1      -6.237  -3.983   0.990  0.00  0.00    +0.035 A 
ATOM      6  C   UNL     1      -6.275  -5.280   1.542  0.00  0.00    +0.013 A 
ATOM      7  C   UNL     1      -7.334  -5.652   2.312  0.00  0.00    +0.001 A 
ATOM      8  C   UNL     1      -8.384  -4.776   2.569  0.00  0.00    +0.002 A 
ATOM      9  C   UNL     1      -8.402  -3.509   2.069  0.00  0.00    +0.024 A 
ATOM     10  C   UNL     1      -7.341  -3.055   1.267  0.00  0.00    +0.044 A 
ATOM     11  N   UNL     1      -7.354  -1.808   0.783  0.00  0.00    -0.284 N 
ATOM     12  C   UNL     1      -6.412  -1.310   0.007  0.00  0.00    +0.229 C 
ATOM     13  O   UNL     1      -6.492  -0.163  -0.391  0.00  0.00    -0.275 OA
ATOM     14  C   UNL     1      -5.230  -2.167  -0.389  0.00  0.00    +0.154 C 
ATOM     15  C   UNL     1      -3.967  -1.469   0.132  0.00  0.00    +0.084 C 
ATOM     16  H   UNL     1      -8.101  -1.236   1.017  0.00  0.00    +0.155 HD
ENDROOT
BRANCH  15  17
ATOM     17  C   UNL     1      -3.718  -0.221  -0.675  0.00  0.00    +0.007 A 
ATOM     18  C   UNL     1      -3.517  -0.311  -2.040  0.00  0.00    +0.011 A 
ATOM     19  C   UNL     1      -3.288   0.831  -2.785  0.00  0.00    +0.050 A 
ATOM     20  C   UNL     1      -3.258   2.071  -2.165  0.00  0.00    +0.165 A 
ATOM     21  C   UNL     1      -3.460   2.165  -0.794  0.00  0.00    +0.204 A 
ATOM     22  C   UNL     1      -3.695   1.016  -0.049  0.00  0.00    +0.169 A 
BRANCH  22  23
ATOM     23  O   UNL     1      -3.898   1.103   1.293  0.00  0.00    -0.491 OA
ATOM     24  C   UNL     1      -2.743   1.022   2.131  0.00  0.00    +0.277 C 
ENDBRANCH  22  23
BRANCH  21  25
ATOM     25  O   UNL     1      -3.431   3.381  -0.182  0.00  0.00    -0.488 OA
ATOM     26  C   UNL     1      -4.670   4.086  -0.083  0.00  0.00    +0.277 C 
ENDBRANCH  21  25
BRANCH  20  27
ATOM     27  O   UNL     1      -3.031   3.193  -2.899  0.00  0.00    -0.491 OA
ATOM     28  C   UNL     1      -2.832   3.021  -4.304  0.00  0.00    +0.277 C 
ENDBRANCH  20  27
ENDBRANCH  15  17
BRANCH   2  29
ATOM     29  N   UNL     1      -1.789  -4.509  -0.181  0.00  0.00    -0.329 N 
ATOM     30  H   UNL     1      -0.913  -4.100  -0.098  0.00  0.00    +0.145 HD
ATOM     31  H   UNL     1      -1.865  -5.465  -0.329  0.00  0.00    +0.145 HD
ENDBRANCH   2  29
BRANCH   1  32
ATOM     32  C   UNL     1      -1.498  -1.838  -0.021  0.00  0.00    +0.341 C 
ATOM     33  O   UNL     1      -0.957  -1.511   1.020  0.00  0.00    -0.245 OA
BRANCH  32  34
ATOM     34  O   UNL     1      -0.858  -1.667  -1.198  0.00  0.00    -0.462 OA
BRANCH  34  36
ATOM     35  C   UNL     1       1.013  -0.981  -2.565  0.00  0.00    +0.048 C 
ATOM     36  C   UNL     1       0.451  -1.096  -1.147  0.00  0.00    +0.229 C 
ENDBRANCH  34  36
ENDBRANCH  32  34
ENDBRANCH   1  32
TORSDOF 8
