REMARK  Name = ZINC37332083
REMARK  3 active torsions:
REMARK  status: ('A' for Active; 'I' for Inactive)
REMARK    1  A    between atoms: C_3  and  C_8
REMARK    2  A    between atoms: C_8  and  C_10
REMARK    3  A    between atoms: C_8  and  N_21
REMARK                            x       y       z     vdW  Elec       q    Type
REMARK                         _______ _______ _______ _____ _____    ______ ____
ROOT
ATOM      1  C   UNL     1       3.672   2.183  -0.022  0.00  0.00    -0.012 C 
ENDROOT
BRANCH   1   2
ATOM      2  C   UNL     1       4.216   2.235  -1.426  0.00  0.00    -0.036 A 
ATOM      3  C   UNL     1       5.146   1.301  -1.841  0.00  0.00    +0.053 A 
ATOM      4  C   UNL     1       5.648   1.346  -3.133  0.00  0.00    +0.162 A 
ATOM      5  C   UNL     1       5.212   2.332  -4.010  0.00  0.00    +0.163 A 
ATOM      6  C   UNL     1       4.280   3.267  -3.588  0.00  0.00    +0.069 A 
ATOM      7  C   UNL     1       3.780   3.215  -2.300  0.00  0.00    +0.047 A 
ATOM      8 CL   UNL     1       2.607   4.383  -1.777  0.00  0.00    -0.083 Cl
ATOM      9  O   UNL     1       5.686   2.388  -5.285  0.00  0.00    -0.485 OA
ATOM     10  C   UNL     1       6.891   1.665  -5.556  0.00  0.00    +0.270 C 
ATOM     11  C   UNL     1       6.764   0.268  -4.935  0.00  0.00    +0.270 C 
ATOM     12  O   UNL     1       6.567   0.421  -3.525  0.00  0.00    -0.485 OA
ENDBRANCH   1   2
BRANCH   1  15
ATOM     13  C   UNL     1      -0.017   1.378   0.010  0.00  0.00    +0.001 A 
ATOM     14  C   UNL     1       1.171   2.086   0.002  0.00  0.00    +0.002 A 
ATOM     15  C   UNL     1       2.377   1.411  -0.013  0.00  0.00    -0.057 A 
ATOM     16  C   UNL     1       2.397   0.029  -0.021  0.00  0.00    +0.016 A 
ATOM     17  C   UNL     1       1.209  -0.679  -0.013  0.00  0.00    +0.014 A 
ATOM     18  C   UNL     1       0.002  -0.004   0.002  0.00  0.00    +0.014 A 
ATOM     19  I   UNL     1       1.238  -2.774  -0.025  0.00  0.00    -0.044 I 
ENDBRANCH   1  15
BRANCH   1  20
ATOM     20  N   UNL     1       4.644   1.518   0.856  0.00  0.00    +0.385 N 
ATOM     21  H   UNL     1       5.511   2.034   0.850  0.00  0.00    -0.089 HD
ATOM     22  H   UNL     1       4.280   1.483   1.796  0.00  0.00    -0.089 HD
ATOM     23  H   UNL     1       4.810   0.579   0.524  0.00  0.00    -0.089 HD
ENDBRANCH   1  20
TORSDOF 3
