REMARK  Name = ZINC09495770
REMARK  5 active torsions:
REMARK  status: ('A' for Active; 'I' for Inactive)
REMARK    1  A    between atoms: C_6  and  S_7
REMARK    2  A    between atoms: S_7  and  N_10
REMARK    3  A    between atoms: C_13  and  C_16
REMARK    4  A    between atoms: N_18  and  C_19
REMARK    5  A    between atoms: C_21  and  C_26
REMARK                            x       y       z     vdW  Elec       q    Type
REMARK                         _______ _______ _______ _____ _____    ______ ____
ROOT
ATOM      1  N   UNL     1      -8.123  -2.801   0.672  0.00  0.00    -0.177 NA
ATOM      2  C   UNL     1      -7.240  -3.165  -0.445  0.00  0.00    +0.110 C 
ATOM      3  C   UNL     1      -5.919  -2.404  -0.298  0.00  0.00    +0.030 C 
ATOM      4  C   UNL     1      -6.207  -0.905  -0.187  0.00  0.00    +0.078 C 
ATOM      5  C   UNL     1      -7.060  -0.638   1.056  0.00  0.00    +0.030 C 
ATOM      6  C   UNL     1      -8.394  -1.379   0.923  0.00  0.00    +0.110 C 
ENDROOT
BRANCH   4   7
ATOM      7  C   UNL     1      -4.908  -0.151  -0.076  0.00  0.00    +0.220 C 
ATOM      8  O   UNL     1      -3.854  -0.752  -0.085  0.00  0.00    -0.275 OA
ATOM      9  N   UNL     1      -4.916   1.193   0.032  0.00  0.00    -0.284 N 
ATOM     10  H   UNL     1      -5.758   1.669   0.104  0.00  0.00    +0.155 HD
BRANCH   9  11
ATOM     11  C   UNL     1      -3.708   1.902   0.041  0.00  0.00    +0.053 A 
ATOM     12  C   UNL     1      -2.586   1.351   0.637  0.00  0.00    +0.040 A 
ATOM     13  C   UNL     1      -1.385   2.062   0.643  0.00  0.00    +0.065 A 
ATOM     14  C   UNL     1      -1.324   3.326   0.053  0.00  0.00    +0.016 A 
ATOM     15  C   UNL     1      -2.445   3.864  -0.543  0.00  0.00    +0.022 A 
ATOM     16  C   UNL     1      -3.636   3.159  -0.549  0.00  0.00    +0.062 A 
ATOM     17 CL   UNL     1      -5.044   3.847  -1.296  0.00  0.00    -0.082 Cl
BRANCH  13  18
ATOM     18  C   UNL     1      -0.184   1.481   1.277  0.00  0.00    +0.387 C 
ATOM     19  O   UNL     1      -0.240   0.383   1.794  0.00  0.00    -0.241 OA
ATOM     20  O   UNL     1       0.976   2.167   1.277  0.00  0.00    -0.241 OA
ENDBRANCH  13  18
ENDBRANCH   9  11
ENDBRANCH   4   7
BRANCH   1  21
ATOM     21  S   UNL     1      -8.799  -3.972   1.629  0.00  0.00    +0.061 S 
ATOM     22  O   UNL     1      -9.968  -3.402   2.201  0.00  0.00    -0.153 OA
ATOM     23  O   UNL     1      -8.832  -5.162   0.853  0.00  0.00    -0.153 OA
BRANCH  21  29
ATOM     24  C   UNL     1      -6.699  -5.234   2.833  0.00  0.00    +0.030 A 
ATOM     25  C   UNL     1      -5.818  -5.463   3.873  0.00  0.00    +0.022 A 
ATOM     26  C   UNL     1      -5.926  -4.733   5.044  0.00  0.00    +0.041 A 
ATOM     27  C   UNL     1      -6.911  -3.771   5.170  0.00  0.00    +0.022 A 
ATOM     28  C   UNL     1      -7.788  -3.539   4.127  0.00  0.00    +0.030 A 
ATOM     29  C   UNL     1      -7.680  -4.268   2.958  0.00  0.00    +0.106 A 
ATOM     30 CL   UNL     1      -4.824  -5.025   6.353  0.00  0.00    -0.084 Cl
ENDBRANCH  21  29
ENDBRANCH   1  21
TORSDOF 5
