REMARK  Name = ZINC25040669
REMARK  9 active torsions:
REMARK  status: ('A' for Active; 'I' for Inactive)
REMARK    1  A    between atoms: C_1  and  C_2
REMARK    2  A    between atoms: C_3  and  C_27
REMARK    3  A    between atoms: N_4  and  C_21
REMARK    4  A    between atoms: C_5  and  S_7
REMARK    5  A    between atoms: S_7  and  C_8
REMARK    6  A    between atoms: C_8  and  C_10
REMARK    7  A    between atoms: C_8  and  C_11
REMARK    8  A    between atoms: N_17  and  C_18
REMARK    9  A    between atoms: N_17  and  C_19
REMARK                            x       y       z     vdW  Elec       q    Type
REMARK                         _______ _______ _______ _____ _____    ______ ____
ROOT
ATOM      1  S   UNL     1      -1.720   5.031   0.044  0.00  0.00    -0.077 S 
ENDROOT
BRANCH   1   6
ATOM      2  C   UNL     1       2.493   1.880  -0.011  0.00  0.00    +0.067 C 
ATOM      3  C   UNL     1       1.051   2.317   0.004  0.00  0.00    +0.060 A 
ATOM      4  C   UNL     1      -0.018   1.503   0.010  0.00  0.00    +0.039 A 
ATOM      5  N   UNL     1      -1.136   2.307   0.019  0.00  0.00    -0.320 N 
ATOM      6  C   UNL     1      -0.698   3.596   0.027  0.00  0.00    +0.170 A 
ATOM      7  N   UNL     1       0.614   3.588   0.015  0.00  0.00    -0.227 NA
ATOM      8  C   UNL     1       0.002  -0.004   0.002  0.00  0.00    +0.065 C 
BRANCH   5   9
ATOM      9  C   UNL     1      -2.531   1.860   0.023  0.00  0.00    +0.089 C 
ATOM     10  C   UNL     1      -3.242   2.398  -1.221  0.00  0.00    +0.025 C 
ATOM     11  C   UNL     1      -4.699   1.932  -1.217  0.00  0.00    +0.002 C 
ATOM     12  C   UNL     1      -5.399   2.456   0.038  0.00  0.00    +0.000 C 
ATOM     13  C   UNL     1      -4.689   1.918   1.281  0.00  0.00    +0.002 C 
ATOM     14  C   UNL     1      -3.232   2.385   1.278  0.00  0.00    +0.025 C 
ENDBRANCH   5   9
ENDBRANCH   1   6
BRANCH   1  15
ATOM     15  C   UNL     1      -0.451   6.321   0.039  0.00  0.00    +0.119 C 
ATOM     16  C   UNL     1       0.353   6.250   1.339  0.00  0.00    +0.028 C 
BRANCH  15  17
ATOM     17  C   UNL     1      -1.108   7.673  -0.071  0.00  0.00    +0.149 A 
ATOM     18  N   UNL     1      -2.166   7.954   0.669  0.00  0.00    -0.198 NA
ATOM     19  C   UNL     1      -2.749   9.146   0.574  0.00  0.00    +0.217 A 
ATOM     20  N   UNL     1      -2.266  10.055  -0.266  0.00  0.00    -0.181 NA
ATOM     21  C   UNL     1      -1.202   9.769  -1.008  0.00  0.00    +0.222 A 
ATOM     22  N   UNL     1      -0.621   8.576  -0.904  0.00  0.00    -0.198 NA
ATOM     23  N   UNL     1      -0.697  10.710  -1.883  0.00  0.00    -0.306 N 
ATOM     24  C   UNL     1      -1.333  12.024  -1.992  0.00  0.00    +0.132 C 
ATOM     25  C   UNL     1       0.477  10.393  -2.701  0.00  0.00    +0.132 C 
ATOM     26  N   UNL     1      -3.854   9.438   1.347  0.00  0.00    -0.327 N 
ATOM     27  H   UNL     1      -4.335  10.424   1.268  0.00  0.00    +0.145 HD
ATOM     28  H   UNL     1      -4.254   8.685   2.042  0.00  0.00    +0.145 HD
ENDBRANCH  15  17
ENDBRANCH   1  15
TORSDOF 4
