REMARK  Name = ZINC64251234
REMARK  13 active torsions:
REMARK  status: ('A' for Active; 'I' for Inactive)
REMARK    1  A    between atoms: C_1  and  C_2
REMARK    2  A    between atoms: C_2  and  C_3
REMARK    3  A    between atoms: C_3  and  C_4
REMARK    4  A    between atoms: C_3  and  C_6
REMARK    5  A    between atoms: C_3  and  N_24
REMARK    6  A    between atoms: C_4  and  C_5
REMARK    7  A    between atoms: C_6  and  N_7
REMARK    8  A    between atoms: N_10  and  C_11
REMARK    9  A    between atoms: C_11  and  C_12
REMARK   10  A    between atoms: N_15  and  C_18
REMARK   11  A    between atoms: C_18  and  C_19
REMARK   12  A    between atoms: N_24  and  C_25
REMARK   13  A    between atoms: N_24  and  C_26
REMARK                            x       y       z     vdW  Elec       q    Type
REMARK                         _______ _______ _______ _____ _____    ______ ____
ROOT
ATOM      1  N   UNL     1      -1.911  -0.533  -2.479  0.00  0.00    -0.301 N 
ATOM      2  C   UNL     1      -2.392  -0.066  -3.648  0.00  0.00    +0.300 C 
ATOM      3  O   UNL     1      -3.118   0.910  -3.660  0.00  0.00    -0.253 OA
ATOM      4  N   UNL     1      -2.069  -0.680  -4.803  0.00  0.00    -0.299 N 
ATOM      5  H   UNL     1      -1.333  -1.312  -2.469  0.00  0.00    +0.150 HD
ATOM      6  H   UNL     1      -1.491  -1.459  -4.793  0.00  0.00    +0.150 HD
ENDROOT
BRANCH   1   7
ATOM      7  C   UNL     1      -2.262   0.134  -1.223  0.00  0.00    +0.094 C 
BRANCH   7   8
ATOM      8  C   UNL     1      -1.731  -0.685  -0.044  0.00  0.00    -0.051 C 
BRANCH   8   9
ATOM      9  N   UNL     1      -1.925   0.069   1.202  0.00  0.00    +0.381 N 
ATOM     10  C   UNL     1      -1.135   1.306   1.153  0.00  0.00    -0.096 C 
ATOM     11  C   UNL     1      -3.347   0.402   1.357  0.00  0.00    -0.096 C 
ATOM     12  H   UNL     1      -1.623  -0.492   1.984  0.00  0.00    -0.082 HD
ENDBRANCH   8   9
BRANCH   8  14
ATOM     13  C   UNL     1      -2.170  -2.859  -1.194  0.00  0.00    +0.002 C 
ATOM     14  C   UNL     1      -2.490  -2.010   0.038  0.00  0.00    -0.014 C 
ENDBRANCH   8  14
BRANCH   8  15
ATOM     15  C   UNL     1      -0.240  -0.962  -0.246  0.00  0.00    -0.014 C 
ATOM     16  C   UNL     1       0.290  -1.781   0.932  0.00  0.00    +0.002 C 
ENDBRANCH   8  15
ENDBRANCH   7   8
ENDBRANCH   1   7
BRANCH   4  17
ATOM     17  C   UNL     1      -2.592  -0.172  -6.074  0.00  0.00    +0.109 C 
BRANCH  17  18
ATOM     18  C   UNL     1      -2.078  -1.043  -7.222  0.00  0.00    +0.003 C 
ATOM     19  C   UNL     1      -2.656  -2.455  -7.092  0.00  0.00    -0.014 C 
ATOM     20  C   UNL     1      -2.203  -3.298  -8.286  0.00  0.00    -0.078 C 
ATOM     21  N   UNL     1      -2.679  -2.685  -9.531  0.00  0.00    +0.383 N 
ATOM     22  C   UNL     1      -2.072  -1.359  -9.698  0.00  0.00    -0.078 C 
ATOM     23  C   UNL     1      -2.521  -0.442  -8.559  0.00  0.00    -0.014 C 
ATOM     24  H   UNL     1      -3.683  -2.592  -9.497  0.00  0.00    -0.081 HD
BRANCH  21  25
ATOM     25  C   UNL     1      -2.308  -3.539 -10.668  0.00  0.00    -0.036 C 
BRANCH  25  26
ATOM     26  C   UNL     1      -2.901  -2.975 -11.934  0.00  0.00    -0.027 A 
ATOM     27  C   UNL     1      -2.367  -2.083 -12.803  0.00  0.00    +0.009 A 
ATOM     28  C   UNL     1      -3.101  -1.706 -13.912  0.00  0.00    +0.008 A 
ATOM     29  C   UNL     1      -4.333  -2.239 -14.097  0.00  0.00    +0.045 A 
ATOM     30  S   UNL     1      -4.486  -3.316 -12.681  0.00  0.00    -0.103 S 
ENDBRANCH  25  26
ENDBRANCH  21  25
ENDBRANCH  17  18
ENDBRANCH   4  17
TORSDOF 9
