REMARK  Name = ZINC01430058
REMARK  9 active torsions:
REMARK  status: ('A' for Active; 'I' for Inactive)
REMARK    1  A    between atoms: C_1  and  C_2
REMARK    2  A    between atoms: C_8  and  C_13
REMARK    3  A    between atoms: C_9  and  C_12
REMARK    4  A    between atoms: C_13  and  C_14
REMARK    5  A    between atoms: C_14  and  N_15
REMARK    6  A    between atoms: N_15  and  S_16
REMARK    7  A    between atoms: S_16  and  C_19
REMARK    8  A    between atoms: C_23  and  O_25
REMARK    9  A    between atoms: O_25  and  C_26
REMARK                            x       y       z     vdW  Elec       q    Type
REMARK                         _______ _______ _______ _____ _____    ______ ____
ROOT
ATOM      1  C   UNL     1      -1.382  -2.804   4.224  0.00  0.00    +0.110 C 
ENDROOT
BRANCH   1   2
ATOM      2  N   UNL     1      -1.377  -2.571   5.670  0.00  0.00    -0.190 NA
ATOM      3  H   UNL     1      -0.561  -2.697   6.180  0.00  0.00    +0.148 HD
BRANCH   2   4
ATOM      4  S   UNL     1      -2.765  -2.090   6.436  0.00  0.00    +0.059 S 
ATOM      5  O   UNL     1      -2.448  -1.975   7.816  0.00  0.00    -0.153 OA
ATOM      6  O   UNL     1      -3.290  -1.006   5.682  0.00  0.00    -0.153 OA
BRANCH   4   7
ATOM      7  C   UNL     1      -3.923  -3.410   6.293  0.00  0.00    +0.109 A 
ATOM      8  C   UNL     1      -4.777  -3.465   5.207  0.00  0.00    +0.030 A 
ATOM      9  C   UNL     1      -5.688  -4.499   5.092  0.00  0.00    +0.021 A 
ATOM     10  C   UNL     1      -5.745  -5.482   6.062  0.00  0.00    +0.060 A 
ATOM     11  C   UNL     1      -4.887  -5.430   7.152  0.00  0.00    +0.136 A 
ATOM     12  C   UNL     1      -3.972  -4.393   7.262  0.00  0.00    +0.075 A 
ATOM     13 BR   UNL     1      -6.990  -6.896   5.904  0.00  0.00    -0.047 Br
BRANCH  11  14
ATOM     14  O   UNL     1      -4.941  -6.394   8.108  0.00  0.00    -0.494 OA
ATOM     15  C   UNL     1      -4.029  -6.276   9.202  0.00  0.00    +0.277 C 
ENDBRANCH  11  14
ENDBRANCH   4   7
ENDBRANCH   2   4
ENDBRANCH   1   2
BRANCH   1  16
ATOM     16  C   UNL     1       0.059  -2.867   3.713  0.00  0.00    +0.054 C 
BRANCH  16  24
ATOM     17  C   UNL     1      -0.018   1.503   0.010  0.00  0.00    +0.044 C 
ATOM     18  C   UNL     1       0.002  -0.004   0.002  0.00  0.00    -0.050 A 
ATOM     19  C   UNL     1       0.006  -0.686  -1.207  0.00  0.00    +0.005 A 
ATOM     20  C   UNL     1       0.024  -2.063  -1.237  0.00  0.00    +0.026 A 
ATOM     21  C   UNL     1       0.039  -2.780  -0.045  0.00  0.00    +0.047 A 
ATOM     22  C   UNL     1       0.036  -2.084   1.178  0.00  0.00    +0.003 A 
ATOM     23  C   UNL     1       0.023  -0.688   1.185  0.00  0.00    +0.013 A 
ATOM     24  C   UNL     1       0.055  -3.107   2.226  0.00  0.00    -0.018 A 
ATOM     25  C   UNL     1       0.067  -4.300   1.610  0.00  0.00    +0.017 A 
ATOM     26  N   UNL     1       0.058  -4.124   0.253  0.00  0.00    -0.358 N 
ATOM     27  H   UNL     1       0.065  -4.840  -0.402  0.00  0.00    +0.166 HD
ATOM     28  C   UNL     1       0.088  -5.635   2.309  0.00  0.00    +0.063 C 
ENDBRANCH  16  24
ENDBRANCH   1  16
TORSDOF 6
