REMARK  Name = ZINC06083335
REMARK  5 active torsions:
REMARK  status: ('A' for Active; 'I' for Inactive)
REMARK    1  A    between atoms: C_4  and  C_7
REMARK    2  A    between atoms: C_4  and  N_62
REMARK    3  A    between atoms: C_7  and  N_8
REMARK    4  A    between atoms: C_9  and  C_11
REMARK    5  A    between atoms: C_11  and  N_12
REMARK                            x       y       z     vdW  Elec       q    Type
REMARK                         _______ _______ _______ _____ _____    ______ ____
ROOT
ATOM      1  N   UNL     1       1.685   4.186   4.787  0.00  0.00    -0.315 N 
ATOM      2  C   UNL     1       1.073   2.992   4.915  0.00  0.00    +0.231 C 
ATOM      3  O   UNL     1       1.510   2.022   4.333  0.00  0.00    -0.274 OA
ATOM      4  H   UNL     1       1.335   4.962   5.253  0.00  0.00    +0.149 HD
ENDROOT
BRANCH   1   5
ATOM      5  C   UNL     1       2.877   4.312   3.946  0.00  0.00    +0.092 C 
BRANCH   5   9
ATOM      6  C   UNL     1       6.188   5.169   4.837  0.00  0.00    -0.000 C 
ATOM      7  C   UNL     1       5.025   4.998   5.817  0.00  0.00    -0.001 C 
ATOM      8  C   UNL     1       3.917   5.995   5.472  0.00  0.00    -0.010 C 
ATOM      9  C   UNL     1       3.424   5.738   4.047  0.00  0.00    -0.050 C 
ATOM     10  C   UNL     1       4.587   5.908   3.067  0.00  0.00    -0.010 C 
ATOM     11  C   UNL     1       5.695   4.911   3.411  0.00  0.00    -0.001 C 
BRANCH   9  17
ATOM     12  C   UNL     1       1.814   6.433   2.378  0.00  0.00    -0.078 C 
ATOM     13  C   UNL     1       0.616   7.351   2.126  0.00  0.00    -0.019 C 
ATOM     14  C   UNL     1       1.065   8.811   2.237  0.00  0.00    -0.004 C 
ATOM     15  C   UNL     1       1.675   9.045   3.623  0.00  0.00    -0.019 C 
ATOM     16  C   UNL     1       2.842   8.078   3.831  0.00  0.00    -0.078 C 
ATOM     17  N   UNL     1       2.339   6.691   3.736  0.00  0.00    +0.384 N 
ATOM     18  H   UNL     1       1.580   6.564   4.416  0.00  0.00    -0.081 HD
ENDBRANCH   9  17
ENDBRANCH   5   9
ENDBRANCH   1   5
BRANCH   2  19
ATOM     19  C   UNL     1      -0.153   2.862   5.781  0.00  0.00    +0.212 C 
BRANCH  19  20
ATOM     20  N   UNL     1      -0.625   1.476   5.754  0.00  0.00    -0.233 N 
ATOM     21  C   UNL     1      -1.531   0.998   4.841  0.00  0.00    +0.227 C 
ATOM     22  O   UNL     1      -1.858   1.510   3.792  0.00  0.00    -0.275 OA
ATOM     23  C   UNL     1      -2.034  -0.299   5.421  0.00  0.00    +0.095 C 
ATOM     24  C   UNL     1      -2.209  -1.531   4.518  0.00  0.00    +0.025 C 
ATOM     25  C   UNL     1      -2.092  -2.594   5.696  0.00  0.00    +0.016 C 
ATOM     26  C   UNL     1      -0.590  -2.196   6.026  0.00  0.00    +0.025 C 
ATOM     27  C   UNL     1      -0.618  -0.703   5.995  0.00  0.00    +0.095 C 
ATOM     28  C   UNL     1      -0.206   0.505   6.648  0.00  0.00    +0.227 C 
ATOM     29  O   UNL     1       0.360   0.642   7.712  0.00  0.00    -0.275 OA
ATOM     30  C   UNL     1      -0.033  -2.401   4.579  0.00  0.00    -0.027 C 
ATOM     31  C   UNL     1      -0.964  -1.935   3.763  0.00  0.00    -0.027 C 
ENDBRANCH  19  20
ENDBRANCH   2  19
TORSDOF 5
