REMARK  Name = ZINC39675953
REMARK  11 active torsions:
REMARK  status: ('A' for Active; 'I' for Inactive)
REMARK    1  A    between atoms: C_1  and  N_2
REMARK    2  A    between atoms: N_2  and  C_3
REMARK    3  A    between atoms: N_2  and  C_4
REMARK    4  A    between atoms: C_4  and  C_6
REMARK    5  A    between atoms: C_4  and  C_27
REMARK    6  A    between atoms: C_6  and  N_7
REMARK    7  A    between atoms: C_8  and  C_10
REMARK    8  A    between atoms: C_21  and  C_23
REMARK    9  A    between atoms: C_23  and  C_24
REMARK   10  A    between atoms: C_24  and  O_25
REMARK   11  A    between atoms: O_25  and  C_26
REMARK                            x       y       z     vdW  Elec       q    Type
REMARK                         _______ _______ _______ _____ _____    ______ ____
ROOT
ATOM      1  C   UNL     1       0.052  -6.505   1.651  0.00  0.00    +0.100 C 
ATOM      2  C   UNL     1      -0.713  -6.635   2.987  0.00  0.00    +0.121 C 
ATOM      3  N   UNL     1      -1.482  -7.895   2.857  0.00  0.00    -0.300 N 
ATOM      4  C   UNL     1      -0.559  -8.821   2.159  0.00  0.00    +0.115 C 
ATOM      5  C   UNL     1       0.154  -7.942   1.113  0.00  0.00    -0.004 C 
ATOM      6  C   UNL     1      -0.551  -8.053  -0.236  0.00  0.00    -0.010 C 
ATOM      7  C   UNL     1      -0.388  -9.476  -0.777  0.00  0.00    -0.082 C 
ATOM      8  N   UNL     1       1.040  -9.784  -0.922  0.00  0.00    +0.379 N 
ATOM      9  C   UNL     1       1.693  -9.767   0.392  0.00  0.00    -0.082 C 
ATOM     10  C   UNL     1       1.617  -8.356   0.983  0.00  0.00    -0.010 C 
ATOM     11  C   UNL     1      -2.739  -8.142   3.277  0.00  0.00    +0.218 C 
ATOM     12  O   UNL     1      -3.235  -9.234   3.096  0.00  0.00    -0.276 OA
ATOM     13  H   UNL     1       1.145 -10.699  -1.336  0.00  0.00    -0.086 HD
ATOM     14  H   UNL     1       1.472  -9.096  -1.520  0.00  0.00    -0.086 HD
ENDROOT
BRANCH   1  16
ATOM     15  N   UNL     1      -0.065  -4.958  -0.276  0.00  0.00    -0.316 N 
ATOM     16  C   UNL     1      -0.717  -5.638   0.688  0.00  0.00    +0.218 C 
ATOM     17  O   UNL     1      -1.923  -5.551   0.782  0.00  0.00    -0.275 OA
ATOM     18  H   UNL     1       0.899  -5.028  -0.350  0.00  0.00    +0.149 HD
BRANCH  15  19
ATOM     19  C   UNL     1      -0.813  -4.115  -1.212  0.00  0.00    +0.093 C 
BRANCH  19  20
ATOM     20  C   UNL     1       0.166  -3.362  -2.114  0.00  0.00    -0.021 C 
BRANCH  20  21
ATOM     21  C   UNL     1       0.982  -2.405  -1.283  0.00  0.00    -0.059 A 
ATOM     22  C   UNL     1       0.444  -1.190  -0.901  0.00  0.00    +0.002 A 
ATOM     23  C   UNL     1       1.192  -0.313  -0.139  0.00  0.00    +0.000 A 
ATOM     24  C   UNL     1       2.477  -0.650   0.243  0.00  0.00    +0.000 A 
ATOM     25  C   UNL     1       3.014  -1.866  -0.138  0.00  0.00    +0.000 A 
ATOM     26  C   UNL     1       2.265  -2.745  -0.897  0.00  0.00    +0.002 A 
ENDBRANCH  20  21
BRANCH  20  28
ATOM     27  C   UNL     1       0.354  -1.843  -3.961  0.00  0.00    -0.096 C 
ATOM     28  N   UNL     1      -0.583  -2.611  -3.131  0.00  0.00    +0.382 N 
ATOM     29  C   UNL     1      -1.333  -3.549  -3.978  0.00  0.00    -0.096 C 
ATOM     30  H   UNL     1      -1.226  -1.980  -2.677  0.00  0.00    -0.082 HD
ENDBRANCH  20  28
ENDBRANCH  19  20
ENDBRANCH  15  19
ENDBRANCH   1  16
BRANCH  11  31
ATOM     31  C   UNL     1      -3.527  -7.063   3.973  0.00  0.00    +0.124 C 
BRANCH  31  32
ATOM     32  C   UNL     1      -4.911  -7.600   4.344  0.00  0.00    +0.168 C 
BRANCH  32  33
ATOM     33  O   UNL     1      -5.658  -6.576   5.003  0.00  0.00    -0.382 OA
ATOM     34  C   UNL     1      -6.973  -6.976   5.394  0.00  0.00    +0.194 C 
ENDBRANCH  32  33
ENDBRANCH  31  32
ENDBRANCH  11  31
TORSDOF 8
