REMARK  Name = ZINC39675553
REMARK  9 active torsions:
REMARK  status: ('A' for Active; 'I' for Inactive)
REMARK    1  A    between atoms: C_1  and  C_2
REMARK    2  A    between atoms: C_7  and  C_8
REMARK    3  A    between atoms: C_12  and  C_21
REMARK    4  A    between atoms: N_23  and  C_24
REMARK    5  A    between atoms: C_24  and  C_25
REMARK    6  A    between atoms: C_25  and  C_27
REMARK    7  A    between atoms: C_25  and  N_33
REMARK    8  A    between atoms: N_33  and  C_34
REMARK    9  A    between atoms: N_33  and  C_35
REMARK                            x       y       z     vdW  Elec       q    Type
REMARK                         _______ _______ _______ _____ _____    ______ ____
ROOT
ATOM      1  C   UNL     1      -0.020  -0.430   2.647  0.00  0.00    +0.247 C 
ATOM      2  O   UNL     1      -0.273   0.740   2.853  0.00  0.00    -0.270 OA
ATOM      3  N   UNL     1       0.190  -1.267   3.683  0.00  0.00    -0.296 N 
ATOM      4  C   UNL     1       0.596  -2.691   3.632  0.00  0.00    +0.121 C 
ATOM      5  C   UNL     1       1.596  -2.854   4.799  0.00  0.00    +0.100 C 
ATOM      6  C   UNL     1       1.243  -1.723   5.779  0.00  0.00    -0.004 C 
ATOM      7  C   UNL     1       0.073  -0.968   5.130  0.00  0.00    +0.115 C 
ATOM      8  C   UNL     1       2.434  -0.786   5.956  0.00  0.00    -0.010 C 
ATOM      9  C   UNL     1       2.078   0.297   6.978  0.00  0.00    -0.082 C 
ATOM     10  N   UNL     1       1.729  -0.331   8.258  0.00  0.00    +0.379 N 
ATOM     11  C   UNL     1       0.527  -1.158   8.099  0.00  0.00    -0.082 C 
ATOM     12  C   UNL     1       0.817  -2.303   7.124  0.00  0.00    -0.010 C 
ATOM     13  H   UNL     1       2.495  -0.910   8.567  0.00  0.00    -0.086 HD
ATOM     14  H   UNL     1       1.554   0.385   8.947  0.00  0.00    -0.086 HD
ENDROOT
BRANCH   1  21
ATOM     15  C   UNL     1       1.564   0.994   0.690  0.00  0.00    +0.044 C 
ATOM     16  C   UNL     1       0.819  -0.258   0.308  0.00  0.00    -0.038 A 
ATOM     17  C   UNL     1       0.891  -0.740  -0.983  0.00  0.00    +0.004 A 
ATOM     18  C   UNL     1       0.208  -1.889  -1.336  0.00  0.00    +0.000 A 
ATOM     19  C   UNL     1      -0.553  -2.564  -0.398  0.00  0.00    +0.001 A 
ATOM     20  C   UNL     1      -0.634  -2.094   0.897  0.00  0.00    +0.013 A 
ATOM     21  C   UNL     1       0.058  -0.937   1.260  0.00  0.00    +0.040 A 
ENDBRANCH   1  21
BRANCH   5  22
ATOM     22  C   UNL     1       3.011  -2.699   4.303  0.00  0.00    +0.218 C 
ATOM     23  O   UNL     1       3.236  -2.039   3.311  0.00  0.00    -0.275 OA
ATOM     24  N   UNL     1       4.025  -3.294   4.961  0.00  0.00    -0.316 N 
ATOM     25  H   UNL     1       3.844  -3.822   5.755  0.00  0.00    +0.149 HD
BRANCH  24  26
ATOM     26  C   UNL     1       5.400  -3.143   4.479  0.00  0.00    +0.093 C 
BRANCH  26  27
ATOM     27  C   UNL     1       6.336  -4.003   5.331  0.00  0.00    -0.021 C 
BRANCH  27  28
ATOM     28  C   UNL     1       6.379  -3.460   6.736  0.00  0.00    -0.059 A 
ATOM     29  C   UNL     1       7.167  -2.363   7.029  0.00  0.00    +0.002 A 
ATOM     30  C   UNL     1       7.206  -1.864   8.317  0.00  0.00    +0.000 A 
ATOM     31  C   UNL     1       6.457  -2.462   9.313  0.00  0.00    +0.000 A 
ATOM     32  C   UNL     1       5.667  -3.558   9.020  0.00  0.00    +0.000 A 
ATOM     33  C   UNL     1       5.625  -4.054   7.730  0.00  0.00    +0.002 A 
ENDBRANCH  27  28
BRANCH  27  34
ATOM     34  N   UNL     1       7.687  -3.975   4.754  0.00  0.00    +0.382 N 
ATOM     35  C   UNL     1       8.572  -4.848   5.537  0.00  0.00    -0.096 C 
ATOM     36  C   UNL     1       7.636  -4.449   3.364  0.00  0.00    -0.096 C 
ATOM     37  H   UNL     1       8.042  -3.031   4.774  0.00  0.00    -0.082 HD
ENDBRANCH  27  34
ENDBRANCH  26  27
ENDBRANCH  24  26
ENDBRANCH   5  22
TORSDOF 6
