REMARK  Name = ZINC39633111
REMARK  6 active torsions:
REMARK  status: ('A' for Active; 'I' for Inactive)
REMARK    1  A    between atoms: C_4  and  S_7
REMARK    2  A    between atoms: S_7  and  C_8
REMARK    3  A    between atoms: C_9  and  C_14
REMARK    4  A    between atoms: C_18  and  C_27
REMARK    5  A    between atoms: N_29  and  C_30
REMARK    6  A    between atoms: C_30  and  C_31
REMARK                            x       y       z     vdW  Elec       q    Type
REMARK                         _______ _______ _______ _____ _____    ______ ____
ROOT
ATOM      1  C   UNL     1       5.863  -2.987   0.196  0.00  0.00    +0.249 C 
ATOM      2  O   UNL     1       6.175  -1.812   0.165  0.00  0.00    -0.270 OA
ATOM      3  N   UNL     1       6.818  -3.937   0.217  0.00  0.00    -0.296 N 
ATOM      4  C   UNL     1       6.638  -5.404   0.326  0.00  0.00    +0.121 C 
ATOM      5  C   UNL     1       7.694  -6.000  -0.632  0.00  0.00    +0.100 C 
ATOM      6  C   UNL     1       8.774  -4.911  -0.751  0.00  0.00    -0.004 C 
ATOM      7  C   UNL     1       8.286  -3.752   0.130  0.00  0.00    +0.115 C 
ATOM      8  C   UNL     1       8.900  -4.448  -2.200  0.00  0.00    -0.010 C 
ATOM      9  C   UNL     1      10.019  -3.408  -2.302  0.00  0.00    -0.082 C 
ATOM     10  N   UNL     1      11.282  -3.999  -1.844  0.00  0.00    +0.379 N 
ATOM     11  C   UNL     1      11.182  -4.356  -0.424  0.00  0.00    -0.082 C 
ATOM     12  C   UNL     1      10.112  -5.437  -0.242  0.00  0.00    -0.010 C 
ATOM     13  H   UNL     1      11.480  -4.827  -2.385  0.00  0.00    -0.086 HD
ATOM     14  H   UNL     1      12.029  -3.332  -1.970  0.00  0.00    -0.086 HD
ENDROOT
BRANCH   1  16
ATOM     15  C   UNL     1       3.491  -2.633  -0.520  0.00  0.00    +0.114 A 
ATOM     16  C   UNL     1       4.440  -3.371   0.209  0.00  0.00    +0.069 A 
ATOM     17  C   UNL     1       4.008  -4.479   0.948  0.00  0.00    +0.017 A 
ATOM     18  C   UNL     1       2.662  -4.798   0.928  0.00  0.00    +0.020 A 
ATOM     19  C   UNL     1       1.788  -4.023   0.186  0.00  0.00    +0.112 A 
ATOM     20  N   UNL     1       2.213  -2.980  -0.499  0.00  0.00    -0.248 NA
BRANCH  15  21
ATOM     21  S   UNL     1       4.004  -1.233  -1.459  0.00  0.00    -0.069 S 
BRANCH  21  25
ATOM     22  C   UNL     1       0.129   0.529  -3.006  0.00  0.00    +0.000 A 
ATOM     23  C   UNL     1       0.587   0.869  -1.746  0.00  0.00    +0.001 A 
ATOM     24  C   UNL     1       1.768   0.334  -1.271  0.00  0.00    +0.015 A 
ATOM     25  C   UNL     1       2.496  -0.548  -2.061  0.00  0.00    +0.014 A 
ATOM     26  C   UNL     1       2.033  -0.887  -3.326  0.00  0.00    +0.015 A 
ATOM     27  C   UNL     1       0.852  -0.348  -3.795  0.00  0.00    +0.001 A 
ENDBRANCH  21  25
ENDBRANCH  15  21
ENDBRANCH   1  16
BRANCH   5  28
ATOM     28  C   UNL     1       8.278  -7.261  -0.051  0.00  0.00    +0.219 C 
ATOM     29  O   UNL     1       8.275  -7.433   1.150  0.00  0.00    -0.275 OA
ATOM     30  N   UNL     1       8.804  -8.197  -0.864  0.00  0.00    -0.309 N 
ATOM     31  H   UNL     1       8.807  -8.060  -1.824  0.00  0.00    +0.149 HD
BRANCH  30  32
ATOM     32  C   UNL     1       9.372  -9.424  -0.299  0.00  0.00    +0.159 C 
BRANCH  32  33
ATOM     33  C   UNL     1       9.889 -10.298  -1.412  0.00  0.00    +0.058 A 
ATOM     34  C   UNL     1      11.225 -10.238  -1.764  0.00  0.00    +0.025 A 
ATOM     35  C   UNL     1      11.691 -11.046  -2.789  0.00  0.00    +0.003 A 
ATOM     36  C   UNL     1      10.791 -11.888  -3.425  0.00  0.00    +0.020 A 
ATOM     37  C   UNL     1       9.471 -11.894  -3.019  0.00  0.00    +0.111 A 
ATOM     38  N   UNL     1       9.064 -11.115  -2.036  0.00  0.00    -0.258 NA
ENDBRANCH  32  33
ENDBRANCH  30  32
ENDBRANCH   5  28
TORSDOF 6
