REMARK  Name = ZINC33249205
REMARK  10 active torsions:
REMARK  status: ('A' for Active; 'I' for Inactive)
REMARK    1  A    between atoms: C_1  and  C_2
REMARK    2  A    between atoms: C_5  and  C_38
REMARK    3  A    between atoms: N_8  and  C_10
REMARK    4  A    between atoms: C_10  and  C_11
REMARK    5  A    between atoms: C_11  and  C_12
REMARK    6  A    between atoms: C_12  and  N_13
REMARK    7  A    between atoms: C_26  and  C_27
REMARK    8  A    between atoms: C_26  and  C_28
REMARK    9  A    between atoms: N_30  and  C_31
REMARK   10  A    between atoms: C_34  and  C_37
REMARK                            x       y       z     vdW  Elec       q    Type
REMARK                         _______ _______ _______ _____ _____    ______ ____
ROOT
ATOM      1  N   UNL     1       5.438  -2.232   3.622  0.00  0.00    -0.279 N 
ATOM      2  C   UNL     1       6.429  -3.017   3.140  0.00  0.00    +0.283 C 
ATOM      3  O   UNL     1       6.237  -4.180   2.844  0.00  0.00    -0.267 OA
ATOM      4  C   UNL     1       7.763  -2.384   2.990  0.00  0.00    +0.198 A 
ATOM      5  N   UNL     1       8.834  -2.829   2.401  0.00  0.00    -0.223 NA
ATOM      6  C   UNL     1       9.804  -1.915   2.493  0.00  0.00    +0.090 A 
ATOM      7  C   UNL     1      11.127  -1.906   2.024  0.00  0.00    +0.030 A 
ATOM      8  C   UNL     1      11.875  -0.789   2.288  0.00  0.00    +0.002 A 
ATOM      9  C   UNL     1      11.365   0.295   2.986  0.00  0.00    +0.002 A 
ATOM     10  C   UNL     1      10.067   0.318   3.462  0.00  0.00    +0.028 A 
ATOM     11  C   UNL     1       9.280  -0.804   3.211  0.00  0.00    +0.069 A 
ATOM     12  N   UNL     1       8.004  -1.127   3.521  0.00  0.00    -0.317 N 
ATOM     13  C   UNL     1       6.980  -0.398   4.272  0.00  0.00    +0.159 C 
ATOM     14  C   UNL     1       5.594  -0.787   3.750  0.00  0.00    +0.129 C 
ATOM     15  C   UNL     1       5.376  -0.142   2.380  0.00  0.00    +0.043 C 
ENDROOT
BRANCH  14  16
ATOM     16  C   UNL     1       4.550  -0.267   4.703  0.00  0.00    +0.238 C 
ATOM     17  O   UNL     1       3.892   0.709   4.408  0.00  0.00    -0.273 OA
ATOM     18  N   UNL     1       4.346  -0.884   5.883  0.00  0.00    -0.311 N 
ATOM     19  H   UNL     1       4.920  -1.619   6.151  0.00  0.00    +0.149 HD
BRANCH  18  20
ATOM     20  C   UNL     1       3.258  -0.447   6.761  0.00  0.00    +0.073 C 
ATOM     21  C   UNL     1       3.737   0.723   7.623  0.00  0.00    +0.022 C 
ATOM     22  C   UNL     1       2.600   1.180   8.540  0.00  0.00    +0.005 C 
ATOM     23  C   UNL     1       2.176   0.020   9.443  0.00  0.00    -0.014 C 
ATOM     24  C   UNL     1       1.697  -1.149   8.581  0.00  0.00    +0.005 C 
ATOM     25  C   UNL     1       2.834  -1.606   7.665  0.00  0.00    +0.022 C 
ATOM     26  C   UNL     1       1.040   0.477  10.360  0.00  0.00    +0.007 C 
ENDBRANCH  18  20
ENDBRANCH  14  16
BRANCH   1  27
ATOM     27  C   UNL     1       4.170  -2.849   4.020  0.00  0.00    +0.107 C 
BRANCH  27  28
ATOM     28  C   UNL     1       3.175  -2.764   2.862  0.00  0.00    +0.000 C 
BRANCH  28  29
ATOM     29  C   UNL     1       1.851  -3.408   3.278  0.00  0.00    -0.077 C 
BRANCH  29  35
ATOM     30  C   UNL     1      -0.676  -0.353   0.407  0.00  0.00    +0.005 C 
ATOM     31  C   UNL     1      -0.350  -1.822   0.685  0.00  0.00    -0.031 C 
ATOM     32  C   UNL     1      -1.644  -2.586   0.983  0.00  0.00    +0.003 C 
ATOM     33  C   UNL     1      -1.299  -4.035   1.337  0.00  0.00    -0.031 C 
ATOM     34  C   UNL     1      -0.332  -4.049   2.523  0.00  0.00    -0.076 C 
ATOM     35  N   UNL     1       0.895  -3.326   2.166  0.00  0.00    +0.380 N 
ATOM     36  C   UNL     1       0.583  -1.918   1.894  0.00  0.00    -0.076 C 
ATOM     37  C   UNL     1      -2.578  -4.787   1.712  0.00  0.00    +0.005 C 
ATOM     38  H   UNL     1       1.303  -3.743   1.343  0.00  0.00    -0.082 HD
ENDBRANCH  29  35
ENDBRANCH  28  29
ENDBRANCH  27  28
ENDBRANCH   1  27
TORSDOF 6
