REMARK  Name = ZINC48215994
REMARK  7 active torsions:
REMARK  status: ('A' for Active; 'I' for Inactive)
REMARK    1  A    between atoms: C_1  and  C_2
REMARK    2  A    between atoms: C_2  and  C_3
REMARK    3  A    between atoms: C_3  and  N_4
REMARK    4  A    between atoms: N_7  and  C_10
REMARK    5  A    between atoms: C_10  and  C_12
REMARK    6  A    between atoms: C_10  and  C_13
REMARK    7  A    between atoms: N_18  and  C_19
REMARK                            x       y       z     vdW  Elec       q    Type
REMARK                         _______ _______ _______ _____ _____    ______ ____
ROOT
ATOM      1  C   UNL     1      -3.573  -6.501   1.117  0.00  0.00    +0.237 C 
ATOM      2  O   UNL     1      -4.485  -5.713   0.985  0.00  0.00    -0.274 OA
ATOM      3  N   UNL     1      -3.833  -7.817   1.246  0.00  0.00    -0.239 N 
ATOM      4  C   UNL     1      -5.107  -8.257   1.229  0.00  0.00    +0.306 C 
ATOM      5  O   UNL     1      -6.021  -7.467   1.097  0.00  0.00    -0.252 OA
ATOM      6  N   UNL     1      -5.367  -9.573   1.359  0.00  0.00    -0.294 N 
ATOM      7  H   UNL     1      -3.104  -8.447   1.352  0.00  0.00    +0.159 HD
ATOM      8  H   UNL     1      -4.638 -10.203   1.465  0.00  0.00    +0.151 HD
ENDROOT
BRANCH   6   9
ATOM      9  C   UNL     1      -6.752 -10.051   1.341  0.00  0.00    +0.037 C 
ATOM     10  C   UNL     1      -7.404  -9.675   0.009  0.00  0.00    +0.029 C 
ATOM     11  C   UNL     1      -8.850 -10.175  -0.011  0.00  0.00    -0.008 C 
ATOM     12  C   UNL     1      -8.866 -11.696   0.154  0.00  0.00    +0.007 C 
ATOM     13  C   UNL     1      -8.214 -12.072   1.486  0.00  0.00    -0.008 C 
ATOM     14  C   UNL     1      -6.768 -11.572   1.505  0.00  0.00    +0.029 C 
ATOM     15  C   UNL     1      -8.992 -11.426   2.634  0.00  0.00    +0.007 C 
ATOM     16  C   UNL     1      -8.976  -9.905   2.470  0.00  0.00    -0.008 C 
ATOM     17  C   UNL     1      -9.627  -9.529   1.138  0.00  0.00    +0.007 C 
ATOM     18  C   UNL     1      -7.530  -9.406   2.489  0.00  0.00    +0.029 C 
ENDBRANCH   6   9
BRANCH   1  19
ATOM     19  C   UNL     1      -2.149  -6.009   1.135  0.00  0.00    +0.140 C 
ATOM     20  C   UNL     1      -1.606  -6.073   2.564  0.00  0.00    +0.034 C 
BRANCH  19  24
ATOM     21  N   UNL     1      -1.277  -1.889   0.769  0.00  0.00    +0.381 N 
ATOM     22  C   UNL     1      -2.656  -2.276   1.096  0.00  0.00    -0.063 C 
ATOM     23  C   UNL     1      -2.666  -3.700   1.656  0.00  0.00    +0.066 C 
ATOM     24  N   UNL     1      -2.104  -4.620   0.657  0.00  0.00    -0.295 NA
ATOM     25  C   UNL     1      -0.733  -4.230   0.301  0.00  0.00    +0.066 C 
ATOM     26  C   UNL     1      -0.738  -2.802  -0.247  0.00  0.00    -0.063 C 
ATOM     27  H   UNL     1      -0.708  -1.938   1.601  0.00  0.00    -0.082 HD
BRANCH  21  28
ATOM     28  C   UNL     1      -1.265  -0.515   0.249  0.00  0.00    -0.079 C 
BRANCH  28  30
ATOM     29  C   UNL     1      -1.697   1.882   0.807  0.00  0.00    +0.002 C 
ATOM     30  C   UNL     1      -1.709   0.451   1.349  0.00  0.00    -0.022 C 
ENDBRANCH  28  30
ENDBRANCH  21  28
ENDBRANCH  19  24
ENDBRANCH   1  19
TORSDOF 5
