REMARK  Name = ZINC35453071
REMARK  8 active torsions:
REMARK  status: ('A' for Active; 'I' for Inactive)
REMARK    1  A    between atoms: C_1  and  C_2
REMARK    2  A    between atoms: C_2  and  C_3
REMARK    3  A    between atoms: C_10  and  C_30
REMARK    4  A    between atoms: C_11  and  S_15
REMARK    5  A    between atoms: S_15  and  N_18
REMARK    6  A    between atoms: N_18  and  C_19
REMARK    7  A    between atoms: N_18  and  C_20
REMARK    8  A    between atoms: C_20  and  C_21
REMARK                            x       y       z     vdW  Elec       q    Type
REMARK                         _______ _______ _______ _____ _____    ______ ____
ROOT
ATOM      1  C   UNL     1      -3.040   0.109   0.581  0.00  0.00    +0.259 C 
ATOM      2  C   UNL     1      -2.789  -1.334   0.220  0.00  0.00    +0.258 C 
ATOM      3  O   UNL     1      -3.143  -1.762  -0.858  0.00  0.00    -0.271 OA
ATOM      4  N   UNL     1      -2.170  -2.146   1.102  0.00  0.00    -0.280 N 
ATOM      5  C   UNL     1      -1.883  -1.668   2.388  0.00  0.00    +0.076 A 
ATOM      6  C   UNL     1      -1.054  -2.383   3.237  0.00  0.00    +0.032 A 
ATOM      7  C   UNL     1      -0.770  -1.891   4.497  0.00  0.00    -0.022 A 
ATOM      8  C   UNL     1      -1.310  -0.688   4.912  0.00  0.00    +0.112 A 
ATOM      9  C   UNL     1      -2.143   0.029   4.071  0.00  0.00    +0.076 A 
ATOM     10  C   UNL     1      -2.436  -0.461   2.810  0.00  0.00    +0.145 A 
ATOM     11  O   UNL     1      -3.277   0.218   1.986  0.00  0.00    -0.478 OA
ATOM     12  C   UNL     1       0.131  -2.669   5.422  0.00  0.00    +0.046 C 
ATOM     13  H   UNL     1      -1.926  -3.050   0.849  0.00  0.00    +0.155 HD
ENDROOT
BRANCH   8  14
ATOM     14  S   UNL     1      -0.938  -0.065   6.518  0.00  0.00    +0.061 S 
ATOM     15  O   UNL     1       0.275  -0.685   6.923  0.00  0.00    -0.153 OA
ATOM     16  O   UNL     1      -1.087   1.346   6.451  0.00  0.00    -0.153 OA
BRANCH  14  17
ATOM     17  N   UNL     1      -2.117  -0.617   7.542  0.00  0.00    -0.171 NA
ATOM     18  C   UNL     1      -1.871  -1.798   8.373  0.00  0.00    +0.132 C 
BRANCH  17  19
ATOM     19  C   UNL     1      -3.405   0.076   7.617  0.00  0.00    +0.205 C 
BRANCH  19  20
ATOM     20  C   UNL     1      -4.392  -0.597   6.699  0.00  0.00    +0.231 C 
ATOM     21  O   UNL     1      -4.053  -1.561   6.046  0.00  0.00    -0.274 OA
ATOM     22  N   UNL     1      -5.652  -0.128   6.603  0.00  0.00    -0.300 N 
ATOM     23  C   UNL     1      -6.024   1.026   7.391  0.00  0.00    +0.108 C 
ATOM     24  C   UNL     1      -6.549   0.565   8.772  0.00  0.00    +0.019 C 
ATOM     25  C   UNL     1      -7.868  -0.071   8.631  0.00  0.00    +0.002 C 
ATOM     26  C   UNL     1      -7.866  -1.341   7.785  0.00  0.00    +0.002 C 
ATOM     27  C   UNL     1      -7.992  -0.971   6.328  0.00  0.00    +0.019 C 
ATOM     28  C   UNL     1      -6.594  -0.810   5.694  0.00  0.00    +0.108 C 
ENDBRANCH  19  20
ENDBRANCH  17  19
ENDBRANCH  14  17
ENDBRANCH   8  14
BRANCH   1  30
ATOM     29  C   UNL     1      -2.117   2.427   0.452  0.00  0.00    +0.008 C 
ATOM     30  C   UNL     1      -1.817   0.948   0.204  0.00  0.00    +0.051 C 
ENDBRANCH   1  30
TORSDOF 5
