REMARK  Name = ZINC36019985
REMARK  5 active torsions:
REMARK  status: ('A' for Active; 'I' for Inactive)
REMARK    1  A    between atoms: C_1  and  C_2
REMARK    2  A    between atoms: C_2  and  C_3
REMARK    3  A    between atoms: C_2  and  C_4
REMARK    4  A    between atoms: N_8  and  C_27
REMARK    5  A    between atoms: C_16  and  C_18
REMARK                            x       y       z     vdW  Elec       q    Type
REMARK                         _______ _______ _______ _____ _____    ______ ____
ROOT
ATOM      1  C   UNL     1      -1.133  -1.326  -0.543  0.00  0.00    +0.022 C 
ATOM      2  C   UNL     1      -1.831  -0.566   0.564  0.00  0.00    +0.201 C 
ATOM      3  O   UNL     1      -2.169   0.598   0.521  0.00  0.00    -0.277 OA
ATOM      4  N   UNL     1      -2.014  -1.402   1.607  0.00  0.00    -0.311 N 
ATOM      5  C   UNL     1      -1.465  -2.720   1.280  0.00  0.00    +0.006 C 
ATOM      6  N   UNL     1      -1.308  -2.756  -0.193  0.00  0.00    +0.401 N 
ATOM      7  C   UNL     1      -2.429  -3.819   1.722  0.00  0.00    +0.025 C 
ATOM      8  C   UNL     1      -2.615  -3.751   3.242  0.00  0.00    +0.108 C 
ATOM      9  N   UNL     1      -1.294  -3.801   3.882  0.00  0.00    -0.298 N 
ATOM     10  C   UNL     1      -0.270  -2.831   3.469  0.00  0.00    +0.108 C 
ATOM     11  C   UNL     1      -0.104  -2.908   1.948  0.00  0.00    +0.025 C 
ATOM     12  C   UNL     1      -1.025  -4.720   4.831  0.00  0.00    +0.247 C 
ATOM     13  O   UNL     1      -1.903  -5.466   5.221  0.00  0.00    -0.270 OA
ATOM     14  H   UNL     1      -2.136  -3.131  -0.631  0.00  0.00    -0.082 HD
ATOM     15  H   UNL     1      -0.492  -3.289  -0.453  0.00  0.00    -0.082 HD
ENDROOT
BRANCH  12  16
ATOM     16  C   UNL     1       0.334  -4.822   5.396  0.00  0.00    +0.041 A 
ATOM     17  C   UNL     1       1.017  -3.668   5.789  0.00  0.00    +0.017 A 
ATOM     18  C   UNL     1       2.286  -3.765   6.318  0.00  0.00    +0.050 A 
ATOM     19  C   UNL     1       2.890  -5.007   6.462  0.00  0.00    +0.166 A 
ATOM     20  C   UNL     1       2.213  -6.163   6.070  0.00  0.00    +0.167 A 
ATOM     21  C   UNL     1       0.939  -6.072   5.545  0.00  0.00    +0.062 A 
ATOM     22  O   UNL     1       3.016  -7.240   6.313  0.00  0.00    -0.453 OA
ATOM     23  C   UNL     1       4.342  -6.702   6.474  0.00  0.00    +0.466 C 
ATOM     24  O   UNL     1       4.113  -5.363   6.949  0.00  0.00    -0.453 OA
ENDBRANCH  12  16
BRANCH   1  26
ATOM     25  C   UNL     1       1.045  -1.768  -1.686  0.00  0.00    +0.006 C 
ATOM     26  C   UNL     1       0.354  -0.965  -0.581  0.00  0.00    -0.023 C 
ATOM     27  C   UNL     1       0.509   0.530  -0.865  0.00  0.00    +0.006 C 
ENDBRANCH   1  26
BRANCH   4  28
ATOM     28  C   UNL     1      -2.661  -1.046   2.873  0.00  0.00    +0.075 C 
ATOM     29  C   UNL     1      -4.157  -0.730   2.837  0.00  0.00    +0.024 C 
ATOM     30  C   UNL     1      -3.142   0.397   3.039  0.00  0.00    +0.024 C 
ENDBRANCH   4  28
TORSDOF 3
