REMARK  Name = ZINC08824556
REMARK  6 active torsions:
REMARK  status: ('A' for Active; 'I' for Inactive)
REMARK    1  A    between atoms: C_9  and  C_12
REMARK    2  A    between atoms: C_12  and  N_13
REMARK    3  A    between atoms: C_14  and  C_16
REMARK    4  A    between atoms: C_16  and  C_17
REMARK    5  A    between atoms: C_17  and  C_18
REMARK    6  A    between atoms: C_18  and  N_19
REMARK                            x       y       z     vdW  Elec       q    Type
REMARK                         _______ _______ _______ _____ _____    ______ ____
ROOT
ATOM      1  C   UNL     1      -1.161  -6.291  -1.040  0.00  0.00    +0.029 C 
ENDROOT
BRANCH   1   2
ATOM      2  C   UNL     1      -1.129  -4.808  -1.417  0.00  0.00    +0.097 C 
BRANCH   2   4
ATOM      3  N   UNL     1       0.155  -2.790  -0.787  0.00  0.00    -0.312 N 
ATOM      4  C   UNL     1      -0.057  -4.110  -0.620  0.00  0.00    +0.213 C 
ATOM      5  O   UNL     1       0.615  -4.737   0.172  0.00  0.00    -0.276 OA
ATOM      6  H   UNL     1      -0.382  -2.289  -1.421  0.00  0.00    +0.149 HD
BRANCH   3   7
ATOM      7  C   UNL     1       1.197  -2.111  -0.012  0.00  0.00    +0.152 C 
BRANCH   7  16
ATOM      8  C   UNL     1      -0.091   4.126   0.030  0.00  0.00    +0.004 A 
ATOM      9  C   UNL     1      -1.269   3.403   0.034  0.00  0.00    +0.004 A 
ATOM     10  C   UNL     1      -1.234   2.021   0.030  0.00  0.00    +0.049 A 
ATOM     11  C   UNL     1      -0.016   1.357   0.009  0.00  0.00    +0.163 A 
ATOM     12  C   UNL     1       1.168   2.084   0.002  0.00  0.00    +0.162 A 
ATOM     13  C   UNL     1       1.126   3.471   0.014  0.00  0.00    +0.049 A 
ATOM     14  O   UNL     1       2.373   1.453  -0.018  0.00  0.00    -0.485 OA
ATOM     15  C   UNL     1       2.381   0.069   0.348  0.00  0.00    +0.275 C 
ATOM     16  C   UNL     1       1.229  -0.629  -0.390  0.00  0.00    +0.228 C 
ATOM     17  O   UNL     1       0.002  -0.004   0.002  0.00  0.00    -0.480 OA
ENDBRANCH   7  16
ENDBRANCH   3   7
ENDBRANCH   2   4
ENDBRANCH   1   2
BRANCH   1  18
ATOM     18  C   UNL     1      -2.249  -6.999  -1.849  0.00  0.00    +0.117 C 
BRANCH  18  19
ATOM     19  N   UNL     1      -2.280  -8.419  -1.488  0.00  0.00    -0.234 N 
ATOM     20  C   UNL     1      -1.514  -9.281  -2.181  0.00  0.00    +0.254 C 
ATOM     21  O   UNL     1      -0.814  -8.874  -3.088  0.00  0.00    -0.270 OA
ATOM     22  C   UNL     1      -1.514 -10.713  -1.844  0.00  0.00    +0.046 A 
ATOM     23  C   UNL     1      -0.736 -11.635  -2.529  0.00  0.00    +0.014 A 
ATOM     24  C   UNL     1      -0.774 -12.979  -2.176  0.00  0.00    +0.001 A 
ATOM     25  C   UNL     1      -1.566 -13.429  -1.159  0.00  0.00    +0.008 A 
ATOM     26  C   UNL     1      -2.369 -12.527  -0.440  0.00  0.00    -0.016 A 
ATOM     27  C   UNL     1      -2.340 -11.161  -0.789  0.00  0.00    +0.006 A 
ATOM     28  C   UNL     1      -3.136 -10.229  -0.085  0.00  0.00    +0.046 A 
ATOM     29  C   UNL     1      -3.944 -10.679   0.949  0.00  0.00    +0.014 A 
ATOM     30  C   UNL     1      -3.965 -12.028   1.282  0.00  0.00    +0.001 A 
ATOM     31  C   UNL     1      -3.202 -12.942   0.614  0.00  0.00    +0.008 A 
ATOM     32  C   UNL     1      -3.079  -8.813  -0.477  0.00  0.00    +0.254 C 
ATOM     33  O   UNL     1      -3.755  -7.994   0.114  0.00  0.00    -0.270 OA
ENDBRANCH  18  19
ENDBRANCH   1  18
TORSDOF 6
