REMARK  Name = ZINC08635829
REMARK  11 active torsions:
REMARK  status: ('A' for Active; 'I' for Inactive)
REMARK    1  A    between atoms: C_1  and  N_67
REMARK    2  A    between atoms: C_2  and  C_3
REMARK    3  A    between atoms: C_2  and  N_67
REMARK    4  A    between atoms: C_9  and  C_10
REMARK    5  A    between atoms: C_9  and  N_67
REMARK    6  A    between atoms: C_18  and  C_20
REMARK    7  A    between atoms: C_20  and  N_21
REMARK    8  A    between atoms: N_21  and  C_22
REMARK    9  A    between atoms: C_22  and  N_24
REMARK   10  A    between atoms: N_24  and  C_25
REMARK   11  A    between atoms: C_28  and  N_31
REMARK                            x       y       z     vdW  Elec       q    Type
REMARK                         _______ _______ _______ _____ _____    ______ ____
ROOT
ATOM      1  C   UNL     1      -3.909  -6.195   2.089  0.00  0.00    -0.041 C 
ATOM      2  C   UNL     1      -3.916  -4.665   2.016  0.00  0.00    -0.076 C 
ATOM      3  C   UNL     1      -5.933  -4.683   0.676  0.00  0.00    -0.078 C 
ATOM      4  C   UNL     1      -5.991  -6.229   0.721  0.00  0.00    -0.015 C 
ATOM      5  C   UNL     1      -4.553  -6.754   0.814  0.00  0.00    -0.015 C 
ATOM      6  C   UNL     1      -3.753  -6.257  -0.397  0.00  0.00    -0.010 C 
ATOM      7  C   UNL     1      -3.764  -4.726  -0.401  0.00  0.00    -0.051 C 
ATOM      8  N   UNL     1      -4.534  -4.212   0.752  0.00  0.00    +0.383 N 
ATOM      9  H   UNL     1      -4.526  -3.185   0.727  0.00  0.00    -0.081 HD
ENDROOT
BRANCH   1  10
ATOM     10  C   UNL     1      -2.468  -6.696   2.198  0.00  0.00    -0.077 C 
BRANCH  10  12
ATOM     11  C   UNL     1      -2.565  -6.876   4.611  0.00  0.00    -0.096 C 
ATOM     12  N   UNL     1      -1.892  -6.217   3.472  0.00  0.00    +0.381 N 
ATOM     13  H   UNL     1      -2.035  -5.203   3.542  0.00  0.00    -0.082 HD
BRANCH  12  14
ATOM     14  C   UNL     1      -0.442  -6.501   3.509  0.00  0.00    -0.043 C 
BRANCH  14  15
ATOM     15  C   UNL     1       0.158  -5.812   4.707  0.00  0.00    -0.064 A 
ATOM     16  C   UNL     1       0.630  -4.518   4.596  0.00  0.00    +0.002 A 
ATOM     17  C   UNL     1       1.175  -3.884   5.697  0.00  0.00    +0.000 A 
ATOM     18  C   UNL     1       1.260  -4.549   6.906  0.00  0.00    +0.000 A 
ATOM     19  C   UNL     1       0.793  -5.846   7.016  0.00  0.00    +0.000 A 
ATOM     20  C   UNL     1       0.242  -6.477   5.916  0.00  0.00    +0.002 A 
ENDBRANCH  14  15
ENDBRANCH  12  14
ENDBRANCH  10  12
ENDBRANCH   1  10
BRANCH   7  21
ATOM     21  C   UNL     1      -2.328  -4.205  -0.311  0.00  0.00    +0.088 C 
BRANCH  21  22
ATOM     22  N   UNL     1      -2.344  -2.745  -0.193  0.00  0.00    -0.328 N 
ATOM     23  H   UNL     1      -3.189  -2.269  -0.182  0.00  0.00    +0.148 HD
BRANCH  22  24
ATOM     24  C   UNL     1      -1.185  -2.064  -0.099  0.00  0.00    +0.134 C 
ATOM     25  S   UNL     1       0.306  -2.904  -0.118  0.00  0.00    -0.019 S 
BRANCH  24  26
ATOM     26  N   UNL     1      -1.200  -0.721   0.010  0.00  0.00    -0.297 N 
ATOM     27  H   UNL     1      -2.044  -0.251   0.102  0.00  0.00    +0.154 HD
BRANCH  26  28
ATOM     28  C   UNL     1       0.001  -0.003  -0.009  0.00  0.00    +0.033 A 
ATOM     29  C   UNL     1       0.194   1.054   0.871  0.00  0.00    +0.025 A 
ATOM     30  C   UNL     1       1.379   1.760   0.852  0.00  0.00    +0.029 A 
ATOM     31  C   UNL     1       2.379   1.416  -0.047  0.00  0.00    +0.065 A 
ATOM     32  C   UNL     1       2.187   0.359  -0.928  0.00  0.00    +0.029 A 
ATOM     33  C   UNL     1       1.002  -0.348  -0.909  0.00  0.00    +0.025 A 
BRANCH  31  34
ATOM     34  N   UNL     1       3.583   2.135  -0.067  0.00  0.00    -0.240 N 
ATOM     35  C   UNL     1       3.899   3.180   0.731  0.00  0.00    +0.114 A 
ATOM     36  C   UNL     1       5.145   3.590   0.398  0.00  0.00    +0.041 A 
ATOM     37  C   UNL     1       5.607   2.769  -0.637  0.00  0.00    +0.135 A 
ATOM     38  N   UNL     1       4.674   1.894  -0.913  0.00  0.00    -0.175 NA
ENDBRANCH  31  34
ENDBRANCH  26  28
ENDBRANCH  24  26
ENDBRANCH  22  24
ENDBRANCH  21  22
ENDBRANCH   7  21
TORSDOF 10
