REMARK  Name = ZINC03342496
REMARK  7 active torsions:
REMARK  status: ('A' for Active; 'I' for Inactive)
REMARK    1  A    between atoms: C_1  and  C_2
REMARK    2  A    between atoms: C_8  and  C_16
REMARK    3  A    between atoms: C_12  and  C_13
REMARK    4  A    between atoms: C_16  and  S_17
REMARK    5  A    between atoms: S_17  and  C_18
REMARK    6  A    between atoms: C_21  and  C_24
REMARK    7  A    between atoms: N_22  and  C_23
REMARK                            x       y       z     vdW  Elec       q    Type
REMARK                         _______ _______ _______ _____ _____    ______ ____
ROOT
ATOM      1  C   UNL     1       0.464   1.388   0.141  0.00  0.00    +0.046 C 
ATOM      2  C   UNL     1       0.553  -0.116   0.097  0.00  0.00    -0.015 A 
ATOM      3  C   UNL     1       0.427  -0.791  -1.117  0.00  0.00    +0.076 A 
ATOM      4  C   UNL     1       0.204  -0.240  -2.474  0.00  0.00    +0.260 A 
ATOM      5  O   UNL     1       0.103   0.961  -2.652  0.00  0.00    -0.267 OA
ATOM      6  N   UNL     1       0.116  -1.101  -3.506  0.00  0.00    -0.310 N 
ATOM      7  H   UNL     1      -0.030  -0.757  -4.401  0.00  0.00    +0.170 HD
ATOM      8  C   UNL     1       0.227  -2.439  -3.320  0.00  0.00    +0.121 A 
ATOM      9  N   UNL     1       0.424  -2.958  -2.139  0.00  0.00    -0.226 NA
ATOM     10  C   UNL     1       0.526  -2.201  -1.054  0.00  0.00    +0.116 A 
ATOM     11  S   UNL     1       0.785  -2.519   0.673  0.00  0.00    -0.062 S 
ATOM     12  C   UNL     1       0.764  -0.832   1.254  0.00  0.00    +0.106 A 
ENDROOT
BRANCH  12  13
ATOM     13  C   UNL     1       0.924  -0.349   2.578  0.00  0.00    +0.393 C 
ATOM     14  O   UNL     1       0.879   0.855   2.800  0.00  0.00    -0.240 OA
ATOM     15  O   UNL     1       1.106  -1.135   3.499  0.00  0.00    -0.240 OA
ENDBRANCH  12  13
BRANCH   8  16
ATOM     16  C   UNL     1       0.119  -3.355  -4.512  0.00  0.00    +0.151 C 
BRANCH  16  17
ATOM     17  S   UNL     1       0.304  -5.077  -3.971  0.00  0.00    -0.078 S 
BRANCH  17  18
ATOM     18  C   UNL     1       0.157  -6.009  -5.459  0.00  0.00    +0.192 A 
ATOM     19  N   UNL     1      -0.036  -5.526  -6.666  0.00  0.00    -0.122 NA
ATOM     20  N   UNL     1      -0.095  -6.484  -7.520  0.00  0.00    -0.128 NA
ATOM     21  C   UNL     1       0.056  -7.638  -6.912  0.00  0.00    +0.165 A 
ATOM     22  N   UNL     1       0.227  -7.369  -5.574  0.00  0.00    -0.305 N 
ATOM     23  C   UNL     1       0.438  -8.338  -4.496  0.00  0.00    +0.153 C 
BRANCH  21  24
ATOM     24  C   UNL     1       0.049  -8.973  -7.546  0.00  0.00    +0.019 A 
ATOM     25  C   UNL     1      -0.159 -10.115  -6.771  0.00  0.00    +0.014 A 
ATOM     26  C   UNL     1      -0.164 -11.358  -7.368  0.00  0.00    +0.039 A 
ATOM     27  C   UNL     1       0.036 -11.475  -8.734  0.00  0.00    +0.123 A 
ATOM     28  C   UNL     1       0.243 -10.345  -9.508  0.00  0.00    +0.039 A 
ATOM     29  C   UNL     1       0.245  -9.096  -8.922  0.00  0.00    +0.014 A 
ATOM     30  F   UNL     1       0.030 -12.696  -9.313  0.00  0.00    -0.205 F 
ENDBRANCH  21  24
ENDBRANCH  17  18
ENDBRANCH  16  17
ENDBRANCH   8  16
TORSDOF 5
