REMARK  Name = ZINC28297110
REMARK  11 active torsions:
REMARK  status: ('A' for Active; 'I' for Inactive)
REMARK    1  A    between atoms: C_1  and  C_2
REMARK    2  A    between atoms: C_2  and  C_3
REMARK    3  A    between atoms: C_2  and  N_4
REMARK    4  A    between atoms: N_4  and  C_5
REMARK    5  A    between atoms: N_4  and  C_24
REMARK    6  A    between atoms: C_5  and  C_6
REMARK    7  A    between atoms: C_6  and  C_8
REMARK    8  A    between atoms: C_6  and  O_23
REMARK    9  A    between atoms: C_8  and  N_9
REMARK   10  A    between atoms: C_24  and  C_25
REMARK   11  A    between atoms: C_24  and  C_26
REMARK                            x       y       z     vdW  Elec       q    Type
REMARK                         _______ _______ _______ _____ _____    ______ ____
ROOT
ATOM      1  N   UNL     1      -1.903   5.111   0.184  0.00  0.00    -0.340 N 
ATOM      2  C   UNL     1      -1.699   3.758   0.256  0.00  0.00    +0.023 A 
ATOM      3  C   UNL     1      -2.144   3.168  -0.875  0.00  0.00    -0.019 A 
ATOM      4  C   UNL     1      -2.670   4.216  -1.724  0.00  0.00    +0.005 A 
ATOM      5  C   UNL     1      -2.493   5.427  -1.006  0.00  0.00    +0.068 A 
ATOM      6  C   UNL     1      -2.902   6.642  -1.553  0.00  0.00    +0.065 A 
ATOM      7  C   UNL     1      -3.478   6.601  -2.812  0.00  0.00    +0.022 A 
ATOM      8  C   UNL     1      -3.648   5.415  -3.508  0.00  0.00    +0.002 A 
ATOM      9  C   UNL     1      -3.255   4.204  -2.994  0.00  0.00    +0.010 A 
ATOM     10 CL   UNL     1      -2.698   8.138  -0.697  0.00  0.00    -0.081 Cl
ATOM     11  C   UNL     1      -2.078   1.686  -1.144  0.00  0.00    +0.037 C 
ATOM     12  C   UNL     1      -1.088   1.054  -0.159  0.00  0.00    +0.005 C 
ATOM     13  C   UNL     1      -1.420   1.518   1.262  0.00  0.00    +0.006 C 
ATOM     14  C   UNL     1      -1.075   3.004   1.406  0.00  0.00    +0.054 C 
ENDROOT
BRANCH   1  15
ATOM     15  C   UNL     1      -1.543   6.074   1.228  0.00  0.00    +0.151 C 
BRANCH  15  16
ATOM     16  C   UNL     1      -0.116   6.574   0.990  0.00  0.00    +0.118 C 
BRANCH  16  17
ATOM     17  O   UNL     1       0.801   5.489   1.143  0.00  0.00    -0.392 OA
ATOM     18  H   UNL     1       0.718   4.603   0.496  0.00  0.00    +0.210 HD
ENDBRANCH  16  17
BRANCH  16  19
ATOM     19  C   UNL     1       0.216   7.670   2.004  0.00  0.00    -0.045 C 
BRANCH  19  20
ATOM     20  N   UNL     1       1.379   8.435   1.535  0.00  0.00    +0.384 N 
ATOM     21  H   UNL     1       1.252   8.617   0.458  0.00  0.00    -0.081 HD
BRANCH  20  23
ATOM     22  C   UNL     1       1.855   9.535   3.670  0.00  0.00    -0.014 C 
ATOM     23  C   UNL     1       1.458   9.739   2.207  0.00  0.00    -0.074 C 
ATOM     24  C   UNL     1       2.506  10.609   1.511  0.00  0.00    -0.014 C 
ENDBRANCH  20  23
BRANCH  20  25
ATOM     25  C   UNL     1       2.620   7.672   1.720  0.00  0.00    -0.074 C 
ATOM     26  C   UNL     1       2.477   6.752   2.934  0.00  0.00    -0.014 C 
ATOM     27  C   UNL     1       2.893   6.831   0.471  0.00  0.00    -0.014 C 
ENDBRANCH  20  25
ENDBRANCH  19  20
ENDBRANCH  16  19
ENDBRANCH  15  16
ENDBRANCH   1  15
TORSDOF 7
