REMARK  Name = ZINC39666570
REMARK  10 active torsions:
REMARK  status: ('A' for Active; 'I' for Inactive)
REMARK    1  A    between atoms: C_1  and  C_2
REMARK    2  A    between atoms: C_2  and  C_4
REMARK    3  A    between atoms: C_2  and  O_30
REMARK    4  A    between atoms: C_4  and  N_5
REMARK    5  A    between atoms: C_6  and  C_8
REMARK    6  A    between atoms: C_19  and  C_21
REMARK    7  A    between atoms: C_21  and  C_22
REMARK    8  A    between atoms: C_22  and  C_23
REMARK    9  A    between atoms: C_23  and  C_24
REMARK   10  A    between atoms: O_30  and  C_31
REMARK                            x       y       z     vdW  Elec       q    Type
REMARK                         _______ _______ _______ _____ _____    ______ ____
ROOT
ATOM      1  C   UNL     1       1.217  -3.721   3.022  0.00  0.00    +0.100 C 
ATOM      2  C   UNL     1      -0.256  -4.169   3.153  0.00  0.00    +0.121 C 
ATOM      3  N   UNL     1      -0.239  -5.208   4.210  0.00  0.00    -0.300 N 
ATOM      4  C   UNL     1       0.725  -4.696   5.213  0.00  0.00    +0.115 C 
ATOM      5  C   UNL     1       1.857  -4.068   4.376  0.00  0.00    -0.004 C 
ATOM      6  C   UNL     1       2.375  -2.803   5.056  0.00  0.00    -0.010 C 
ATOM      7  C   UNL     1       3.059  -3.181   6.373  0.00  0.00    -0.082 C 
ATOM      8  N   UNL     1       4.167  -4.104   6.104  0.00  0.00    +0.379 N 
ATOM      9  C   UNL     1       3.650  -5.355   5.536  0.00  0.00    -0.082 C 
ATOM     10  C   UNL     1       2.991  -5.070   4.184  0.00  0.00    -0.010 C 
ATOM     11  C   UNL     1      -0.941  -6.358   4.249  0.00  0.00    +0.216 C 
ATOM     12  O   UNL     1      -0.817  -7.111   5.191  0.00  0.00    -0.276 OA
ATOM     13  H   UNL     1       4.807  -3.679   5.449  0.00  0.00    -0.086 HD
ATOM     14  H   UNL     1       4.654  -4.303   6.965  0.00  0.00    -0.086 HD
ENDROOT
BRANCH   1  16
ATOM     15  N   UNL     1       2.330  -1.723   2.079  0.00  0.00    -0.312 N 
ATOM     16  C   UNL     1       1.293  -2.237   2.770  0.00  0.00    +0.218 C 
ATOM     17  O   UNL     1       0.422  -1.505   3.190  0.00  0.00    -0.275 OA
ATOM     18  H   UNL     1       3.027  -2.308   1.743  0.00  0.00    +0.149 HD
BRANCH  15  19
ATOM     19  C   UNL     1       2.404  -0.280   1.834  0.00  0.00    +0.148 C 
BRANCH  19  21
ATOM     20  C   UNL     1       3.746   1.543   0.778  0.00  0.00    +0.053 C 
ATOM     21  C   UNL     1       3.669   0.037   1.034  0.00  0.00    +0.187 C 
BRANCH  21  22
ATOM     22  O   UNL     1       4.818  -0.381   1.773  0.00  0.00    -0.486 OA
BRANCH  22  23
ATOM     23  C   UNL     1       5.939  -0.668   1.061  0.00  0.00    +0.139 A 
ATOM     24  C   UNL     1       5.968  -0.448  -0.308  0.00  0.00    +0.047 A 
ATOM     25  C   UNL     1       7.109  -0.740  -1.030  0.00  0.00    +0.004 A 
ATOM     26  C   UNL     1       8.222  -1.253  -0.389  0.00  0.00    +0.002 A 
ATOM     27  C   UNL     1       8.197  -1.475   0.975  0.00  0.00    +0.023 A 
ATOM     28  C   UNL     1       7.059  -1.178   1.704  0.00  0.00    +0.083 A 
ATOM     29 CL   UNL     1       7.030  -1.449   3.418  0.00  0.00    -0.080 Cl
ENDBRANCH  22  23
ENDBRANCH  21  22
ENDBRANCH  19  21
ENDBRANCH  15  19
ENDBRANCH   1  16
BRANCH  11  30
ATOM     30  C   UNL     1      -1.879  -6.707   3.123  0.00  0.00    +0.096 C 
BRANCH  30  31
ATOM     31  C   UNL     1      -2.545  -8.053   3.413  0.00  0.00    +0.014 C 
BRANCH  31  32
ATOM     32  C   UNL     1      -3.498  -8.408   2.269  0.00  0.00    +0.035 C 
BRANCH  32  33
ATOM     33  C   UNL     1      -4.154  -9.734   2.555  0.00  0.00    -0.047 A 
ATOM     34  C   UNL     1      -3.561 -10.906   2.123  0.00  0.00    +0.003 A 
ATOM     35  C   UNL     1      -4.163 -12.122   2.386  0.00  0.00    +0.000 A 
ATOM     36  C   UNL     1      -5.358 -12.167   3.080  0.00  0.00    +0.000 A 
ATOM     37  C   UNL     1      -5.950 -10.995   3.512  0.00  0.00    +0.000 A 
ATOM     38  C   UNL     1      -5.346  -9.779   3.254  0.00  0.00    +0.003 A 
ENDBRANCH  32  33
ENDBRANCH  31  32
ENDBRANCH  30  31
ENDBRANCH  11  30
TORSDOF 9
