REMARK  Name = ZINC18270967
REMARK  9 active torsions:
REMARK  status: ('A' for Active; 'I' for Inactive)
REMARK    1  A    between atoms: C_1  and  C_2
REMARK    2  A    between atoms: C_3  and  C_27
REMARK    3  A    between atoms: C_4  and  N_26
REMARK    4  A    between atoms: C_9  and  C_10
REMARK    5  A    between atoms: C_13  and  O_16
REMARK    6  A    between atoms: O_16  and  C_17
REMARK    7  A    between atoms: C_17  and  C_18
REMARK    8  A    between atoms: C_21  and  C_25
REMARK    9  A    between atoms: C_22  and  C_23
REMARK                            x       y       z     vdW  Elec       q    Type
REMARK                         _______ _______ _______ _____ _____    ______ ____
ROOT
ATOM      1  C   UNL     1       0.738  -3.599   3.335  0.00  0.00    +0.046 C 
ATOM      2  C   UNL     1       0.902  -3.753   1.845  0.00  0.00    -0.020 A 
ATOM      3  C   UNL     1       1.411  -4.936   1.296  0.00  0.00    +0.095 A 
ATOM      4  C   UNL     1       1.548  -5.038  -0.102  0.00  0.00    +0.135 A 
ATOM      5  N   UNL     1       1.206  -4.039  -0.894  0.00  0.00    -0.230 NA
ATOM      6  C   UNL     1       0.720  -2.898  -0.412  0.00  0.00    +0.092 A 
ATOM      7  C   UNL     1       0.554  -2.725   0.979  0.00  0.00    +0.013 A 
ATOM      8  C   UNL     1       0.002  -1.370   1.183  0.00  0.00    -0.011 C 
ATOM      9  C   UNL     1      -0.312  -0.793   2.400  0.00  0.00    +0.016 C 
ATOM     10  C   UNL     1      -0.148  -0.770  -0.087  0.00  0.00    -0.023 C 
ATOM     11  C   UNL     1       0.265  -1.656  -1.060  0.00  0.00    +0.081 C 
ATOM     12  C   UNL     1      -0.681   0.617  -0.339  0.00  0.00    +0.046 C 
ENDROOT
BRANCH   9  13
ATOM     13  C   UNL     1      -0.847  -1.616   3.484  0.00  0.00    -0.024 A 
ATOM     14  C   UNL     1      -1.790  -2.618   3.208  0.00  0.00    +0.011 A 
ATOM     15  C   UNL     1      -2.282  -3.386   4.224  0.00  0.00    +0.046 A 
ATOM     16  C   UNL     1      -1.857  -3.171   5.532  0.00  0.00    +0.121 A 
ATOM     17  C   UNL     1      -0.926  -2.176   5.813  0.00  0.00    +0.046 A 
ATOM     18  C   UNL     1      -0.423  -1.404   4.805  0.00  0.00    +0.011 A 
BRANCH  16  19
ATOM     19  O   UNL     1      -2.353  -3.935   6.537  0.00  0.00    -0.483 OA
BRANCH  19  20
ATOM     20  C   UNL     1      -3.306  -4.939   6.180  0.00  0.00    +0.324 C 
BRANCH  20  21
ATOM     21  C   UNL     1      -3.741  -5.681   7.418  0.00  0.00    +0.248 C 
ATOM     22  O   UNL     1      -3.281  -5.380   8.499  0.00  0.00    -0.272 OA
ATOM     23  N   UNL     1      -4.642  -6.679   7.323  0.00  0.00    -0.327 N 
ATOM     24  H   UNL     1      -5.010  -6.920   6.458  0.00  0.00    +0.145 HD
ATOM     25  H   UNL     1      -4.922  -7.157   8.119  0.00  0.00    +0.145 HD
ENDBRANCH  20  21
ENDBRANCH  19  20
ENDBRANCH  16  19
ENDBRANCH   9  13
BRANCH   4  26
ATOM     26  N   UNL     1       2.050  -6.205  -0.654  0.00  0.00    -0.342 N 
ATOM     27  H   UNL     1       2.148  -6.283  -1.616  0.00  0.00    +0.144 HD
ATOM     28  H   UNL     1       2.303  -6.944  -0.079  0.00  0.00    +0.144 HD
ENDBRANCH   4  26
BRANCH  11  29
ATOM     29  C   UNL     1       0.256  -1.408  -2.471  0.00  0.00    +0.102 C 
ATOM     30  N   UNL     1       0.249  -1.211  -3.590  0.00  0.00    -0.191 NA
ENDBRANCH  11  29
BRANCH   3  31
ATOM     31  C   UNL     1       1.785  -6.027   2.144  0.00  0.00    +0.103 C 
ATOM     32  N   UNL     1       2.082  -6.893   2.817  0.00  0.00    -0.191 NA
ENDBRANCH   3  31
TORSDOF 7
