REMARK  Name = ZINC65963712
REMARK  5 active torsions:
REMARK  status: ('A' for Active; 'I' for Inactive)
REMARK    1  A    between atoms: C_10  and  N_11
REMARK    2  A    between atoms: C_12  and  C_14
REMARK    3  A    between atoms: C_14  and  N_15
REMARK    4  A    between atoms: C_18  and  N_21
REMARK    5  A    between atoms: C_22  and  C_24
REMARK                            x       y       z     vdW  Elec       q    Type
REMARK                         _______ _______ _______ _____ _____    ______ ____
ROOT
ATOM      1  N   UNL     1       6.871   2.961  -0.780  0.00  0.00    +0.385 N 
ATOM      2  C   UNL     1       5.841   3.937  -0.403  0.00  0.00    -0.076 C 
ATOM      3  C   UNL     1       6.480   5.078   0.392  0.00  0.00    +0.003 C 
ATOM      4  C   UNL     1       7.543   5.762  -0.473  0.00  0.00    +0.069 C 
ATOM      5  C   UNL     1       8.571   4.720  -0.921  0.00  0.00    +0.003 C 
ATOM      6  C   UNL     1       7.855   3.592  -1.667  0.00  0.00    -0.076 C 
ATOM      7  H   UNL     1       7.335   2.627   0.052  0.00  0.00    -0.081 HD
ENDROOT
BRANCH   4   8
ATOM      8  N   UNL     1       8.212   6.806   0.308  0.00  0.00    -0.312 N 
ATOM      9  C   UNL     1       8.792   7.849  -0.318  0.00  0.00    +0.216 C 
ATOM     10  O   UNL     1       8.760   7.923  -1.528  0.00  0.00    -0.276 OA
ATOM     11  H   UNL     1       8.237   6.747   1.276  0.00  0.00    +0.149 HD
BRANCH   9  12
ATOM     12  C   UNL     1       9.480   8.922   0.485  0.00  0.00    +0.075 C 
ATOM     13  C   UNL     1       8.472   9.575   1.433  0.00  0.00    +0.013 C 
ATOM     14  C   UNL     1       9.170  10.665   2.248  0.00  0.00    +0.001 C 
ATOM     15  C   UNL     1       9.740  11.724   1.302  0.00  0.00    +0.000 C 
ATOM     16  C   UNL     1      10.748  11.071   0.354  0.00  0.00    +0.001 C 
ATOM     17  C   UNL     1      10.050   9.981  -0.461  0.00  0.00    +0.013 C 
ENDBRANCH   9  12
ENDBRANCH   4   8
BRANCH   1  18
ATOM     18  C   UNL     1       6.241   1.831  -1.474  0.00  0.00    +0.019 C 
BRANCH  18  20
ATOM     19  N   UNL     1       4.631   0.029  -0.946  0.00  0.00    -0.310 N 
ATOM     20  C   UNL     1       5.321   1.107  -0.525  0.00  0.00    +0.197 C 
ATOM     21  O   UNL     1       5.202   1.495   0.618  0.00  0.00    -0.278 OA
ATOM     22  H   UNL     1       4.726  -0.282  -1.860  0.00  0.00    +0.149 HD
BRANCH  19  32
ATOM     23  C   UNL     1      -0.017   1.375   0.010  0.00  0.00    +0.000 A 
ATOM     24  C   UNL     1       1.174   2.078   0.002  0.00  0.00    +0.000 A 
ATOM     25  C   UNL     1       2.372   1.395  -0.010  0.00  0.00    +0.006 A 
ATOM     26  C   UNL     1       2.393   0.006  -0.017  0.00  0.00    -0.024 A 
ATOM     27  C   UNL     1       1.208  -0.694  -0.015  0.00  0.00    -0.042 A 
ATOM     28  C   UNL     1       0.002  -0.004   0.002  0.00  0.00    +0.004 A 
ATOM     29  C   UNL     1       1.155  -2.199  -0.038  0.00  0.00    +0.035 C 
ATOM     30  C   UNL     1       2.501  -2.790   0.375  0.00  0.00    +0.007 C 
ATOM     31  C   UNL     1       3.599  -2.130  -0.467  0.00  0.00    +0.027 C 
ATOM     32  C   UNL     1       3.737  -0.675  -0.023  0.00  0.00    +0.103 C 
ENDBRANCH  19  32
ENDBRANCH  18  20
ENDBRANCH   1  18
TORSDOF 5
