REMARK  Name = ZINC40727381
REMARK  7 active torsions:
REMARK  status: ('A' for Active; 'I' for Inactive)
REMARK    1  A    between atoms: C_1  and  C_2
REMARK    2  A    between atoms: C_2  and  C_3
REMARK    3  A    between atoms: C_2  and  C_4
REMARK    4  A    between atoms: C_7  and  O_10
REMARK    5  A    between atoms: O_10  and  C_11
REMARK    6  A    between atoms: C_12  and  N_25
REMARK    7  A    between atoms: C_13  and  N_17
REMARK                            x       y       z     vdW  Elec       q    Type
REMARK                         _______ _______ _______ _____ _____    ______ ____
ROOT
ATOM      1  C   UNL     1       3.778  -2.539  -4.483  0.00  0.00    +0.246 A 
ATOM      2  C   UNL     1       4.537  -2.905  -5.593  0.00  0.00    +0.128 A 
ATOM      3  C   UNL     1       5.737  -3.588  -5.376  0.00  0.00    +0.152 A 
ATOM      4  N   UNL     1       6.105  -3.862  -4.128  0.00  0.00    -0.218 NA
ATOM      5  C   UNL     1       5.356  -3.498  -3.106  0.00  0.00    +0.227 A 
ATOM      6  N   UNL     1       4.222  -2.847  -3.268  0.00  0.00    -0.199 NA
ENDROOT
BRANCH   3   7
ATOM      7  N   UNL     1       6.532  -3.977  -6.449  0.00  0.00    -0.283 N 
ATOM      8  C   UNL     1       7.662  -4.761  -6.229  0.00  0.00    +0.124 A 
ATOM      9  C   UNL     1       8.385  -5.245  -7.314  0.00  0.00    +0.045 A 
ATOM     10  C   UNL     1       9.505  -6.023  -7.082  0.00  0.00    +0.020 A 
ATOM     11  C   UNL     1       9.866  -6.291  -5.767  0.00  0.00    +0.036 A 
ATOM     12  C   UNL     1       9.101  -5.777  -4.738  0.00  0.00    +0.128 A 
ATOM     13  N   UNL     1       8.040  -5.033  -4.990  0.00  0.00    -0.239 NA
ATOM     14 BR   UNL     1      11.387  -7.349  -5.390  0.00  0.00    -0.049 Br
ATOM     15  H   UNL     1       6.301  -3.702  -7.349  0.00  0.00    +0.155 HD
ENDBRANCH   3   7
BRANCH   2  16
ATOM     16  N   UNL     1       4.109  -2.596  -6.894  0.00  0.00    -0.351 N 
ATOM     17  H   UNL     1       3.274  -2.122  -7.029  0.00  0.00    +0.143 HD
ATOM     18  H   UNL     1       4.648  -2.857  -7.657  0.00  0.00    +0.143 HD
ENDBRANCH   2  16
BRANCH   1  19
ATOM     19  O   UNL     1       2.605  -1.875  -4.639  0.00  0.00    -0.436 OA
BRANCH  19  23
ATOM     20  C   UNL     1       0.638  -0.591  -1.248  0.00  0.00    -0.045 A 
ATOM     21  C   UNL     1       1.808   0.031  -1.645  0.00  0.00    +0.007 A 
ATOM     22  C   UNL     1       2.469  -0.397  -2.780  0.00  0.00    +0.046 A 
ATOM     23  C   UNL     1       1.958  -1.452  -3.522  0.00  0.00    +0.130 A 
ATOM     24  C   UNL     1       0.784  -2.074  -3.122  0.00  0.00    +0.046 A 
ATOM     25  C   UNL     1       0.130  -1.646  -1.984  0.00  0.00    +0.007 A 
BRANCH  20  27
ATOM     26  C   UNL     1       0.846  -0.259   1.200  0.00  0.00    +0.012 C 
ATOM     27  C   UNL     1      -0.081  -0.122  -0.010  0.00  0.00    +0.013 C 
ATOM     28  C   UNL     1      -0.485   1.344  -0.179  0.00  0.00    +0.012 C 
ENDBRANCH  20  27
ENDBRANCH  19  23
ENDBRANCH   1  19
TORSDOF 5
