REMARK  Name = ZINC39606477
REMARK  12 active torsions:
REMARK  status: ('A' for Active; 'I' for Inactive)
REMARK    1  A    between atoms: C_1  and  C_2
REMARK    2  A    between atoms: C_2  and  C_3
REMARK    3  A    between atoms: C_3  and  C_5
REMARK    4  A    between atoms: C_3  and  C_6
REMARK    5  A    between atoms: C_6  and  N_7
REMARK    6  A    between atoms: C_8  and  C_10
REMARK    7  A    between atoms: C_21  and  C_23
REMARK    8  A    between atoms: C_25  and  C_32
REMARK    9  A    between atoms: N_27  and  C_28
REMARK   10  A    between atoms: C_28  and  C_29
REMARK   11  A    between atoms: C_28  and  C_30
REMARK   12  A    between atoms: C_28  and  C_31
REMARK                            x       y       z     vdW  Elec       q    Type
REMARK                         _______ _______ _______ _____ _____    ______ ____
ROOT
ATOM      1  C   UNL     1      -4.680  -4.500  -0.774  0.00  0.00    +0.100 C 
ATOM      2  C   UNL     1      -5.355  -3.909   0.484  0.00  0.00    +0.121 C 
ATOM      3  N   UNL     1      -6.234  -4.993   0.982  0.00  0.00    -0.295 N 
ATOM      4  C   UNL     1      -5.443  -6.230   0.782  0.00  0.00    +0.115 C 
ATOM      5  C   UNL     1      -4.740  -6.024  -0.575  0.00  0.00    -0.004 C 
ATOM      6  C   UNL     1      -5.550  -6.672  -1.693  0.00  0.00    -0.010 C 
ATOM      7  C   UNL     1      -5.547  -8.191  -1.504  0.00  0.00    -0.082 C 
ATOM      8  N   UNL     1      -4.165  -8.686  -1.524  0.00  0.00    +0.379 N 
ATOM      9  C   UNL     1      -3.417  -8.129  -0.390  0.00  0.00    -0.082 C 
ATOM     10  C   UNL     1      -3.331  -6.607  -0.531  0.00  0.00    -0.010 C 
ATOM     11  C   UNL     1      -7.473  -4.879   1.500  0.00  0.00    +0.265 C 
ATOM     12  O   UNL     1      -8.076  -5.873   1.859  0.00  0.00    -0.268 OA
ATOM     13  H   UNL     1      -4.168  -9.693  -1.461  0.00  0.00    -0.086 HD
ATOM     14  H   UNL     1      -3.721  -8.407  -2.387  0.00  0.00    -0.086 HD
ENDROOT
BRANCH  11  15
ATOM     15  C   UNL     1      -8.097  -3.553   1.632  0.00  0.00    +0.124 A 
ATOM     16  C   UNL     1      -7.479  -2.324   1.472  0.00  0.00    +0.057 A 
ATOM     17  C   UNL     1      -8.479  -1.375   1.697  0.00  0.00    +0.061 A 
ATOM     18  N   UNL     1      -9.588  -2.016   1.965  0.00  0.00    -0.175 NA
ATOM     19  N   UNL     1      -9.403  -3.287   1.930  0.00  0.00    -0.254 N 
ATOM     20  C   UNL     1      -8.310   0.121   1.641  0.00  0.00    +0.067 C 
BRANCH  19  21
ATOM     21  C   UNL     1     -10.435  -4.297   2.175  0.00  0.00    +0.056 C 
ATOM     22  C   UNL     1     -10.079  -5.096   3.431  0.00  0.00    +0.036 C 
ATOM     23  C   UNL     1     -11.786  -3.607   2.377  0.00  0.00    +0.036 C 
ATOM     24  C   UNL     1     -10.520  -5.243   0.976  0.00  0.00    +0.036 C 
ENDBRANCH  19  21
ENDBRANCH  11  15
BRANCH   1  26
ATOM     25  N   UNL     1      -2.667  -3.887  -2.074  0.00  0.00    -0.315 N 
ATOM     26  C   UNL     1      -3.249  -4.038  -0.868  0.00  0.00    +0.218 C 
ATOM     27  O   UNL     1      -2.620  -3.803   0.142  0.00  0.00    -0.275 OA
ATOM     28  H   UNL     1      -3.145  -4.144  -2.878  0.00  0.00    +0.149 HD
BRANCH  25  29
ATOM     29  C   UNL     1      -1.314  -3.334  -2.171  0.00  0.00    +0.107 C 
BRANCH  29  30
ATOM     30  C   UNL     1      -0.893  -3.269  -3.640  0.00  0.00    +0.003 C 
ATOM     31  C   UNL     1      -1.790  -2.277  -4.384  0.00  0.00    +0.009 C 
BRANCH  30  33
ATOM     32  C   UNL     1       1.022  -2.864  -5.193  0.00  0.00    +0.004 C 
ATOM     33  C   UNL     1       0.563  -2.810  -3.734  0.00  0.00    +0.001 C 
ENDBRANCH  30  33
ENDBRANCH  29  30
ENDBRANCH  25  29
ENDBRANCH   1  26
TORSDOF 6
