REMARK  Name = ZINC13186890
REMARK  5 active torsions:
REMARK  status: ('A' for Active; 'I' for Inactive)
REMARK    1  A    between atoms: C_6  and  S_7
REMARK    2  A    between atoms: S_7  and  N_10
REMARK    3  A    between atoms: C_13  and  C_16
REMARK    4  A    between atoms: N_18  and  C_19
REMARK    5  A    between atoms: C_24  and  C_25
REMARK                            x       y       z     vdW  Elec       q    Type
REMARK                         _______ _______ _______ _____ _____    ______ ____
ROOT
ATOM      1  N   UNL     1       4.314  -1.057  -1.622  0.00  0.00    -0.177 NA
ATOM      2  C   UNL     1       3.879  -2.266  -2.335  0.00  0.00    +0.110 C 
ATOM      3  C   UNL     1       3.164  -1.840  -3.627  0.00  0.00    +0.030 C 
ATOM      4  C   UNL     1       4.088  -0.930  -4.438  0.00  0.00    +0.078 C 
ATOM      5  C   UNL     1       4.407   0.329  -3.628  0.00  0.00    +0.030 C 
ATOM      6  C   UNL     1       5.132  -0.070  -2.338  0.00  0.00    +0.110 C 
ENDROOT
BRANCH   4   7
ATOM      7  C   UNL     1       3.406  -0.539  -5.724  0.00  0.00    +0.220 C 
ATOM      8  O   UNL     1       3.195   0.630  -5.968  0.00  0.00    -0.275 OA
ATOM      9  N   UNL     1       3.029  -1.489  -6.602  0.00  0.00    -0.285 N 
ATOM     10  H   UNL     1       3.268  -2.416  -6.446  0.00  0.00    +0.155 HD
BRANCH   9  11
ATOM     11  C   UNL     1       2.297  -1.140  -7.734  0.00  0.00    +0.049 A 
ATOM     12  C   UNL     1       1.516   0.007  -7.733  0.00  0.00    +0.044 A 
ATOM     13  C   UNL     1       0.790   0.352  -8.857  0.00  0.00    +0.043 A 
ATOM     14  C   UNL     1       0.836  -0.443  -9.993  0.00  0.00    +0.021 A 
ATOM     15  C   UNL     1       1.605  -1.585 -10.012  0.00  0.00    +0.018 A 
ATOM     16  C   UNL     1       2.349  -1.943  -8.884  0.00  0.00    +0.084 A 
ATOM     17 CL   UNL     1      -0.184   1.789  -8.848  0.00  0.00    -0.083 Cl
BRANCH  16  18
ATOM     18  C   UNL     1       3.179  -3.160  -8.900  0.00  0.00    +0.388 C 
ATOM     19  O   UNL     1       3.749  -3.520  -7.889  0.00  0.00    -0.241 OA
ATOM     20  O   UNL     1       3.306  -3.874 -10.036  0.00  0.00    -0.241 OA
ENDBRANCH  16  18
ENDBRANCH   9  11
ENDBRANCH   4   7
BRANCH   1  21
ATOM     21  S   UNL     1       3.894  -0.816  -0.038  0.00  0.00    +0.061 S 
ATOM     22  O   UNL     1       4.868   0.061   0.511  0.00  0.00    -0.153 OA
ATOM     23  O   UNL     1       3.629  -2.099   0.512  0.00  0.00    -0.153 OA
BRANCH  21  29
ATOM     24  C   UNL     1       1.171  -0.635  -0.028  0.00  0.00    +0.031 A 
ATOM     25  C   UNL     1      -0.029   0.051  -0.023  0.00  0.00    +0.042 A 
ATOM     26  C   UNL     1      -0.034   1.435  -0.022  0.00  0.00    +0.142 A 
ATOM     27  C   UNL     1       1.164   2.132  -0.024  0.00  0.00    +0.078 A 
ATOM     28  C   UNL     1       2.363   1.443  -0.029  0.00  0.00    +0.051 A 
ATOM     29  C   UNL     1       2.366   0.060  -0.031  0.00  0.00    +0.107 A 
ATOM     30 CL   UNL     1       1.159   3.868  -0.023  0.00  0.00    -0.081 Cl
ATOM     31  F   UNL     1      -1.207   2.106  -0.023  0.00  0.00    -0.204 F 
ENDBRANCH  21  29
ENDBRANCH   1  21
TORSDOF 5
