REMARK  Name = ZINC04040180
REMARK  8 active torsions:
REMARK  status: ('A' for Active; 'I' for Inactive)
REMARK    1  A    between atoms: C_1  and  C_2
REMARK    2  A    between atoms: C_2  and  O_3
REMARK    3  A    between atoms: O_3  and  C_4
REMARK    4  A    between atoms: C_6  and  C_11
REMARK    5  A    between atoms: C_9  and  O_10
REMARK    6  A    between atoms: C_14  and  C_29
REMARK    7  A    between atoms: N_21  and  C_22
REMARK    8  A    between atoms: C_25  and  C_28
REMARK                            x       y       z     vdW  Elec       q    Type
REMARK                         _______ _______ _______ _____ _____    ______ ____
ROOT
ATOM      1  C   UNL     1      -0.229  -4.969   0.477  0.00  0.00    +0.146 C 
ATOM      2  C   UNL     1      -1.549  -5.511   0.002  0.00  0.00    +0.030 A 
ATOM      3  C   UNL     1      -2.852  -5.239  -0.396  0.00  0.00    +0.066 A 
ATOM      4  N   UNL     1      -3.427  -6.381  -0.684  0.00  0.00    -0.178 NA
ATOM      5  N   UNL     1      -2.613  -7.361  -0.508  0.00  0.00    -0.272 N 
ATOM      6  H   UNL     1      -2.823  -8.296  -0.659  0.00  0.00    +0.189 HD
ATOM      7  C   UNL     1      -1.409  -6.885  -0.075  0.00  0.00    +0.126 A 
ATOM      8  C   UNL     1      -0.046  -7.239   0.334  0.00  0.00    +0.270 C 
ATOM      9  O   UNL     1       0.394  -8.372   0.375  0.00  0.00    -0.268 OA
ATOM     10  N   UNL     1       0.648  -6.132   0.659  0.00  0.00    -0.255 N 
ATOM     11  C   UNL     1      -3.490  -3.877  -0.480  0.00  0.00    +0.068 C 
ENDROOT
BRANCH  10  12
ATOM     12  C   UNL     1       1.977  -6.096   1.093  0.00  0.00    +0.038 A 
ATOM     13  C   UNL     1       2.576  -4.881   1.402  0.00  0.00    +0.024 A 
ATOM     14  C   UNL     1       3.888  -4.849   1.831  0.00  0.00    +0.005 A 
ATOM     15  C   UNL     1       4.606  -6.024   1.952  0.00  0.00    -0.050 A 
ATOM     16  C   UNL     1       4.013  -7.235   1.646  0.00  0.00    +0.005 A 
ATOM     17  C   UNL     1       2.700  -7.275   1.223  0.00  0.00    +0.024 A 
ATOM     18  C   UNL     1       6.039  -5.985   2.420  0.00  0.00    +0.044 C 
ENDBRANCH  10  12
BRANCH   1  21
ATOM     19  C   UNL     1       0.777  -1.811  -1.336  0.00  0.00    +0.162 A 
ATOM     20  C   UNL     1       0.243  -2.669  -0.388  0.00  0.00    +0.055 A 
ATOM     21  C   UNL     1       0.352  -4.037  -0.555  0.00  0.00    -0.018 A 
ATOM     22  C   UNL     1       0.992  -4.552  -1.667  0.00  0.00    +0.009 A 
ATOM     23  C   UNL     1       1.526  -3.702  -2.616  0.00  0.00    +0.049 A 
ATOM     24  C   UNL     1       1.416  -2.330  -2.458  0.00  0.00    +0.158 A 
BRANCH  24  25
ATOM     25  O   UNL     1       1.936  -1.492  -3.394  0.00  0.00    -0.503 OA
ATOM     26  H   UNL     1       2.856  -1.241  -3.231  0.00  0.00    +0.292 HD
ENDBRANCH  24  25
BRANCH  19  27
ATOM     27  O   UNL     1       0.671  -0.465  -1.174  0.00  0.00    -0.489 OA
BRANCH  27  29
ATOM     28  C   UNL     1      -0.019   1.526   0.010  0.00  0.00    +0.048 C 
ATOM     29  C   UNL     1       0.002  -0.004   0.002  0.00  0.00    +0.226 C 
ENDBRANCH  27  29
ENDBRANCH  19  27
ENDBRANCH   1  21
TORSDOF 5
