REMARK  Name = ZINC13417860
REMARK  7 active torsions:
REMARK  status: ('A' for Active; 'I' for Inactive)
REMARK    1  A    between atoms: C_1  and  C_2
REMARK    2  A    between atoms: C_8  and  C_16
REMARK    3  A    between atoms: C_12  and  C_13
REMARK    4  A    between atoms: C_16  and  S_17
REMARK    5  A    between atoms: S_17  and  C_18
REMARK    6  A    between atoms: C_21  and  C_24
REMARK    7  A    between atoms: N_22  and  C_23
REMARK                            x       y       z     vdW  Elec       q    Type
REMARK                         _______ _______ _______ _____ _____    ______ ____
ROOT
ATOM      1  S   UNL     1       0.052  -5.036  -3.985  0.00  0.00    -0.078 S 
ENDROOT
BRANCH   1   2
ATOM      2  C   UNL     1       0.057  -5.993  -5.464  0.00  0.00    +0.192 A 
ATOM      3  N   UNL     1       0.050  -5.531  -6.693  0.00  0.00    -0.122 NA
ATOM      4  N   UNL     1       0.057  -6.509  -7.527  0.00  0.00    -0.130 NA
ATOM      5  C   UNL     1       0.069  -7.643  -6.886  0.00  0.00    +0.178 A 
ATOM      6  N   UNL     1       0.076  -7.356  -5.550  0.00  0.00    -0.306 N 
ATOM      7  C   UNL     1       0.095  -8.311  -4.439  0.00  0.00    +0.153 C 
BRANCH   5   8
ATOM      8  C   UNL     1       0.080  -9.018  -7.504  0.00  0.00    +0.278 C 
ATOM      9  C   UNL     1       1.474  -9.318  -8.073  0.00  0.00    +0.281 C 
ATOM     10  O   UNL     1       1.446 -10.622  -8.664  0.00  0.00    -0.484 OA
ATOM     11  C   UNL     1       0.387 -10.905  -9.470  0.00  0.00    +0.162 A 
ATOM     12  C   UNL     1       0.466 -11.977 -10.347  0.00  0.00    +0.049 A 
ATOM     13  C   UNL     1      -0.602 -12.279 -11.170  0.00  0.00    +0.004 A 
ATOM     14  C   UNL     1      -1.752 -11.514 -11.122  0.00  0.00    +0.004 A 
ATOM     15  C   UNL     1      -1.838 -10.443 -10.253  0.00  0.00    +0.049 A 
ATOM     16  C   UNL     1      -0.769 -10.134  -9.425  0.00  0.00    +0.163 A 
ATOM     17  O   UNL     1      -0.865  -9.072  -8.579  0.00  0.00    -0.474 OA
ENDBRANCH   5   8
ENDBRANCH   1   2
BRANCH   1  18
ATOM     18  C   UNL     1       0.025  -3.320  -4.573  0.00  0.00    +0.151 C 
BRANCH  18  26
ATOM     19  C   UNL     1      -0.018   1.503   0.010  0.00  0.00    +0.046 C 
ATOM     20  C   UNL     1       0.002  -0.004   0.002  0.00  0.00    -0.015 A 
ATOM     21  C   UNL     1       0.005  -0.700  -1.207  0.00  0.00    +0.076 A 
ATOM     22  C   UNL     1      -0.009  -0.168  -2.590  0.00  0.00    +0.260 A 
ATOM     23  O   UNL     1      -0.026   1.032  -2.798  0.00  0.00    -0.267 OA
ATOM     24  N   UNL     1      -0.002  -1.047  -3.611  0.00  0.00    -0.310 N 
ATOM     25  H   UNL     1      -0.010  -0.716  -4.523  0.00  0.00    +0.170 HD
ATOM     26  C   UNL     1       0.018  -2.385  -3.391  0.00  0.00    +0.121 A 
ATOM     27  N   UNL     1       0.031  -2.886  -2.186  0.00  0.00    -0.226 NA
ATOM     28  C   UNL     1       0.026  -2.110  -1.109  0.00  0.00    +0.116 A 
ATOM     29  S   UNL     1       0.038  -2.402   0.641  0.00  0.00    -0.062 S 
ATOM     30  C   UNL     1       0.023  -0.703   1.188  0.00  0.00    +0.106 A 
BRANCH  30  31
ATOM     31  C   UNL     1       0.029  -0.199   2.513  0.00  0.00    +0.393 C 
ATOM     32  O   UNL     1       0.015   1.010   2.709  0.00  0.00    -0.240 OA
ATOM     33  O   UNL     1       0.050  -0.973   3.463  0.00  0.00    -0.240 OA
ENDBRANCH  30  31
ENDBRANCH  18  26
ENDBRANCH   1  18
TORSDOF 5
