REMARK  Name = ZINC22607079
REMARK  7 active torsions:
REMARK  status: ('A' for Active; 'I' for Inactive)
REMARK    1  A    between atoms: C_1  and  O_2
REMARK    2  A    between atoms: O_2  and  C_3
REMARK    3  A    between atoms: C_5  and  C_13
REMARK    4  A    between atoms: C_6  and  O_11
REMARK    5  A    between atoms: C_8  and  O_9
REMARK    6  A    between atoms: O_9  and  C_10
REMARK    7  A    between atoms: O_11  and  C_12
REMARK                            x       y       z     vdW  Elec       q    Type
REMARK                         _______ _______ _______ _____ _____    ______ ____
ROOT
ATOM      1  C   UNL     1       2.462   0.338   4.203  0.00  0.00    +0.096 C 
ATOM      2  C   UNL     1       1.398   1.161   4.867  0.00  0.00    +0.069 A 
ATOM      3  C   UNL     1       1.263   2.486   4.589  0.00  0.00    +0.112 A 
ATOM      4  N   UNL     1       0.274   3.204   5.209  0.00  0.00    -0.315 N 
ATOM      5  C   UNL     1      -0.560   2.593   6.095  0.00  0.00    +0.200 A 
ATOM      6  N   UNL     1      -0.437   1.314   6.375  0.00  0.00    -0.177 NA
ATOM      7  C   UNL     1       0.515   0.567   5.794  0.00  0.00    +0.280 A 
ATOM      8  O   UNL     1       0.618  -0.620   6.067  0.00  0.00    -0.265 OA
ATOM      9  N   UNL     1      -1.544   3.324   6.705  0.00  0.00    -0.301 N 
ATOM     10  C   UNL     1      -2.531   2.671   7.576  0.00  0.00    +0.108 C 
ATOM     11  C   UNL     1      -2.541   3.384   8.932  0.00  0.00    +0.019 C 
ATOM     12  C   UNL     1      -2.785   4.879   8.716  0.00  0.00    +0.003 C 
ATOM     13  C   UNL     1      -1.653   5.466   7.870  0.00  0.00    +0.019 C 
ATOM     14  C   UNL     1      -1.630   4.777   6.506  0.00  0.00    +0.108 C 
ATOM     15  N   UNL     1       2.113   3.096   3.697  0.00  0.00    -0.304 N 
ATOM     16  C   UNL     1       3.314   2.524   3.376  0.00  0.00    +0.017 C 
ATOM     17  C   UNL     1       3.531   1.212   3.597  0.00  0.00    +0.024 C 
ATOM     18  C   UNL     1       4.761   0.617   3.266  0.00  0.00    +0.162 C 
ATOM     19  O   UNL     1       4.932  -0.565   3.492  0.00  0.00    -0.292 OA
ATOM     20  C   UNL     1       5.870   1.415   2.636  0.00  0.00    +0.080 C 
ATOM     21  C   UNL     1       5.259   2.570   1.835  0.00  0.00    +0.014 C 
ATOM     22  C   UNL     1       4.386   3.399   2.774  0.00  0.00    +0.051 C 
ATOM     23  H   UNL     1       1.859   3.940   3.291  0.00  0.00    +0.153 HD
ATOM     24  H   UNL     1       0.169   4.149   5.016  0.00  0.00    +0.170 HD
ENDROOT
BRANCH   1  27
ATOM     25  C   UNL     1       0.613  -0.652   1.061  0.00  0.00    +0.162 A 
ATOM     26  C   UNL     1       1.191   0.115   2.059  0.00  0.00    +0.057 A 
ATOM     27  C   UNL     1       1.834  -0.498   3.118  0.00  0.00    +0.010 A 
ATOM     28  C   UNL     1       1.903  -1.882   3.183  0.00  0.00    +0.128 A 
ATOM     29  C   UNL     1       1.327  -2.653   2.185  0.00  0.00    +0.095 A 
ATOM     30  C   UNL     1       0.676  -2.040   1.126  0.00  0.00    +0.165 A 
BRANCH  25  32
ATOM     31  C   UNL     1      -0.046   1.381   0.016  0.00  0.00    +0.277 C 
ATOM     32  O   UNL     1      -0.020  -0.048   0.019  0.00  0.00    -0.491 OA
ENDBRANCH  25  32
BRANCH  30  33
ATOM     33  O   UNL     1       0.105  -2.795   0.150  0.00  0.00    -0.491 OA
ATOM     34  C   UNL     1       0.208  -4.214   0.282  0.00  0.00    +0.277 C 
ENDBRANCH  30  33
BRANCH  28  35
ATOM     35  O   UNL     1       2.537  -2.483   4.225  0.00  0.00    -0.495 OA
ATOM     36  C   UNL     1       2.571  -3.911   4.228  0.00  0.00    +0.277 C 
ENDBRANCH  28  35
ENDBRANCH   1  27
TORSDOF 4
