REMARK  Name = ZINC12470774
REMARK  7 active torsions:
REMARK  status: ('A' for Active; 'I' for Inactive)
REMARK    1  A    between atoms: C_1  and  O_2
REMARK    2  A    between atoms: O_2  and  C_3
REMARK    3  A    between atoms: C_7  and  C_9
REMARK    4  A    between atoms: C_9  and  N_58
REMARK    5  A    between atoms: C_10  and  N_58
REMARK    6  A    between atoms: N_21  and  C_24
REMARK    7  A    between atoms: C_24  and  C_25
REMARK                            x       y       z     vdW  Elec       q    Type
REMARK                         _______ _______ _______ _____ _____    ______ ____
ROOT
ATOM      1  C   UNL     1      -7.417   3.187   5.976  0.00  0.00    -0.066 C 
ATOM      2  C   UNL     1      -6.345   3.794   5.066  0.00  0.00    -0.011 C 
ATOM      3  C   UNL     1      -6.151   2.912   3.832  0.00  0.00    +0.035 C 
ATOM      4  C   UNL     1      -5.894   1.478   4.287  0.00  0.00    -0.023 A 
ATOM      5  C   UNL     1      -6.226   1.080   5.534  0.00  0.00    -0.006 A 
ATOM      6  S   UNL     1      -5.753  -0.627   5.612  0.00  0.00    -0.073 S 
ATOM      7  C   UNL     1      -5.111  -0.800   3.966  0.00  0.00    +0.116 A 
ATOM      8  C   UNL     1      -5.286   0.477   3.411  0.00  0.00    +0.076 A 
ATOM      9  C   UNL     1      -4.845   0.631   2.056  0.00  0.00    +0.263 A 
ATOM     10  O   UNL     1      -4.954   1.702   1.486  0.00  0.00    -0.267 OA
ATOM     11  N   UNL     1      -4.307  -0.429   1.424  0.00  0.00    -0.294 N 
ATOM     12  C   UNL     1      -4.182  -1.632   2.041  0.00  0.00    +0.203 A 
ATOM     13  N   UNL     1      -4.570  -1.801   3.277  0.00  0.00    -0.230 NA
ATOM     14  C   UNL     1      -6.856   1.907   6.612  0.00  0.00    +0.027 C 
ENDROOT
BRANCH   1  15
ATOM     15  N   UNL     1      -7.763   4.155   7.034  0.00  0.00    +0.384 N 
ATOM     16  H   UNL     1      -7.088   4.073   7.803  0.00  0.00    -0.085 HD
ATOM     17  H   UNL     1      -7.727   5.106   6.648  0.00  0.00    -0.085 HD
BRANCH  15  18
ATOM     18  C   UNL     1      -9.120   3.889   7.548  0.00  0.00    -0.046 C 
BRANCH  18  23
ATOM     19  C   UNL     1      -9.438   5.537  10.933  0.00  0.00    +0.120 A 
ATOM     20  C   UNL     1     -10.046   6.738  10.598  0.00  0.00    +0.045 A 
ATOM     21  C   UNL     1     -10.352   7.012   9.279  0.00  0.00    +0.004 A 
ATOM     22  C   UNL     1     -10.052   6.090   8.293  0.00  0.00    +0.002 A 
ATOM     23  C   UNL     1      -9.446   4.892   8.624  0.00  0.00    -0.061 A 
ATOM     24  C   UNL     1      -9.143   4.611   9.943  0.00  0.00    +0.047 A 
BRANCH  19  26
ATOM     25  C   UNL     1      -9.475   6.261  13.197  0.00  0.00    +0.277 C 
ATOM     26  O   UNL     1      -9.137   5.265  12.230  0.00  0.00    -0.495 OA
ENDBRANCH  19  26
ENDBRANCH  18  23
ENDBRANCH  15  18
ENDBRANCH   1  15
BRANCH  11  27
ATOM     27  C   UNL     1      -3.852  -0.283   0.039  0.00  0.00    +0.168 C 
BRANCH  27  28
ATOM     28  C   UNL     1      -2.407   0.145   0.027  0.00  0.00    +0.011 A 
ATOM     29  C   UNL     1      -1.313  -0.629   0.012  0.00  0.00    +0.021 A 
ATOM     30  C   UNL     1       0.002  -0.004   0.002  0.00  0.00    -0.010 A 
ATOM     31  C   UNL     1       1.276  -0.621  -0.013  0.00  0.00    +0.009 A 
ATOM     32  C   UNL     1       2.410   0.128  -0.020  0.00  0.00    +0.001 A 
ATOM     33  C   UNL     1       2.364   1.516  -0.012  0.00  0.00    +0.001 A 
ATOM     34  C   UNL     1       1.141   2.156   0.003  0.00  0.00    +0.015 A 
ATOM     35  C   UNL     1      -0.017   1.407   0.010  0.00  0.00    +0.020 A 
ATOM     36  S   UNL     1      -1.747   1.801   0.036  0.00  0.00    -0.091 S 
ENDBRANCH  27  28
ENDBRANCH  11  27
TORSDOF 6
