REMARK  Name = ZINC28824564
REMARK  8 active torsions:
REMARK  status: ('A' for Active; 'I' for Inactive)
REMARK    1  A    between atoms: C_1  and  N_2
REMARK    2  A    between atoms: N_2  and  C_3
REMARK    3  A    between atoms: C_4  and  C_6
REMARK    4  A    between atoms: C_6  and  C_8
REMARK    5  A    between atoms: C_6  and  C_24
REMARK    6  A    between atoms: C_11  and  C_14
REMARK    7  A    between atoms: C_24  and  C_26
REMARK    8  A    between atoms: C_24  and  N_35
REMARK                            x       y       z     vdW  Elec       q    Type
REMARK                         _______ _______ _______ _____ _____    ______ ____
ROOT
ATOM      1  C   UNL     1      -1.957  -0.798   1.119  0.00  0.00    +0.072 C 
ENDROOT
BRANCH   1   2
ATOM      2  C   UNL     1      -2.157   0.616   0.571  0.00  0.00    -0.000 C 
ATOM      3  C   UNL     1      -0.800   1.311   0.445  0.00  0.00    +0.004 C 
ATOM      4  C   UNL     1       0.093   0.516  -0.510  0.00  0.00    +0.004 C 
ATOM      5  C   UNL     1      -0.571   0.440  -1.886  0.00  0.00    -0.006 C 
ATOM      6  C   UNL     1      -1.929  -0.254  -1.759  0.00  0.00    +0.004 C 
ATOM      7  C   UNL     1      -2.822   0.541  -0.805  0.00  0.00    +0.004 C 
BRANCH   5   8
ATOM      8  C   UNL     1       0.322  -0.355  -2.840  0.00  0.00    +0.014 C 
ATOM      9  C   UNL     1       1.680   0.340  -2.967  0.00  0.00    +0.013 C 
ATOM     10  C   UNL     1       2.646  -0.572  -3.735  0.00  0.00    +0.074 C 
ATOM     11  C   UNL     1       1.946  -1.056  -4.981  0.00  0.00    +0.105 A 
ATOM     12  N   UNL     1       2.479  -1.604  -6.037  0.00  0.00    -0.333 N 
ATOM     13  C   UNL     1       1.525  -1.891  -6.925  0.00  0.00    +0.220 A 
ATOM     14  N   UNL     1       0.365  -1.526  -6.439  0.00  0.00    -0.160 NA
ATOM     15  N   UNL     1       0.615  -0.982  -5.176  0.00  0.00    -0.251 N 
ATOM     16  C   UNL     1      -0.344  -0.431  -4.219  0.00  0.00    +0.149 C 
ATOM     17  H   UNL     1       3.566  -1.760  -6.086  0.00  0.00    +0.168 HD
ENDBRANCH   5   8
ENDBRANCH   1   2
BRANCH   1  21
ATOM     18  C   UNL     1      -4.493  -3.655   0.908  0.00  0.00    +0.131 C 
ATOM     19  N   UNL     1      -3.252  -2.906   1.118  0.00  0.00    -0.307 N 
ATOM     20  C   UNL     1      -2.009  -3.617   1.427  0.00  0.00    +0.131 C 
ATOM     21  C   UNL     1      -3.253  -1.561   1.026  0.00  0.00    +0.217 C 
ATOM     22  O   UNL     1      -4.298  -0.965   0.868  0.00  0.00    -0.275 OA
ENDBRANCH   1  21
BRANCH   1  23
ATOM     23  C   UNL     1      -1.516  -0.720   2.582  0.00  0.00    +0.025 C 
BRANCH  23  24
ATOM     24  C   UNL     1      -0.172  -0.042   2.667  0.00  0.00    +0.202 C 
ATOM     25  O   UNL     1      -0.088   1.083   3.110  0.00  0.00    -0.277 OA
ATOM     26  N   UNL     1       0.935  -0.686   2.248  0.00  0.00    -0.297 N 
ATOM     27  C   UNL     1       0.966  -2.012   1.605  0.00  0.00    +0.114 C 
ATOM     28  C   UNL     1       2.285  -2.023   0.787  0.00  0.00    +0.096 C 
ATOM     29  C   UNL     1       3.240  -1.245   1.732  0.00  0.00    +0.266 C 
ATOM     30  C   UNL     1       2.313  -0.186   2.365  0.00  0.00    +0.183 C 
ATOM     31  F   UNL     1       4.266  -0.633   1.004  0.00  0.00    -0.204 F 
ATOM     32  F   UNL     1       3.765  -2.094   2.713  0.00  0.00    -0.204 F 
ENDBRANCH  23  24
BRANCH  23  33
ATOM     33  N   UNL     1      -2.502   0.050   3.351  0.00  0.00    +0.386 N 
ATOM     34  H   UNL     1      -2.185   0.106   4.403  0.00  0.00    -0.089 HD
ATOM     35  H   UNL     1      -3.482  -0.445   3.290  0.00  0.00    -0.089 HD
ATOM     36  H   UNL     1      -2.578   1.066   2.937  0.00  0.00    -0.089 HD
ENDBRANCH  23  33
ENDBRANCH   1  23
TORSDOF 6
