REMARK  Name = ZINC02693697
REMARK  8 active torsions:
REMARK  status: ('A' for Active; 'I' for Inactive)
REMARK    1  A    between atoms: C_1  and  C_2
REMARK    2  A    between atoms: C_2  and  C_3
REMARK    3  A    between atoms: C_6  and  S_9
REMARK    4  A    between atoms: S_9  and  C_12
REMARK    5  A    between atoms: N_25  and  C_26
REMARK    6  A    between atoms: C_26  and  C_27
REMARK    7  A    between atoms: C_27  and  N_28
REMARK    8  A    between atoms: C_29  and  C_31
REMARK                            x       y       z     vdW  Elec       q    Type
REMARK                         _______ _______ _______ _____ _____    ______ ____
ROOT
ATOM      1  C   UNL     1      -6.731  -0.695   0.056  0.00  0.00    +0.249 A 
ATOM      2  C   UNL     1      -7.209  -0.052   1.184  0.00  0.00    +0.204 A 
ATOM      3  N   UNL     1      -7.021  -0.274   2.497  0.00  0.00    -0.209 NA
ATOM      4  C   UNL     1      -7.585   0.478   3.418  0.00  0.00    +0.130 A 
ATOM      5  C   UNL     1      -8.446   1.593   2.999  0.00  0.00    +0.040 A 
ATOM      6  C   UNL     1      -9.071   2.426   3.927  0.00  0.00    +0.013 A 
ATOM      7  C   UNL     1      -9.868   3.458   3.485  0.00  0.00    +0.001 A 
ATOM      8  C   UNL     1     -10.052   3.673   2.126  0.00  0.00    +0.002 A 
ATOM      9  C   UNL     1      -9.441   2.858   1.197  0.00  0.00    +0.028 A 
ATOM     10  C   UNL     1      -8.633   1.813   1.622  0.00  0.00    +0.080 A 
ATOM     11  N   UNL     1      -7.999   0.970   0.728  0.00  0.00    -0.192 N 
ATOM     12  N   UNL     1      -7.967   0.904  -0.671  0.00  0.00    -0.057 NA
ATOM     13  N   UNL     1      -7.211  -0.078  -1.017  0.00  0.00    -0.108 NA
ATOM     14  N   UNL     1      -7.372   0.223   4.757  0.00  0.00    -0.327 N 
ATOM     15  H   UNL     1      -7.791   0.781   5.430  0.00  0.00    +0.148 HD
ENDROOT
BRANCH   1  16
ATOM     16  S   UNL     1      -5.658  -2.093   0.045  0.00  0.00    +0.047 S 
ATOM     17  O   UNL     1      -5.858  -2.749  -1.200  0.00  0.00    -0.163 OA
ATOM     18  O   UNL     1      -5.838  -2.753   1.291  0.00  0.00    -0.163 OA
BRANCH  16  22
ATOM     19  C   UNL     1      -1.412  -0.526   0.013  0.00  0.00    -0.048 A 
ATOM     20  C   UNL     1      -2.051  -0.766   1.215  0.00  0.00    +0.005 A 
ATOM     21  C   UNL     1      -3.348  -1.244   1.225  0.00  0.00    +0.028 A 
ATOM     22  C   UNL     1      -4.006  -1.482   0.032  0.00  0.00    +0.095 A 
ATOM     23  C   UNL     1      -3.367  -1.241  -1.170  0.00  0.00    +0.028 A 
ATOM     24  C   UNL     1      -2.072  -0.758  -1.179  0.00  0.00    +0.005 A 
BRANCH  19  26
ATOM     25  C   UNL     1      -0.019   1.526   0.010  0.00  0.00    +0.009 C 
ATOM     26  C   UNL     1       0.002  -0.004   0.002  0.00  0.00    +0.032 C 
ENDBRANCH  19  26
ENDBRANCH  16  22
ENDBRANCH   1  16
BRANCH  14  27
ATOM     27  C   UNL     1      -6.512  -0.892   5.163  0.00  0.00    +0.121 C 
BRANCH  27  28
ATOM     28  C   UNL     1      -6.444  -0.954   6.690  0.00  0.00    +0.123 C 
BRANCH  28  29
ATOM     29  N   UNL     1      -5.584  -2.069   7.096  0.00  0.00    -0.314 N 
ATOM     30  C   UNL     1      -5.376  -2.318   8.404  0.00  0.00    +0.210 C 
ATOM     31  O   UNL     1      -5.900  -1.620   9.245  0.00  0.00    -0.276 OA
ATOM     32  C   UNL     1      -4.492  -3.465   8.821  0.00  0.00    +0.109 C 
ATOM     33  H   UNL     1      -5.165  -2.628   6.423  0.00  0.00    +0.149 HD
ENDBRANCH  28  29
ENDBRANCH  27  28
ENDBRANCH  14  27
TORSDOF 6
