REMARK  Name = ZINC23641685
REMARK  9 active torsions:
REMARK  status: ('A' for Active; 'I' for Inactive)
REMARK    1  A    between atoms: C_1  and  O_2
REMARK    2  A    between atoms: O_2  and  C_3
REMARK    3  A    between atoms: C_3  and  C_5
REMARK    4  A    between atoms: C_12  and  C_17
REMARK    5  A    between atoms: C_17  and  S_18
REMARK    6  A    between atoms: S_18  and  C_19
REMARK    7  A    between atoms: N_25  and  C_26
REMARK    8  A    between atoms: C_26  and  C_27
REMARK    9  A    between atoms: C_27  and  C_28
REMARK                            x       y       z     vdW  Elec       q    Type
REMARK                         _______ _______ _______ _____ _____    ______ ____
ROOT
ATOM      1  C   UNL     1       2.716  -6.705   4.446  0.00  0.00    +0.151 C 
ENDROOT
BRANCH   1   9
ATOM      2  C   UNL     1       0.680  -2.090   1.091  0.00  0.00    +0.061 A 
ATOM      3  C   UNL     1       0.096  -2.850   0.069  0.00  0.00    +0.016 A 
ATOM      4  C   UNL     1       0.141  -4.215   0.107  0.00  0.00    +0.016 A 
ATOM      5  C   UNL     1       0.773  -4.859   1.169  0.00  0.00    +0.065 A 
ATOM      6  C   UNL     1       1.366  -4.108   2.207  0.00  0.00    +0.079 A 
ATOM      7  C   UNL     1       1.319  -2.713   2.156  0.00  0.00    +0.043 A 
ATOM      8  N   UNL     1       1.973  -4.761   3.229  0.00  0.00    -0.233 NA
ATOM      9  C   UNL     1       2.022  -6.057   3.276  0.00  0.00    +0.121 A 
ATOM     10  N   UNL     1       1.480  -6.860   2.324  0.00  0.00    -0.310 N 
ATOM     11  H   UNL     1       1.547  -7.824   2.412  0.00  0.00    +0.170 HD
ATOM     12  C   UNL     1       0.846  -6.328   1.253  0.00  0.00    +0.259 A 
ATOM     13  O   UNL     1       0.355  -7.035   0.393  0.00  0.00    -0.267 OA
BRANCH   2  14
ATOM     14  C   UNL     1       0.620  -0.613   1.032  0.00  0.00    +0.339 C 
ATOM     15  O   UNL     1       1.129   0.051   1.913  0.00  0.00    -0.245 OA
BRANCH  14  17
ATOM     16  C   UNL     1      -0.017   1.425   0.010  0.00  0.00    +0.280 C 
ATOM     17  O   UNL     1       0.002  -0.004   0.002  0.00  0.00    -0.464 OA
ENDBRANCH  14  17
ENDBRANCH   2  14
ENDBRANCH   1   9
BRANCH   1  18
ATOM     18  S   UNL     1       3.346  -5.421   5.562  0.00  0.00    -0.078 S 
BRANCH  18  19
ATOM     19  C   UNL     1       4.120  -6.327   6.861  0.00  0.00    +0.192 A 
ATOM     20  N   UNL     1       4.195  -7.624   6.941  0.00  0.00    -0.145 NA
ATOM     21  N   UNL     1       4.885  -7.946   8.118  0.00  0.00    -0.226 N 
ATOM     22  H   UNL     1       5.090  -8.838   8.437  0.00  0.00    +0.194 HD
ATOM     23  C   UNL     1       5.212  -6.786   8.725  0.00  0.00    +0.345 A 
ATOM     24  O   UNL     1       5.818  -6.669   9.775  0.00  0.00    -0.245 OA
ATOM     25  N   UNL     1       4.750  -5.780   7.955  0.00  0.00    -0.270 N 
BRANCH  25  26
ATOM     26  C   UNL     1       4.891  -4.350   8.238  0.00  0.00    +0.133 C 
BRANCH  26  27
ATOM     27  C   UNL     1       3.695  -3.872   9.064  0.00  0.00    +0.057 C 
BRANCH  27  28
ATOM     28  C   UNL     1       3.841  -2.401   9.355  0.00  0.00    -0.046 A 
ATOM     29  C   UNL     1       4.505  -1.984  10.493  0.00  0.00    +0.004 A 
ATOM     30  C   UNL     1       4.638  -0.634  10.760  0.00  0.00    +0.000 A 
ATOM     31  C   UNL     1       4.108   0.299   9.889  0.00  0.00    +0.000 A 
ATOM     32  C   UNL     1       3.444  -0.118   8.750  0.00  0.00    +0.000 A 
ATOM     33  C   UNL     1       3.315  -1.468   8.481  0.00  0.00    +0.004 A 
ENDBRANCH  27  28
ENDBRANCH  26  27
ENDBRANCH  25  26
ENDBRANCH  18  19
ENDBRANCH   1  18
TORSDOF 8
