REMARK  Name = ZINC06015163
REMARK  10 active torsions:
REMARK  status: ('A' for Active; 'I' for Inactive)
REMARK    1  A    between atoms: C_1  and  C_2
REMARK    2  A    between atoms: C_2  and  C_3
REMARK    3  A    between atoms: C_2  and  O_4
REMARK    4  A    between atoms: O_4  and  C_5
REMARK    5  A    between atoms: C_8  and  C_13
REMARK    6  A    between atoms: C_10  and  O_11
REMARK    7  A    between atoms: O_11  and  C_12
REMARK    8  A    between atoms: C_16  and  C_27
REMARK    9  A    between atoms: C_22  and  N_26
REMARK   10  A    between atoms: C_23  and  C_24
REMARK                            x       y       z     vdW  Elec       q    Type
REMARK                         _______ _______ _______ _____ _____    ______ ____
ROOT
ATOM      1  C   UNL     1      -2.339  -5.229  -2.886  0.00  0.00    +0.103 C 
ATOM      2  C   UNL     1      -2.991  -6.249  -1.988  0.00  0.00    +0.054 A 
ATOM      3  C   UNL     1      -2.434  -6.994  -0.945  0.00  0.00    +0.100 A 
ATOM      4  N   UNL     1      -3.384  -7.759  -0.441  0.00  0.00    -0.171 NA
ATOM      5  N   UNL     1      -4.569  -7.520  -1.153  0.00  0.00    -0.246 N 
ATOM      6  H   UNL     1      -5.426  -7.946  -0.994  0.00  0.00    +0.192 HD
ATOM      7  C   UNL     1      -4.308  -6.592  -2.097  0.00  0.00    +0.223 A 
ATOM      8  O   UNL     1      -5.133  -6.045  -3.023  0.00  0.00    -0.423 OA
ATOM      9  C   UNL     1      -4.568  -5.344  -4.028  0.00  0.00    +0.200 C 
ATOM     10  C   UNL     1      -3.278  -4.938  -4.029  0.00  0.00    +0.098 C 
ENDROOT
BRANCH   1  14
ATOM     11  C   UNL     1      -1.580  -1.640  -0.687  0.00  0.00    +0.164 A 
ATOM     12  C   UNL     1      -0.532  -2.329  -1.276  0.00  0.00    +0.069 A 
ATOM     13  C   UNL     1      -0.780  -3.490  -1.986  0.00  0.00    +0.049 A 
ATOM     14  C   UNL     1      -2.073  -3.965  -2.110  0.00  0.00    -0.013 A 
ATOM     15  C   UNL     1      -3.123  -3.282  -1.525  0.00  0.00    +0.055 A 
ATOM     16  C   UNL     1      -2.880  -2.121  -0.807  0.00  0.00    +0.162 A 
ATOM     17 CL   UNL     1       0.534  -4.351  -2.724  0.00  0.00    -0.083 Cl
BRANCH  16  18
ATOM     18  O   UNL     1      -3.912  -1.452  -0.226  0.00  0.00    -0.491 OA
ATOM     19  C   UNL     1      -5.219  -2.004  -0.391  0.00  0.00    +0.277 C 
ENDBRANCH  16  18
BRANCH  11  20
ATOM     20  O   UNL     1      -1.339  -0.499   0.012  0.00  0.00    -0.486 OA
BRANCH  20  22
ATOM     21  C   UNL     1      -0.011   1.505   0.263  0.00  0.00    +0.051 C 
ATOM     22  C   UNL     1       0.001  -0.002  -0.000  0.00  0.00    +0.167 C 
ATOM     23  C   UNL     1       0.815  -0.703   1.089  0.00  0.00    +0.051 C 
ENDBRANCH  20  22
ENDBRANCH  11  20
ENDBRANCH   1  14
BRANCH   3  24
ATOM     24  C   UNL     1      -1.024  -6.935  -0.485  0.00  0.00    +0.003 A 
ATOM     25  C   UNL     1       0.002  -6.723  -1.403  0.00  0.00    +0.010 A 
ATOM     26  C   UNL     1       1.312  -6.670  -0.971  0.00  0.00    +0.001 A 
ATOM     27  C   UNL     1       1.606  -6.825   0.371  0.00  0.00    +0.000 A 
ATOM     28  C   UNL     1       0.591  -7.036   1.287  0.00  0.00    +0.001 A 
ATOM     29  C   UNL     1      -0.722  -7.086   0.867  0.00  0.00    +0.010 A 
ENDBRANCH   3  24
BRANCH   9  30
ATOM     30  N   UNL     1      -5.347  -5.027  -5.113  0.00  0.00    -0.328 N 
ATOM     31  H   UNL     1      -6.275  -5.305  -5.141  0.00  0.00    +0.145 HD
ATOM     32  H   UNL     1      -4.968  -4.524  -5.851  0.00  0.00    +0.145 HD
ENDBRANCH   9  30
BRANCH  10  33
ATOM     33  C   UNL     1      -2.786  -4.203  -5.156  0.00  0.00    +0.101 C 
ATOM     34  N   UNL     1      -2.396  -3.621  -6.050  0.00  0.00    -0.191 NA
ENDBRANCH  10  33
TORSDOF 7
