REMARK  Name = ZINC02253328
REMARK  8 active torsions:
REMARK  status: ('A' for Active; 'I' for Inactive)
REMARK    1  A    between atoms: C_1  and  C_2
REMARK    2  A    between atoms: C_2  and  C_3
REMARK    3  A    between atoms: C_8  and  N_9
REMARK    4  A    between atoms: C_10  and  N_33
REMARK    5  A    between atoms: C_11  and  C_22
REMARK    6  A    between atoms: N_24  and  C_25
REMARK    7  A    between atoms: C_25  and  C_26
REMARK    8  A    between atoms: C_29  and  C_32
REMARK                            x       y       z     vdW  Elec       q    Type
REMARK                         _______ _______ _______ _____ _____    ______ ____
ROOT
ATOM      1  N   UNL     1       1.888   6.591   5.041  0.00  0.00    -0.280 N 
ATOM      2  C   UNL     1       2.265   6.160   3.804  0.00  0.00    +0.117 A 
ATOM      3  C   UNL     1       1.147   5.877   3.027  0.00  0.00    +0.104 A 
ATOM      4  C   UNL     1      -0.028   6.150   3.870  0.00  0.00    +0.123 A 
ATOM      5  C   UNL     1       0.511   6.606   5.154  0.00  0.00    +0.166 A 
ATOM      6  N   UNL     1      -0.316   6.929   6.125  0.00  0.00    -0.225 NA
ATOM      7  C   UNL     1      -1.638   6.839   5.933  0.00  0.00    +0.092 A 
ATOM      8  C   UNL     1      -2.530   7.182   6.966  0.00  0.00    +0.030 A 
ATOM      9  C   UNL     1      -3.871   7.087   6.763  0.00  0.00    +0.002 A 
ATOM     10  C   UNL     1      -4.382   6.653   5.540  0.00  0.00    +0.002 A 
ATOM     11  C   UNL     1      -3.552   6.312   4.518  0.00  0.00    +0.030 A 
ATOM     12  C   UNL     1      -2.158   6.397   4.690  0.00  0.00    +0.090 A 
ATOM     13  N   UNL     1      -1.331   6.066   3.691  0.00  0.00    -0.241 NA
ENDROOT
BRANCH   1  19
ATOM     14  C   UNL     1       3.200   8.278   6.169  0.00  0.00    -0.024 A 
ATOM     15  C   UNL     1       4.071   8.640   7.178  0.00  0.00    +0.005 A 
ATOM     16  C   UNL     1       4.528   7.691   8.073  0.00  0.00    +0.000 A 
ATOM     17  C   UNL     1       4.110   6.377   7.965  0.00  0.00    +0.002 A 
ATOM     18  C   UNL     1       3.235   6.009   6.962  0.00  0.00    +0.026 A 
ATOM     19  C   UNL     1       2.775   6.960   6.061  0.00  0.00    +0.053 A 
BRANCH  14  21
ATOM     20  C   UNL     1       1.361   9.862   5.662  0.00  0.00    +0.009 C 
ATOM     21  C   UNL     1       2.708   9.312   5.189  0.00  0.00    +0.034 C 
ENDBRANCH  14  21
ENDBRANCH   1  19
BRANCH   3  22
ATOM     22  C   UNL     1       1.141   5.397   1.647  0.00  0.00    +0.250 C 
ATOM     23  O   UNL     1       1.122   6.193   0.725  0.00  0.00    -0.270 OA
ATOM     24  N   UNL     1       1.157   4.074   1.394  0.00  0.00    -0.307 N 
ATOM     25  H   UNL     1       1.172   3.440   2.128  0.00  0.00    +0.149 HD
BRANCH  24  26
ATOM     26  C   UNL     1       1.151   3.592   0.010  0.00  0.00    +0.139 C 
BRANCH  26  27
ATOM     27  C   UNL     1       1.171   2.086   0.002  0.00  0.00    -0.030 A 
ATOM     28  C   UNL     1      -0.017   1.378   0.010  0.00  0.00    +0.005 A 
ATOM     29  C   UNL     1       0.002  -0.004   0.002  0.00  0.00    +0.003 A 
ATOM     30  C   UNL     1       1.208  -0.679  -0.014  0.00  0.00    -0.050 A 
ATOM     31  C   UNL     1       2.396   0.029  -0.021  0.00  0.00    +0.003 A 
ATOM     32  C   UNL     1       2.377   1.411  -0.014  0.00  0.00    +0.005 A 
ATOM     33  C   UNL     1       1.229  -2.186  -0.022  0.00  0.00    +0.044 C 
ENDBRANCH  26  27
ENDBRANCH  24  26
ENDBRANCH   3  22
BRANCH   2  34
ATOM     34  N   UNL     1       3.563   6.029   3.384  0.00  0.00    -0.343 N 
ATOM     35  H   UNL     1       3.753   5.719   2.484  0.00  0.00    +0.144 HD
ATOM     36  H   UNL     1       4.292   6.247   3.986  0.00  0.00    +0.144 HD
ENDBRANCH   2  34
TORSDOF 6
