REMARK  Name = ZINC11865719
REMARK  9 active torsions:
REMARK  status: ('A' for Active; 'I' for Inactive)
REMARK    1  A    between atoms: C_1  and  C_2
REMARK    2  A    between atoms: C_4  and  C_7
REMARK    3  A    between atoms: C_12  and  O_18
REMARK    4  A    between atoms: O_18  and  C_19
REMARK    5  A    between atoms: C_19  and  C_20
REMARK    6  A    between atoms: N_22  and  CA_23
REMARK    7  A    between atoms: CA_23  and  CB_25
REMARK    8  A    between atoms: CA_23  and  C_36
REMARK    9  A    between atoms: CB_25  and  CG_26
REMARK                            x       y       z     vdW  Elec       q    Type
REMARK                         _______ _______ _______ _____ _____    ______ ____
ROOT
ATOM      1  C   UNK A   0      -1.262  -0.670   0.011  0.00  0.00    +0.324 C 
ENDROOT
BRANCH   1   2
ATOM      2  C   UNK A   0      -1.044  -2.161   0.000  0.00  0.00    +0.251 C 
ATOM      3  O   UNK A   0       0.082  -2.610  -0.013  0.00  0.00    -0.272 OA
ATOM      4  N   TRP A   1      -2.102  -2.997   0.006  0.00  0.00    -0.299 N 
ATOM      5  H   TRP A   1      -3.003  -2.638   0.017  0.00  0.00    +0.150 HD
BRANCH   4   6
ATOM      6  CA  TRP A   1      -1.891  -4.446  -0.004  0.00  0.00    +0.191 C 
BRANCH   6   7
ATOM      7  C   TRP A   1      -1.682  -4.933   1.407  0.00  0.00    +0.376 C 
ATOM      8  O   TRP A   1      -1.707  -4.149   2.326  0.00  0.00    -0.244 OA
ATOM      9  OXT TRP A   1      -1.468  -6.237   1.642  0.00  0.00    -0.244 OA
ENDBRANCH   6   7
BRANCH   6  10
ATOM     10  CB  TRP A   1      -3.116  -5.137  -0.605  0.00  0.00    +0.071 C 
BRANCH  10  11
ATOM     11  CG  TRP A   1      -3.253  -4.744  -2.054  0.00  0.00    -0.020 A 
ATOM     12  CD1 TRP A   1      -4.014  -3.752  -2.544  0.00  0.00    +0.087 A 
ATOM     13  NE1 TRP A   1      -3.884  -3.693  -3.905  0.00  0.00    -0.360 N 
ATOM     14  HE1 TRP A   1      -4.338  -3.058  -4.481  0.00  0.00    +0.165 HD
ATOM     15  CE2 TRP A   1      -3.015  -4.671  -4.335  0.00  0.00    +0.047 A 
ATOM     16  CD2 TRP A   1      -2.577  -5.368  -3.194  0.00  0.00    +0.003 A 
ATOM     17  CE3 TRP A   1      -1.673  -6.423  -3.327  0.00  0.00    +0.010 A 
ATOM     18  CZ3 TRP A   1      -1.215  -6.772  -4.566  0.00  0.00    +0.001 A 
ATOM     19  CH2 TRP A   1      -1.641  -6.085  -5.694  0.00  0.00    +0.002 A 
ATOM     20  CZ2 TRP A   1      -2.539  -5.045  -5.587  0.00  0.00    +0.026 A 
ENDBRANCH  10  11
ENDBRANCH   6  10
ENDBRANCH   4   6
ENDBRANCH   1   2
BRANCH   1  21
ATOM     21  O   UNK A   0       0.002  -0.004   0.002  0.00  0.00    -0.483 OA
BRANCH  21  27
ATOM     22  C   UNK A   0       1.244   6.249   0.025  0.00  0.00    +0.083 A 
ATOM     23  C   UNK A   0       2.361   5.478   0.010  0.00  0.00    +0.209 A 
ATOM     24  O   UNK A   0       2.313   4.143   0.003  0.00  0.00    -0.462 OA
ATOM     25  C   UNK A   0       1.161   3.444   0.009  0.00  0.00    +0.142 A 
ATOM     26  C   UNK A   0       1.177   2.055   0.002  0.00  0.00    +0.092 A 
ATOM     27  C   UNK A   0      -0.016   1.353   0.009  0.00  0.00    +0.125 A 
ATOM     28  C   UNK A   0      -1.236   2.027   0.019  0.00  0.00    +0.046 A 
ATOM     29  C   UNK A   0      -1.270   3.392   0.032  0.00  0.00    +0.019 A 
ATOM     30  C   UNK A   0      -0.075   4.114   0.025  0.00  0.00    +0.065 A 
ATOM     31  C   UNK A   0      -0.072   5.588   0.033  0.00  0.00    +0.202 A 
ATOM     32  O   UNK A   0      -1.109   6.229   0.047  0.00  0.00    -0.286 OA
BRANCH  22  36
ATOM     33  C   UNK A   0      -0.771  10.812   0.069  0.00  0.00    +0.073 C 
ATOM     34  C   UNK A   0       0.343   9.797   0.053  0.00  0.00    +0.076 A 
ATOM     35  N   UNK A   0       0.262   8.489   0.042  0.00  0.00    -0.244 NA
ATOM     36  C   UNK A   0       1.346   7.729   0.033  0.00  0.00    +0.085 A 
ATOM     37  C   UNK A   0       2.565   8.352   0.025  0.00  0.00    +0.075 A 
ATOM     38  S   UNK A   0       2.058  10.066   0.040  0.00  0.00    -0.080 S 
ENDBRANCH  22  36
ENDBRANCH  21  27
ENDBRANCH   1  21
TORSDOF 8
