REMARK  Name = ZINC67163712
REMARK  7 active torsions:
REMARK  status: ('A' for Active; 'I' for Inactive)
REMARK    1  A    between atoms: C_1  and  C_2
REMARK    2  A    between atoms: C_5  and  C_7
REMARK    3  A    between atoms: C_7  and  C_9
REMARK    4  A    between atoms: C_7  and  N_10
REMARK    5  A    between atoms: C_11  and  C_13
REMARK    6  A    between atoms: N_16  and  C_18
REMARK    7  A    between atoms: C_21  and  N_24
REMARK                            x       y       z     vdW  Elec       q    Type
REMARK                         _______ _______ _______ _____ _____    ______ ____
ROOT
ATOM      1  C   UNL     1       4.630  -3.688  -2.381  0.00  0.00    +0.147 A 
ATOM      2  C   UNL     1       5.433  -4.642  -3.050  0.00  0.00    +0.054 A 
ATOM      3  C   UNL     1       6.340  -3.923  -3.753  0.00  0.00    +0.115 A 
ATOM      4  N   UNL     1       6.084  -2.611  -3.511  0.00  0.00    -0.239 N 
ATOM      5  N   UNL     1       5.083  -2.496  -2.715  0.00  0.00    -0.162 NA
ENDROOT
BRANCH   4   6
ATOM      6  C   UNL     1       6.805  -1.539  -4.055  0.00  0.00    +0.065 A 
ATOM      7  C   UNL     1       7.866  -1.781  -4.917  0.00  0.00    +0.030 A 
ATOM      8  C   UNL     1       8.575  -0.722  -5.451  0.00  0.00    +0.035 A 
ATOM      9  C   UNL     1       8.228   0.577  -5.129  0.00  0.00    +0.126 A 
ATOM     10  C   UNL     1       7.171   0.821  -4.270  0.00  0.00    +0.035 A 
ATOM     11  C   UNL     1       6.455  -0.234  -3.737  0.00  0.00    +0.030 A 
BRANCH   9  12
ATOM     12  N   UNL     1       8.989   1.709  -5.703  0.00  0.00    +0.056 N 
ATOM     13  O   UNL     1       9.913   1.497  -6.453  0.00  0.00    -0.126 OA
ATOM     14  O   UNL     1       8.687   2.845  -5.422  0.00  0.00    -0.126 OA
ENDBRANCH   9  12
ENDBRANCH   4   6
BRANCH   1  16
ATOM     15  N   UNL     1       2.811  -2.961  -0.914  0.00  0.00    -0.300 N 
ATOM     16  C   UNL     1       3.494  -3.975  -1.482  0.00  0.00    +0.265 C 
ATOM     17  O   UNL     1       3.174  -5.125  -1.254  0.00  0.00    -0.268 OA
ATOM     18  H   UNL     1       3.066  -2.043  -1.096  0.00  0.00    +0.150 HD
BRANCH  15  19
ATOM     19  C   UNL     1       1.684  -3.245  -0.023  0.00  0.00    +0.136 C 
ATOM     20  C   UNL     1       2.205  -3.494   1.394  0.00  0.00    +0.036 C 
BRANCH  19  25
ATOM     21  C   UNL     1      -0.018   1.503   0.010  0.00  0.00    +0.086 C 
ATOM     22  C   UNL     1       0.002  -0.004   0.002  0.00  0.00    +0.102 A 
ATOM     23  C   UNL     1      -1.078  -0.805   0.003  0.00  0.00    +0.045 A 
ATOM     24  C   UNL     1      -0.601  -2.136  -0.007  0.00  0.00    +0.047 A 
ATOM     25  C   UNL     1       0.742  -2.069  -0.013  0.00  0.00    +0.125 A 
ATOM     26  O   UNL     1       1.102  -0.775  -0.013  0.00  0.00    -0.463 OA
ENDBRANCH  19  25
ENDBRANCH  15  19
ENDBRANCH   1  16
TORSDOF 5
