REMARK  Name = ZINC63521271
REMARK  5 active torsions:
REMARK  status: ('A' for Active; 'I' for Inactive)
REMARK    1  A    between atoms: C_1  and  C_2
REMARK    2  A    between atoms: C_4  and  C_13
REMARK    3  A    between atoms: C_13  and  C_14
REMARK    4  A    between atoms: C_14  and  N_15
REMARK    5  A    between atoms: C_16  and  C_18
REMARK                            x       y       z     vdW  Elec       q    Type
REMARK                         _______ _______ _______ _____ _____    ______ ____
ROOT
ATOM      1  N   UNL     1       0.998  -0.730  -4.977  0.00  0.00    -0.314 N 
ATOM      2  C   UNL     1       1.751  -1.250  -5.967  0.00  0.00    +0.227 C 
ATOM      3  O   UNL     1       2.732  -1.911  -5.699  0.00  0.00    -0.275 OA
ATOM      4  H   UNL     1       0.213  -0.201  -5.192  0.00  0.00    +0.149 HD
ENDROOT
BRANCH   2   5
ATOM      5  C   UNL     1       1.374  -1.010  -7.406  0.00  0.00    +0.188 C 
ATOM      6  C   UNL     1       2.369  -1.720  -8.329  0.00  0.00    +0.063 C 
ATOM      7  C   UNL     1       1.791  -1.829  -9.717  0.00  0.00    -0.002 A 
ATOM      8  C   UNL     1       2.657  -2.040 -10.779  0.00  0.00    +0.027 A 
ATOM      9  C   UNL     1       2.170  -2.152 -12.067  0.00  0.00    +0.041 A 
ATOM     10  C   UNL     1       0.810  -2.056 -12.303  0.00  0.00    +0.023 A 
ATOM     11  C   UNL     1      -0.057  -1.844 -11.250  0.00  0.00    +0.048 A 
ATOM     12  C   UNL     1       0.432  -1.726  -9.953  0.00  0.00    +0.135 A 
ATOM     13  O   UNL     1      -0.456  -1.498  -8.947  0.00  0.00    -0.425 OA
ATOM     14  C   UNL     1      -0.001  -1.587  -7.681  0.00  0.00    +0.325 C 
ATOM     15  O   UNL     1      -0.656  -2.104  -6.808  0.00  0.00    -0.250 OA
ATOM     16 CL   UNL     1       3.264  -2.416 -13.389  0.00  0.00    -0.084 Cl
ENDBRANCH   2   5
BRANCH   1  17
ATOM     17  C   UNL     1       1.364  -0.963  -3.578  0.00  0.00    +0.108 C 
BRANCH  17  18
ATOM     18  C   UNL     1       0.352  -0.269  -2.664  0.00  0.00    +0.052 C 
BRANCH  18  21
ATOM     19  C   UNL     1      -0.019   1.526   0.010  0.00  0.00    +0.035 C 
ATOM     20  C   UNL     1       0.002  -0.004   0.002  0.00  0.00    +0.103 C 
ATOM     21  C   UNL     1       0.729  -0.509  -1.224  0.00  0.00    -0.037 C 
ATOM     22  C   UNL     1       1.785  -1.220  -0.768  0.00  0.00    +0.002 A 
ATOM     23  C   UNL     1       2.858  -1.954  -1.449  0.00  0.00    +0.048 A 
ATOM     24  C   UNL     1       3.798  -2.583  -0.705  0.00  0.00    +0.124 A 
ATOM     25  C   UNL     1       3.771  -2.550   0.698  0.00  0.00    +0.040 A 
ATOM     26  C   UNL     1       2.817  -1.897   1.393  0.00  0.00    +0.029 A 
ATOM     27  C   UNL     1       1.780  -1.201   0.712  0.00  0.00    +0.043 A 
ATOM     28  N   UNL     1       0.758  -0.506   1.155  0.00  0.00    -0.378 N 
ATOM     29  F   UNL     1       4.787  -3.260  -1.329  0.00  0.00    -0.205 F 
ATOM     30  H   UNL     1       0.540  -0.349   2.087  0.00  0.00    +0.160 HD
ENDBRANCH  18  21
ENDBRANCH  17  18
ENDBRANCH   1  17
TORSDOF 4
