REMARK  Name = ZINC63795329
REMARK  10 active torsions:
REMARK  status: ('A' for Active; 'I' for Inactive)
REMARK    1  A    between atoms: C_1  and  C_2
REMARK    2  A    between atoms: C_4  and  C_20
REMARK    3  A    between atoms: C_7  and  N_10
REMARK    4  A    between atoms: N_10  and  C_11
REMARK    5  A    between atoms: C_11  and  C_12
REMARK    6  A    between atoms: C_17  and  C_19
REMARK    7  A    between atoms: C_26  and  C_28
REMARK    8  A    between atoms: C_28  and  C_29
REMARK    9  A    between atoms: C_28  and  C_30
REMARK   10  A    between atoms: C_28  and  C_31
REMARK                            x       y       z     vdW  Elec       q    Type
REMARK                         _______ _______ _______ _____ _____    ______ ____
ROOT
ATOM      1  C   UNL     1       0.105   1.771   0.637  0.00  0.00    +0.025 C 
ATOM      2  C   UNL     1       0.058   0.257   0.421  0.00  0.00    +0.075 C 
ATOM      3  C   UNL     1       0.684  -0.083  -0.963  0.00  0.00    +0.152 C 
ATOM      4  S   UNL     1       1.091  -1.859  -0.649  0.00  0.00    -0.108 S 
ATOM      5  C   UNL     1       1.401  -1.711   1.161  0.00  0.00    +0.205 C 
ATOM      6  N   UNL     1       0.794  -0.406   1.500  0.00  0.00    -0.286 NA
ATOM      7  H   UNL     1       1.476   0.215   1.908  0.00  0.00    +0.125 HD
ENDROOT
BRANCH   3   8
ATOM      8  C   UNL     1      -0.319   0.069  -2.077  0.00  0.00    +0.233 C 
ATOM      9  O   UNL     1      -1.497  -0.122  -1.863  0.00  0.00    -0.274 OA
ATOM     10  N   UNL     1       0.093   0.417  -3.312  0.00  0.00    -0.262 N 
ATOM     11  C   UNL     1      -0.833   0.557  -4.341  0.00  0.00    +0.188 A 
ATOM     12  N   UNL     1      -2.142   0.401  -4.308  0.00  0.00    -0.126 NA
ATOM     13  N   UNL     1      -2.859   0.564  -5.335  0.00  0.00    -0.144 NA
ATOM     14  C   UNL     1      -2.284   0.901  -6.472  0.00  0.00    +0.109 A 
ATOM     15  S   UNL     1      -0.576   0.978  -5.953  0.00  0.00    -0.035 S 
ATOM     16  H   UNL     1       1.035   0.570  -3.484  0.00  0.00    +0.157 HD
BRANCH  14  17
ATOM     17  C   UNL     1      -2.895   1.154  -7.826  0.00  0.00    +0.013 C 
ATOM     18  C   UNL     1      -3.893   2.310  -7.728  0.00  0.00    +0.018 C 
ATOM     19  C   UNL     1      -1.793   1.516  -8.824  0.00  0.00    +0.018 C 
ATOM     20  C   UNL     1      -3.620  -0.106  -8.303  0.00  0.00    +0.018 C 
ENDBRANCH  14  17
ENDBRANCH   3   8
BRANCH   5  21
ATOM     21  N   UNL     1       0.743  -2.798   1.890  0.00  0.00    -0.270 N 
ATOM     22  C   UNL     1      -0.439  -2.582   2.500  0.00  0.00    +0.215 C 
ATOM     23  O   UNL     1      -1.004  -1.517   2.368  0.00  0.00    -0.276 OA
ATOM     24  C   UNL     1      -1.060  -3.664   3.346  0.00  0.00    +0.109 C 
BRANCH  21  25
ATOM     25  C   UNL     1       1.370  -4.121   1.956  0.00  0.00    +0.184 C 
BRANCH  25  26
ATOM     26  C   UNL     1       2.278  -4.187   3.157  0.00  0.00    +0.122 A 
ATOM     27  C   UNL     1       1.922  -4.591   4.390  0.00  0.00    +0.046 A 
ATOM     28  C   UNL     1       3.076  -4.495   5.201  0.00  0.00    +0.041 A 
ATOM     29  C   UNL     1       4.068  -4.038   4.416  0.00  0.00    +0.195 A 
ATOM     30  O   UNL     1       3.580  -3.859   3.177  0.00  0.00    -0.466 OA
ENDBRANCH  25  26
ENDBRANCH  21  25
ENDBRANCH   5  21
TORSDOF 5
