REMARK  Name = ZINC17089724
REMARK  4 active torsions:
REMARK  status: ('A' for Active; 'I' for Inactive)
REMARK    1  A    between atoms: C_10  and  C_12
REMARK    2  A    between atoms: N_14  and  C_15
REMARK    3  A    between atoms: C_15  and  N_17
REMARK    4  A    between atoms: C_23  and  O_27
REMARK                            x       y       z     vdW  Elec       q    Type
REMARK                         _______ _______ _______ _____ _____    ______ ____
ROOT
ATOM      1  C   UNL     1       1.234  -2.171  -0.032  0.00  0.00    +0.250 C 
ATOM      2  O   UNL     1       2.291  -2.763  -0.130  0.00  0.00    -0.270 OA
ATOM      3  N   UNL     1       0.082  -2.862   0.079  0.00  0.00    -0.262 N 
ATOM      4  H   UNL     1      -0.762  -2.390   0.157  0.00  0.00    +0.157 HD
ENDROOT
BRANCH   1  14
ATOM      5  C   UNL     1      -0.012   1.382  -0.037  0.00  0.00    +0.001 A 
ATOM      6  C   UNL     1       1.135   2.115  -0.037  0.00  0.00    +0.010 A 
ATOM      7  C   UNL     1       2.389   1.483  -0.035  0.00  0.00    +0.001 A 
ATOM      8  C   UNL     1       2.456   0.068  -0.033  0.00  0.00    -0.004 A 
ATOM      9  C   UNL     1       3.704  -0.566  -0.032  0.00  0.00    +0.009 A 
ATOM     10  C   UNL     1       4.842   0.185  -0.032  0.00  0.00    +0.002 A 
ATOM     11  C   UNL     1       4.782   1.576  -0.034  0.00  0.00    +0.020 A 
ATOM     12  C   UNL     1       3.584   2.226  -0.035  0.00  0.00    +0.049 A 
ATOM     13 CL   UNL     1       3.532   3.962  -0.037  0.00  0.00    -0.083 Cl
ATOM     14  C   UNL     1       1.211  -0.697  -0.033  0.00  0.00    +0.045 A 
ATOM     15  C   UNL     1       0.006  -0.006  -0.036  0.00  0.00    +0.014 A 
ENDBRANCH   1  14
BRANCH   3  16
ATOM     16  C   UNL     1       0.102  -4.210   0.080  0.00  0.00    +0.163 C 
ATOM     17  S   UNL     1       1.591  -5.043  -0.058  0.00  0.00    -0.016 S 
BRANCH  16  18
ATOM     18  N   UNL     1      -1.040  -4.895   0.190  0.00  0.00    -0.169 NA
ATOM     19  C   UNL     1      -1.257  -5.657   1.255  0.00  0.00    +0.163 A 
ATOM     20  N   UNL     1      -0.495  -5.794   2.377  0.00  0.00    -0.335 N 
ATOM     21  C   UNL     1      -0.894  -6.649   3.391  0.00  0.00    +0.055 A 
ATOM     22  C   UNL     1      -0.231  -6.905   4.604  0.00  0.00    +0.030 A 
ATOM     23  C   UNL     1      -0.750  -7.786   5.521  0.00  0.00    +0.047 A 
ATOM     24  C   UNL     1      -1.945  -8.452   5.283  0.00  0.00    +0.118 A 
ATOM     25  C   UNL     1      -2.621  -8.217   4.094  0.00  0.00    +0.062 A 
ATOM     26  C   UNL     1      -2.098  -7.335   3.178  0.00  0.00    +0.042 A 
ATOM     27  S   UNL     1      -2.625  -6.757   1.583  0.00  0.00    -0.052 S 
ATOM     28  H   UNL     1       0.330  -5.291   2.465  0.00  0.00    +0.168 HD
BRANCH  24  29
ATOM     29  O   UNL     1      -2.446  -9.321   6.201  0.00  0.00    -0.507 OA
ATOM     30  H   UNL     1      -3.035  -8.912   6.850  0.00  0.00    +0.292 HD
ENDBRANCH  24  29
ENDBRANCH  16  18
ENDBRANCH   3  16
TORSDOF 4
