REMARK  Name = ZINC37358605
REMARK  5 active torsions:
REMARK  status: ('A' for Active; 'I' for Inactive)
REMARK    1  A    between atoms: C_1  and  N_2
REMARK    2  A    between atoms: C_3  and  N_32
REMARK    3  A    between atoms: C_5  and  C_25
REMARK    4  A    between atoms: N_14  and  C_17
REMARK    5  A    between atoms: C_17  and  C_18
REMARK                            x       y       z     vdW  Elec       q    Type
REMARK                         _______ _______ _______ _____ _____    ______ ____
ROOT
ATOM      1  C   UNL     1      -1.048   1.181  -0.100  0.00  0.00    +0.174 C 
ATOM      2  N   UNL     1      -0.468  -0.164  -0.059  0.00  0.00    -0.251 N 
ATOM      3  C   UNL     1      -0.031  -0.850  -1.130  0.00  0.00    +0.126 A 
ATOM      4  C   UNL     1       0.444  -2.075  -0.677  0.00  0.00    +0.086 A 
ATOM      5  C   UNL     1       1.019  -3.220  -1.272  0.00  0.00    +0.089 A 
ATOM      6  N   UNL     1       1.358  -4.234  -0.486  0.00  0.00    -0.214 NA
ATOM      7  C   UNL     1       1.174  -4.200   0.830  0.00  0.00    +0.220 A 
ATOM      8  N   UNL     1       0.646  -3.175   1.466  0.00  0.00    -0.193 NA
ATOM      9  C   UNL     1       0.258  -2.079   0.785  0.00  0.00    +0.188 A 
ATOM     10  N   UNL     1      -0.280  -0.923   1.102  0.00  0.00    -0.149 NA
ATOM     11  N   UNL     1       1.558  -5.303   1.572  0.00  0.00    -0.297 N 
ATOM     12  C   UNL     1       2.159  -6.478   0.923  0.00  0.00    +0.123 C 
ATOM     13  C   UNL     1       1.400  -7.728   1.380  0.00  0.00    +0.103 C 
ATOM     14  N   UNL     1       1.377  -7.774   2.849  0.00  0.00    -0.295 NA
ATOM     15  C   UNL     1       0.648  -6.627   3.406  0.00  0.00    +0.103 C 
ATOM     16  C   UNL     1       1.381  -5.329   3.032  0.00  0.00    +0.123 C 
ENDROOT
BRANCH   5  17
ATOM     17  C   UNL     1       1.236  -3.288  -2.735  0.00  0.00    +0.001 A 
ATOM     18  C   UNL     1       1.797  -2.204  -3.410  0.00  0.00    +0.011 A 
ATOM     19  C   UNL     1       1.998  -2.272  -4.773  0.00  0.00    +0.020 A 
ATOM     20  C   UNL     1       1.642  -3.414  -5.471  0.00  0.00    +0.041 A 
ATOM     21  C   UNL     1       1.084  -4.494  -4.806  0.00  0.00    +0.020 A 
ATOM     22  C   UNL     1       0.885  -4.438  -3.442  0.00  0.00    +0.011 A 
ATOM     23 CL   UNL     1       1.896  -3.494  -7.187  0.00  0.00    -0.084 Cl
ENDBRANCH   5  17
BRANCH   3  24
ATOM     24  N   UNL     1      -0.052  -0.415  -2.442  0.00  0.00    -0.343 N 
ATOM     25  H   UNL     1      -0.146   0.530  -2.638  0.00  0.00    +0.144 HD
ATOM     26  H   UNL     1       0.027  -1.056  -3.166  0.00  0.00    +0.144 HD
ENDBRANCH   3  24
BRANCH  14  27
ATOM     27  C   UNL     1       0.810  -9.041   3.327  0.00  0.00    +0.119 C 
BRANCH  27  28
ATOM     28  C   UNL     1       1.026  -9.158   4.814  0.00  0.00    -0.033 A 
ATOM     29  C   UNL     1       2.177  -9.749   5.301  0.00  0.00    +0.008 A 
ATOM     30  C   UNL     1       2.376  -9.857   6.664  0.00  0.00    +0.038 A 
ATOM     31  C   UNL     1       1.422  -9.372   7.543  0.00  0.00    +0.123 A 
ATOM     32  C   UNL     1       0.270  -8.780   7.054  0.00  0.00    +0.038 A 
ATOM     33  C   UNL     1       0.075  -8.669   5.691  0.00  0.00    +0.008 A 
ATOM     34  F   UNL     1       1.615  -9.477   8.876  0.00  0.00    -0.205 F 
ENDBRANCH  27  28
ENDBRANCH  14  27
TORSDOF 4
