REMARK  Name = ZINC17642666
REMARK  15 active torsions:
REMARK  status: ('A' for Active; 'I' for Inactive)
REMARK    1  A    between atoms: C_1  and  C_2
REMARK    2  A    between atoms: C_2  and  N_3
REMARK    3  A    between atoms: N_3  and  C_4
REMARK    4  A    between atoms: N_3  and  C_6
REMARK    5  A    between atoms: C_4  and  C_5
REMARK    6  A    between atoms: C_6  and  C_7
REMARK    7  A    between atoms: C_12  and  C_13
REMARK    8  A    between atoms: C_13  and  N_14
REMARK    9  A    between atoms: C_15  and  C_17
REMARK   10  A    between atoms: C_17  and  C_19
REMARK   11  A    between atoms: C_17  and  S_20
REMARK   12  A    between atoms: S_20  and  C_21
REMARK   13  A    between atoms: C_21  and  C_22
REMARK   14  A    between atoms: C_28  and  C_34
REMARK   15  A    between atoms: C_29  and  C_33
REMARK                            x       y       z     vdW  Elec       q    Type
REMARK                         _______ _______ _______ _____ _____    ______ ____
ROOT
ATOM      1  N   UNL     1       4.236  -2.412   1.984  0.00  0.00    -0.310 N 
ATOM      2  C   UNL     1       4.808  -2.174   3.181  0.00  0.00    +0.226 C 
ATOM      3  O   UNL     1       5.113  -1.042   3.492  0.00  0.00    -0.275 OA
ATOM      4  H   UNL     1       3.992  -3.317   1.735  0.00  0.00    +0.149 HD
ENDROOT
BRANCH   2   5
ATOM      5  C   UNL     1       5.066  -3.313   4.133  0.00  0.00    +0.129 C 
ATOM      6  C   UNL     1       6.404  -3.970   3.790  0.00  0.00    +0.029 C 
BRANCH   5   7
ATOM      7  S   UNL     1       5.121  -2.681   5.832  0.00  0.00    -0.141 S 
BRANCH   7   8
ATOM      8  C   UNL     1       5.284  -4.173   6.851  0.00  0.00    +0.144 C 
BRANCH   8   9
ATOM      9  C   UNL     1       5.341  -3.784   8.306  0.00  0.00    +0.121 A 
ATOM     10  N   UNL     1       5.468  -4.752   9.250  0.00  0.00    -0.310 N 
ATOM     11  H   UNL     1       5.521  -5.680   8.974  0.00  0.00    +0.170 HD
ATOM     12  C   UNL     1       5.524  -4.448  10.560  0.00  0.00    +0.260 A 
ATOM     13  O   UNL     1       5.640  -5.329  11.395  0.00  0.00    -0.267 OA
ATOM     14  C   UNL     1       5.446  -3.074  10.957  0.00  0.00    +0.075 A 
ATOM     15  C   UNL     1       5.483  -2.497  12.288  0.00  0.00    -0.026 A 
ATOM     16  C   UNL     1       5.393  -1.165  12.428  0.00  0.00    -0.008 A 
ATOM     17  S   UNL     1       5.250  -0.582  10.749  0.00  0.00    -0.073 S 
ATOM     18  C   UNL     1       5.315  -2.144   9.910  0.00  0.00    +0.116 A 
ATOM     19  N   UNL     1       5.273  -2.522   8.636  0.00  0.00    -0.226 NA
ATOM     20  C   UNL     1       5.409  -0.355  13.699  0.00  0.00    +0.052 C 
ATOM     21  C   UNL     1       5.621  -3.383  13.500  0.00  0.00    +0.045 C 
ENDBRANCH   8   9
ENDBRANCH   7   8
ENDBRANCH   5   7
ENDBRANCH   2   5
BRANCH   1  22
ATOM     22  C   UNL     1       3.985  -1.305   1.058  0.00  0.00    +0.139 C 
BRANCH  22  28
ATOM     23  C   UNL     1       1.991  -2.115  -0.219  0.00  0.00    -0.059 A 
ATOM     24  C   UNL     1       1.402  -2.596  -1.374  0.00  0.00    +0.002 A 
ATOM     25  C   UNL     1       2.168  -2.804  -2.505  0.00  0.00    +0.000 A 
ATOM     26  C   UNL     1       3.523  -2.529  -2.483  0.00  0.00    +0.000 A 
ATOM     27  C   UNL     1       4.111  -2.047  -1.329  0.00  0.00    +0.005 A 
ATOM     28  C   UNL     1       3.344  -1.835  -0.198  0.00  0.00    -0.029 A 
BRANCH  23  29
ATOM     29  C   UNL     1       1.156  -1.888   1.015  0.00  0.00    -0.043 C 
BRANCH  29  30
ATOM     30  N   UNL     1       0.822  -0.462   1.126  0.00  0.00    +0.382 N 
ATOM     31  H   UNL     1       1.671   0.084   1.108  0.00  0.00    -0.081 HD
BRANCH  30  33
ATOM     32  C   UNL     1      -0.262   1.442   0.032  0.00  0.00    -0.017 C 
ATOM     33  C   UNL     1      -0.035  -0.070  -0.001  0.00  0.00    -0.082 C 
ENDBRANCH  30  33
BRANCH  30  34
ATOM     34  C   UNL     1       0.111  -0.222   2.389  0.00  0.00    -0.082 C 
ATOM     35  C   UNL     1       1.053  -0.495   3.563  0.00  0.00    -0.017 C 
ENDBRANCH  30  34
ENDBRANCH  29  30
ENDBRANCH  23  29
ENDBRANCH  22  28
ENDBRANCH   1  22
TORSDOF 10
