REMARK  Name = ZINC10044132
REMARK  6 active torsions:
REMARK  status: ('A' for Active; 'I' for Inactive)
REMARK    1  A    between atoms: C_1  and  C_2
REMARK    2  A    between atoms: C_15  and  C_17
REMARK    3  A    between atoms: C_17  and  N_18
REMARK    4  A    between atoms: N_18  and  C_19
REMARK    5  A    between atoms: N_18  and  S_20
REMARK    6  A    between atoms: S_20  and  C_23
REMARK                            x       y       z     vdW  Elec       q    Type
REMARK                         _______ _______ _______ _____ _____    ______ ____
ROOT
ATOM      1  C   UNL     1      -0.631   0.735  -0.174  0.00  0.00    +0.029 C 
ATOM      2  C   UNL     1      -0.397  -0.774  -0.084  0.00  0.00    +0.087 C 
ATOM      3  C   UNL     1      -1.744  -1.496  -0.040  0.00  0.00    +0.118 C 
ATOM      4  C   UNL     1      -1.558  -2.911   0.440  0.00  0.00    +0.219 C 
ATOM      5  O   UNL     1      -1.607  -3.827  -0.353  0.00  0.00    -0.275 OA
ATOM      6  N   UNL     1      -1.337  -3.166   1.748  0.00  0.00    -0.284 N 
ATOM      7  C   UNL     1      -1.182  -2.116   2.660  0.00  0.00    +0.055 A 
ATOM      8  C   UNL     1      -1.893  -2.095   3.848  0.00  0.00    +0.025 A 
ATOM      9  C   UNL     1      -1.705  -1.059   4.744  0.00  0.00    +0.002 A 
ATOM     10  C   UNL     1      -0.810  -0.044   4.459  0.00  0.00    +0.002 A 
ATOM     11  C   UNL     1      -0.104  -0.052   3.270  0.00  0.00    +0.025 A 
ATOM     12  C   UNL     1      -0.295  -1.081   2.362  0.00  0.00    +0.058 A 
ATOM     13  N   UNL     1       0.367  -1.076   1.128  0.00  0.00    -0.265 N 
ATOM     14  C   UNL     1       1.687  -1.344   1.059  0.00  0.00    +0.236 C 
ATOM     15  O   UNL     1       2.251  -1.337  -0.015  0.00  0.00    -0.274 OA
ATOM     16  H   UNL     1      -1.286  -4.084   2.058  0.00  0.00    +0.155 HD
ENDROOT
BRANCH  14  17
ATOM     17  C   UNL     1       2.460  -1.653   2.315  0.00  0.00    +0.205 C 
BRANCH  17  18
ATOM     18  N   UNL     1       3.862  -1.907   1.975  0.00  0.00    -0.171 NA
ATOM     19  C   UNL     1       4.798  -0.788   1.844  0.00  0.00    +0.132 C 
BRANCH  18  20
ATOM     20  S   UNL     1       4.389  -3.459   1.739  0.00  0.00    +0.062 S 
ATOM     21  O   UNL     1       3.283  -4.191   1.228  0.00  0.00    -0.153 OA
ATOM     22  O   UNL     1       5.626  -3.367   1.046  0.00  0.00    -0.153 OA
BRANCH  20  23
ATOM     23  C   UNL     1       4.749  -4.134   3.326  0.00  0.00    +0.125 A 
ATOM     24  C   UNL     1       3.979  -5.166   3.830  0.00  0.00    +0.050 A 
ATOM     25  C   UNL     1       4.262  -5.696   5.076  0.00  0.00    +0.043 A 
ATOM     26  C   UNL     1       5.316  -5.193   5.818  0.00  0.00    +0.021 A 
ATOM     27  C   UNL     1       6.086  -4.162   5.315  0.00  0.00    +0.023 A 
ATOM     28  C   UNL     1       5.806  -3.636   4.066  0.00  0.00    +0.067 A 
ATOM     29 CL   UNL     1       6.778  -2.345   3.431  0.00  0.00    -0.082 Cl
ATOM     30 CL   UNL     1       3.294  -6.991   5.708  0.00  0.00    -0.083 Cl
ENDBRANCH  20  23
ENDBRANCH  18  20
ENDBRANCH  17  18
ENDBRANCH  14  17
TORSDOF 4
