REMARK  Name = ZINC59849512
REMARK  6 active torsions:
REMARK  status: ('A' for Active; 'I' for Inactive)
REMARK    1  A    between atoms: C_3  and  C_6
REMARK    2  A    between atoms: C_6  and  C_8
REMARK    3  A    between atoms: C_6  and  N_15
REMARK    4  A    between atoms: N_18  and  C_19
REMARK    5  A    between atoms: C_19  and  C_21
REMARK    6  A    between atoms: C_19  and  C_31
REMARK                            x       y       z     vdW  Elec       q    Type
REMARK                         _______ _______ _______ _____ _____    ______ ____
ROOT
ATOM      1  N   UNL     1       4.587   1.010   0.851  0.00  0.00    -0.288 N 
ATOM      2  C   UNL     1       4.641   1.268   2.173  0.00  0.00    +0.301 C 
ATOM      3  O   UNL     1       4.005   2.194   2.639  0.00  0.00    -0.253 OA
ATOM      4  N   UNL     1       5.401   0.500   2.979  0.00  0.00    -0.292 N 
ATOM      5  H   UNL     1       5.094   0.272   0.480  0.00  0.00    +0.151 HD
ATOM      6  H   UNL     1       5.909  -0.239   2.607  0.00  0.00    +0.151 HD
ENDROOT
BRANCH   1   7
ATOM      7  C   UNL     1       3.761   1.845  -0.024  0.00  0.00    +0.142 C 
BRANCH   7   8
ATOM      8  C   UNL     1       4.303   1.790  -1.429  0.00  0.00    -0.022 A 
ATOM      9  C   UNL     1       4.760   0.592  -1.947  0.00  0.00    +0.008 A 
ATOM     10  C   UNL     1       5.258   0.540  -3.235  0.00  0.00    +0.038 A 
ATOM     11  C   UNL     1       5.298   1.689  -4.008  0.00  0.00    +0.123 A 
ATOM     12  C   UNL     1       4.840   2.888  -3.488  0.00  0.00    +0.038 A 
ATOM     13  C   UNL     1       4.338   2.936  -2.202  0.00  0.00    +0.008 A 
ATOM     14  F   UNL     1       5.784   1.639  -5.267  0.00  0.00    -0.205 F 
ENDBRANCH   7   8
BRANCH   7  17
ATOM     15  C   UNL     1      -0.016   1.351   0.009  0.00  0.00    +0.008 A 
ATOM     16  C   UNL     1       1.183   2.038   0.002  0.00  0.00    +0.013 A 
ATOM     17  C   UNL     1       2.343   1.336  -0.013  0.00  0.00    +0.014 A 
ATOM     18  S   UNL     1       1.754  -0.349  -0.017  0.00  0.00    -0.099 S 
ATOM     19  C   UNL     1       0.002  -0.004   0.002  0.00  0.00    +0.045 A 
ENDBRANCH   7  17
ENDBRANCH   1   7
BRANCH   4  20
ATOM     20  C   UNL     1       5.461   0.780   4.415  0.00  0.00    +0.108 C 
BRANCH  20  21
ATOM     21  C   UNL     1       6.756   0.253   4.977  0.00  0.00    -0.023 A 
ATOM     22  C   UNL     1       7.253  -0.962   4.542  0.00  0.00    +0.009 A 
ATOM     23  C   UNL     1       8.440  -1.449   5.055  0.00  0.00    +0.050 A 
ATOM     24  C   UNL     1       9.136  -0.720   6.008  0.00  0.00    +0.162 A 
ATOM     25  C   UNL     1       8.637   0.502   6.444  0.00  0.00    +0.162 A 
ATOM     26  C   UNL     1       7.448   0.987   5.921  0.00  0.00    +0.055 A 
ATOM     27  O   UNL     1       9.308   1.237   7.373  0.00  0.00    -0.485 OA
ATOM     28  C   UNL     1      10.303   0.550   8.140  0.00  0.00    +0.270 C 
ATOM     29  C   UNL     1      11.159  -0.286   7.180  0.00  0.00    +0.270 C 
ATOM     30  O   UNL     1      10.301  -1.215   6.508  0.00  0.00    -0.485 OA
ENDBRANCH  20  21
BRANCH  20  31
ATOM     31  C   UNL     1       4.285   0.097   5.117  0.00  0.00    +0.014 C 
ATOM     32  C   UNL     1       3.434  -0.869   4.291  0.00  0.00    +0.006 C 
ATOM     33  C   UNL     1       2.874   0.499   4.685  0.00  0.00    +0.006 C 
ENDBRANCH  20  31
ENDBRANCH   4  20
TORSDOF 6
