REMARK  Name = ZINC39630724
REMARK  10 active torsions:
REMARK  status: ('A' for Active; 'I' for Inactive)
REMARK    1  A    between atoms: C_1  and  C_2
REMARK    2  A    between atoms: C_2  and  C_3
REMARK    3  A    between atoms: C_2  and  C_4
REMARK    4  A    between atoms: C_2  and  C_28
REMARK    5  A    between atoms: C_4  and  N_5
REMARK    6  A    between atoms: C_6  and  C_8
REMARK    7  A    between atoms: C_19  and  C_21
REMARK    8  A    between atoms: C_28  and  N_29
REMARK    9  A    between atoms: N_29  and  C_30
REMARK   10  A    between atoms: N_29  and  C_31
REMARK                            x       y       z     vdW  Elec       q    Type
REMARK                         _______ _______ _______ _____ _____    ______ ____
ROOT
ATOM      1  C   UNL     1      -1.658  -1.185   4.121  0.00  0.00    +0.100 C 
ATOM      2  C   UNL     1      -2.127   0.286   4.178  0.00  0.00    +0.121 C 
ATOM      3  N   UNL     1      -3.599   0.205   4.318  0.00  0.00    -0.296 N 
ATOM      4  C   UNL     1      -3.820  -0.933   5.243  0.00  0.00    +0.115 C 
ATOM      5  C   UNL     1      -2.770  -1.981   4.824  0.00  0.00    -0.004 C 
ATOM      6  C   UNL     1      -2.214  -2.692   6.054  0.00  0.00    -0.010 C 
ATOM      7  C   UNL     1      -3.324  -3.524   6.703  0.00  0.00    -0.082 C 
ATOM      8  N   UNL     1      -3.833  -4.503   5.736  0.00  0.00    +0.379 N 
ATOM      9  C   UNL     1      -4.450  -3.809   4.598  0.00  0.00    -0.082 C 
ATOM     10  C   UNL     1      -3.388  -2.990   3.861  0.00  0.00    -0.010 C 
ATOM     11  C   UNL     1      -4.529   0.988   3.736  0.00  0.00    +0.247 C 
ATOM     12  O   UNL     1      -4.186   1.922   3.037  0.00  0.00    -0.270 OA
ATOM     13  H   UNL     1      -3.071  -5.075   5.405  0.00  0.00    -0.086 HD
ATOM     14  H   UNL     1      -4.522  -5.090   6.183  0.00  0.00    -0.086 HD
ENDROOT
BRANCH  11  15
ATOM     15  C   UNL     1      -5.966   0.712   3.947  0.00  0.00    +0.037 A 
ATOM     16  C   UNL     1      -6.397   0.108   5.130  0.00  0.00    +0.014 A 
ATOM     17  C   UNL     1      -7.738  -0.147   5.321  0.00  0.00    +0.016 A 
ATOM     18  C   UNL     1      -8.657   0.194   4.343  0.00  0.00    +0.018 A 
ATOM     19  C   UNL     1      -8.236   0.793   3.168  0.00  0.00    +0.016 A 
ATOM     20  C   UNL     1      -6.898   1.059   2.967  0.00  0.00    +0.014 A 
ATOM     21 BR   UNL     1     -10.495  -0.160   4.613  0.00  0.00    -0.050 Br
ENDBRANCH  11  15
BRANCH   1  23
ATOM     22  N   UNL     1      -0.717  -2.679   2.389  0.00  0.00    -0.315 N 
ATOM     23  C   UNL     1      -1.514  -1.635   2.690  0.00  0.00    +0.218 C 
ATOM     24  O   UNL     1      -2.117  -1.058   1.810  0.00  0.00    -0.275 OA
ATOM     25  H   UNL     1      -0.236  -3.141   3.093  0.00  0.00    +0.149 HD
BRANCH  22  26
ATOM     26  C   UNL     1      -0.578  -3.117   0.998  0.00  0.00    +0.108 C 
BRANCH  26  28
ATOM     27  C   UNL     1       1.746  -3.899   1.476  0.00  0.00    +0.010 C 
ATOM     28  C   UNL     1       0.377  -4.311   0.932  0.00  0.00    -0.034 C 
ATOM     29  C   UNL     1      -0.184  -5.458   1.774  0.00  0.00    +0.010 C 
BRANCH  28  30
ATOM     30  C   UNL     1       0.522  -4.768  -0.521  0.00  0.00    -0.072 C 
BRANCH  30  31
ATOM     31  N   UNL     1       1.344  -5.984  -0.572  0.00  0.00    +0.376 N 
ATOM     32  C   UNL     1       0.493  -7.160  -0.343  0.00  0.00    -0.097 C 
ATOM     33  C   UNL     1       1.981  -6.090  -1.891  0.00  0.00    -0.097 C 
ATOM     34  H   UNL     1       2.055  -5.939   0.142  0.00  0.00    -0.083 HD
ENDBRANCH  30  31
ENDBRANCH  28  30
ENDBRANCH  26  28
ENDBRANCH  22  26
ENDBRANCH   1  23
TORSDOF 6
