REMARK  Name = ZINC49741299
REMARK  5 active torsions:
REMARK  status: ('A' for Active; 'I' for Inactive)
REMARK    1  A    between atoms: C_1  and  C_2
REMARK    2  A    between atoms: C_2  and  C_26
REMARK    3  A    between atoms: C_5  and  N_12
REMARK    4  A    between atoms: N_12  and  S_13
REMARK    5  A    between atoms: S_13  and  C_16
REMARK                            x       y       z     vdW  Elec       q    Type
REMARK                         _______ _______ _______ _____ _____    ______ ____
ROOT
ATOM      1  N   UNL     1       1.353  -0.852  -4.800  0.00  0.00    -0.216 N 
ATOM      2  H   UNL     1       0.487  -1.020  -5.204  0.00  0.00    +0.174 HD
ENDROOT
BRANCH   1   7
ATOM      3  C   UNL     1      -0.133   1.313   0.075  0.00  0.00    +0.025 C 
ATOM      4  C   UNL     1      -0.039  -0.213   0.021  0.00  0.00    +0.068 C 
ATOM      5  C   UNL     1       0.769  -0.651  -1.179  0.00  0.00    -0.010 A 
ATOM      6  C   UNL     1       0.593  -0.487  -2.534  0.00  0.00    +0.031 A 
ATOM      7  C   UNL     1       1.525  -1.015  -3.421  0.00  0.00    +0.048 A 
ATOM      8  C   UNL     1       2.627  -1.704  -2.932  0.00  0.00    +0.026 A 
ATOM      9  C   UNL     1       2.799  -1.866  -1.573  0.00  0.00    +0.025 A 
ATOM     10  C   UNL     1       1.868  -1.339  -0.680  0.00  0.00    +0.038 A 
ATOM     11  N   UNL     1       1.823  -1.372   0.716  0.00  0.00    -0.285 N 
ATOM     12  C   UNL     1       0.744  -0.739   1.205  0.00  0.00    +0.227 C 
ATOM     13  O   UNL     1       0.451  -0.612   2.376  0.00  0.00    -0.275 OA
ATOM     14  C   UNL     1      -1.437  -0.834  -0.015  0.00  0.00    +0.025 C 
ATOM     15  H   UNL     1       2.494  -1.803   1.269  0.00  0.00    +0.155 HD
ENDBRANCH   1   7
BRANCH   1  16
ATOM     16  S   UNL     1       2.627  -0.374  -5.743  0.00  0.00    +0.072 S 
ATOM     17  O   UNL     1       3.701  -1.258  -5.453  0.00  0.00    -0.150 OA
ATOM     18  O   UNL     1       2.117  -0.200  -7.058  0.00  0.00    -0.150 OA
BRANCH  16  19
ATOM     19  C   UNL     1       3.122   1.220  -5.180  0.00  0.00    +0.112 A 
ATOM     20  C   UNL     1       2.477   2.349  -5.649  0.00  0.00    +0.032 A 
ATOM     21  C   UNL     1       2.863   3.602  -5.211  0.00  0.00    +0.051 A 
ATOM     22  C   UNL     1       3.899   3.729  -4.298  0.00  0.00    +0.162 A 
ATOM     23  C   UNL     1       4.547   2.595  -3.825  0.00  0.00    +0.164 A 
ATOM     24  C   UNL     1       4.152   1.341  -4.266  0.00  0.00    +0.078 A 
ATOM     25  O   UNL     1       5.561   2.697  -2.922  0.00  0.00    -0.485 OA
ATOM     26  C   UNL     1       6.171   3.985  -2.783  0.00  0.00    +0.270 C 
ATOM     27  C   UNL     1       5.057   5.036  -2.684  0.00  0.00    +0.270 C 
ATOM     28  O   UNL     1       4.270   4.970  -3.878  0.00  0.00    -0.485 OA
ENDBRANCH  16  19
ENDBRANCH   1  16
TORSDOF 3
