REMARK  Name = ZINC12661259
REMARK  6 active torsions:
REMARK  status: ('A' for Active; 'I' for Inactive)
REMARK    1  A    between atoms: C_1  and  C_2
REMARK    2  A    between atoms: C_5  and  O_35
REMARK    3  A    between atoms: C_18  and  C_34
REMARK    4  A    between atoms: C_23  and  N_25
REMARK    5  A    between atoms: C_26  and  C_28
REMARK    6  A    between atoms: C_28  and  N_72
REMARK                            x       y       z     vdW  Elec       q    Type
REMARK                         _______ _______ _______ _____ _____    ______ ____
ROOT
ATOM      1  C   UNL     1       1.448   2.044   2.504  0.00  0.00    +0.012 C 
ATOM      2  C   UNL     1       2.158   1.550   1.241  0.00  0.00    -0.026 C 
ATOM      3  C   UNL     1       1.416   2.056  -0.000  0.00  0.00    +0.010 C 
ATOM      4  C   UNL     1      -0.019   1.526   0.010  0.00  0.00    +0.032 C 
ATOM      5  C   UNL     1       0.002  -0.004   0.002  0.00  0.00    +0.115 C 
ATOM      6  C   UNL     1       0.742  -0.509   1.243  0.00  0.00    +0.035 C 
ATOM      7  C   UNL     1       2.177   0.020   1.231  0.00  0.00    -0.002 C 
ATOM      8  C   UNL     1       2.919  -0.488   2.469  0.00  0.00    +0.004 C 
ATOM      9  C   UNL     1       4.355   0.040   2.456  0.00  0.00    +0.004 C 
ATOM     10  C   UNL     1       4.335   1.569   2.469  0.00  0.00    -0.004 C 
ATOM     11  C   UNL     1       3.594   2.075   1.222  0.00  0.00    -0.001 C 
ATOM     12  C   UNL     1       3.616   3.599   1.139  0.00  0.00    +0.005 C 
ATOM     13  C   UNL     1       5.044   4.164   1.234  0.00  0.00    +0.009 C 
ATOM     14  C   UNL     1       5.643   3.661   2.533  0.00  0.00    -0.011 C 
ATOM     15  C   UNL     1       5.750   2.115   2.428  0.00  0.00    +0.000 C 
ATOM     16  C   UNL     1       6.632   1.782   3.636  0.00  0.00    +0.006 C 
ATOM     17  C   UNL     1       7.708   2.902   3.599  0.00  0.00    +0.023 C 
ATOM     18  C   UNL     1       7.076   4.091   2.834  0.00  0.00    +0.079 C 
ATOM     19  C   UNL     1       4.733   4.038   3.704  0.00  0.00    +0.013 C 
ENDROOT
BRANCH  18  20
ATOM     20  N   UNL     1       7.804   4.337   1.587  0.00  0.00    -0.313 N 
ATOM     21  C   UNL     1       8.892   5.132   1.588  0.00  0.00    +0.197 C 
ATOM     22  O   UNL     1       9.268   5.644   2.621  0.00  0.00    -0.278 OA
ATOM     23  H   UNL     1       7.504   3.927   0.761  0.00  0.00    +0.149 HD
BRANCH  21  24
ATOM     24  C   UNL     1       9.642   5.385   0.305  0.00  0.00    +0.019 C 
BRANCH  24  30
ATOM     25  C   UNL     1      10.318   7.615   0.968  0.00  0.00    -0.050 C 
ATOM     26  C   UNL     1      11.530   8.492   1.292  0.00  0.00    +0.141 C 
ATOM     27  O   UNL     1      12.398   8.534   0.156  0.00  0.00    -0.383 OA
ATOM     28  C   UNL     1      12.867   7.248  -0.258  0.00  0.00    +0.141 C 
ATOM     29  C   UNL     1      11.668   6.358  -0.597  0.00  0.00    -0.050 C 
ATOM     30  N   UNL     1      10.794   6.268   0.591  0.00  0.00    +0.388 N 
ATOM     31  H   UNL     1      11.332   5.872   1.371  0.00  0.00    -0.081 HD
ENDBRANCH  24  30
ENDBRANCH  21  24
ENDBRANCH  18  20
BRANCH   5  32
ATOM     32  O   UNL     1      -1.339  -0.499   0.012  0.00  0.00    -0.392 OA
ATOM     33  H   UNL     1      -1.867  -0.217  -0.747  0.00  0.00    +0.210 HD
ENDBRANCH   5  32
TORSDOF 4
