REMARK  Name = ZINC22241945
REMARK  11 active torsions:
REMARK  status: ('A' for Active; 'I' for Inactive)
REMARK    1  A    between atoms: C_1  and  C_2
REMARK    2  A    between atoms: C_2  and  C_3
REMARK    3  A    between atoms: C_3  and  C_4
REMARK    4  A    between atoms: C_4  and  N_5
REMARK    5  A    between atoms: C_6  and  N_34
REMARK    6  A    between atoms: C_7  and  N_14
REMARK    7  A    between atoms: N_14  and  C_15
REMARK    8  A    between atoms: C_15  and  C_16
REMARK    9  A    between atoms: C_17  and  C_19
REMARK   10  A    between atoms: C_21  and  C_29
REMARK   11  A    between atoms: C_25  and  C_28
REMARK                            x       y       z     vdW  Elec       q    Type
REMARK                         _______ _______ _______ _____ _____    ______ ____
ROOT
ATOM      1  N   UNL     1       1.195   3.402  -0.051  0.00  0.00    -0.260 N 
ATOM      2  C   UNL     1       0.112   4.194   0.080  0.00  0.00    +0.252 C 
ATOM      3  O   UNL     1      -0.975   3.704   0.315  0.00  0.00    -0.270 OA
ENDROOT
BRANCH   2   4
ATOM      4  C   UNL     1       0.247   5.661  -0.061  0.00  0.00    +0.053 A 
ATOM      5  C   UNL     1       1.102   6.385   0.763  0.00  0.00    +0.043 A 
ATOM      6  C   UNL     1       1.198   7.771   0.594  0.00  0.00    +0.082 A 
ATOM      7  N   UNL     1       0.493   8.404  -0.334  0.00  0.00    -0.209 NA
ATOM      8  C   UNL     1      -0.334   7.762  -1.143  0.00  0.00    +0.260 A 
ATOM      9  C   UNL     1      -0.483   6.368  -1.041  0.00  0.00    +0.076 A 
ATOM     10  C   UNL     1      -1.446   5.973  -2.066  0.00  0.00    +0.091 A 
ATOM     11  N   UNL     1      -1.805   7.051  -2.696  0.00  0.00    -0.080 NA
ATOM     12  O   UNL     1      -1.142   8.170  -2.143  0.00  0.00    -0.334 OA
ATOM     13  C   UNL     1      -1.932   4.574  -2.342  0.00  0.00    +0.070 C 
BRANCH   6  14
ATOM     14  C   UNL     1       2.103   8.544   1.466  0.00  0.00    +0.038 A 
ATOM     15  C   UNL     1       2.351   9.893   1.476  0.00  0.00    +0.017 A 
ATOM     16  C   UNL     1       3.246  10.394   2.392  0.00  0.00    +0.008 A 
ATOM     17  C   UNL     1       3.857   9.541   3.256  0.00  0.00    +0.046 A 
ATOM     18  S   UNL     1       3.156   7.968   2.788  0.00  0.00    -0.095 S 
ENDBRANCH   6  14
ENDBRANCH   2   4
BRANCH   1  21
ATOM     19  N   UNL     1       1.428  -0.095   1.047  0.00  0.00    -0.280 N 
ATOM     20  C   UNL     1       1.584   1.271   1.035  0.00  0.00    +0.127 A 
ATOM     21  C   UNL     1       1.052   2.001  -0.010  0.00  0.00    +0.140 A 
ATOM     22  C   UNL     1       0.364   1.321  -1.033  0.00  0.00    +0.277 A 
ATOM     23  O   UNL     1      -0.116   1.940  -1.967  0.00  0.00    -0.266 OA
ATOM     24  N   UNL     1       0.240  -0.020  -0.973  0.00  0.00    -0.273 N 
ATOM     25  H   UNL     1      -0.295  -0.559  -1.768  0.00  0.00    +0.173 HD
ATOM     26  C   UNL     1       0.765  -0.714   0.053  0.00  0.00    +0.331 A 
ATOM     27  O   UNL     1       0.638  -1.923   0.082  0.00  0.00    -0.246 OA
BRANCH  20  28
ATOM     28  N   UNL     1       2.256   1.903   2.053  0.00  0.00    -0.343 N 
ATOM     29  H   UNL     1       2.377   2.996   2.037  0.00  0.00    +0.144 HD
ATOM     30  H   UNL     1       2.674   1.316   2.884  0.00  0.00    +0.144 HD
ENDBRANCH  20  28
BRANCH  19  31
ATOM     31  C   UNL     1       1.987  -0.882   2.149  0.00  0.00    +0.128 C 
BRANCH  31  32
ATOM     32  C   UNL     1       0.947  -1.009   3.264  0.00  0.00    +0.021 C 
BRANCH  32  34
ATOM     33  C   UNL     1       0.491  -1.957   5.530  0.00  0.00    +0.004 C 
ATOM     34  C   UNL     1       1.531  -1.831   4.415  0.00  0.00    -0.002 C 
ENDBRANCH  32  34
ENDBRANCH  31  32
ENDBRANCH  19  31
ENDBRANCH   1  21
BRANCH   1  35
ATOM     35  C   UNL     1       2.520   3.998  -0.236  0.00  0.00    +0.111 C 
ATOM     36  C   UNL     1       2.830   4.097  -1.732  0.00  0.00    +0.025 C 
ENDBRANCH   1  35
TORSDOF 8
