REMARK  Name = ZINC20508876
REMARK  6 active torsions:
REMARK  status: ('A' for Active; 'I' for Inactive)
REMARK    1  A    between atoms: C_4  and  N_7
REMARK    2  A    between atoms: N_9  and  C_28
REMARK    3  A    between atoms: C_12  and  C_15
REMARK    4  A    between atoms: C_15  and  C_16
REMARK    5  A    between atoms: N_18  and  C_19
REMARK    6  A    between atoms: C_22  and  C_25
REMARK                            x       y       z     vdW  Elec       q    Type
REMARK                         _______ _______ _______ _____ _____    ______ ____
ROOT
ATOM      1  N   UNL     1      -6.140  10.630   2.777  0.00  0.00    -0.225 NA
ATOM      2  C   UNL     1      -6.321   9.506   2.125  0.00  0.00    +0.168 C 
ATOM      3  N   UNL     1      -7.496   9.002   1.605  0.00  0.00    -0.218 N 
ATOM      4  C   UNL     1      -7.547   7.847   0.963  0.00  0.00    +0.239 C 
ATOM      5  O   UNL     1      -8.581   7.408   0.507  0.00  0.00    -0.274 OA
ATOM      6  C   UNL     1      -6.227   7.104   0.832  0.00  0.00    +0.149 C 
ATOM      7  S   UNL     1      -5.103   8.267   1.702  0.00  0.00    -0.076 S 
ENDROOT
BRANCH   1  11
ATOM      8  C   UNL     1      -2.364  11.656   4.125  0.00  0.00    +0.000 A 
ATOM      9  C   UNL     1      -3.151  12.604   3.495  0.00  0.00    +0.002 A 
ATOM     10  C   UNL     1      -4.411  12.268   3.044  0.00  0.00    +0.028 A 
ATOM     11  C   UNL     1      -4.891  10.970   3.223  0.00  0.00    +0.067 A 
ATOM     12  C   UNL     1      -4.093  10.020   3.865  0.00  0.00    +0.028 A 
ATOM     13  C   UNL     1      -2.833  10.367   4.306  0.00  0.00    +0.002 A 
ENDBRANCH   1  11
BRANCH   3  14
ATOM     14  C   UNL     1      -8.677   9.740   1.762  0.00  0.00    +0.043 A 
ATOM     15  C   UNL     1      -9.486   9.530   2.870  0.00  0.00    +0.024 A 
ATOM     16  C   UNL     1     -10.646  10.264   3.025  0.00  0.00    +0.002 A 
ATOM     17  C   UNL     1     -11.008  11.198   2.071  0.00  0.00    +0.000 A 
ATOM     18  C   UNL     1     -10.207  11.405   0.963  0.00  0.00    +0.002 A 
ATOM     19  C   UNL     1      -9.043  10.678   0.806  0.00  0.00    +0.024 A 
ENDBRANCH   3  14
BRANCH   6  20
ATOM     20  C   UNL     1      -6.281   5.750   1.543  0.00  0.00    +0.120 C 
BRANCH  20  21
ATOM     21  C   UNL     1      -4.966   5.035   1.364  0.00  0.00    +0.219 C 
ATOM     22  O   UNL     1      -4.074   5.558   0.730  0.00  0.00    -0.275 OA
ATOM     23  N   UNL     1      -4.782   3.816   1.907  0.00  0.00    -0.285 N 
ATOM     24  H   UNL     1      -5.618   3.305   2.408  0.00  0.00    +0.155 HD
BRANCH  23  25
ATOM     25  C   UNL     1      -3.532   3.203   1.836  0.00  0.00    +0.033 A 
ATOM     26  C   UNL     1      -2.376   3.976   1.883  0.00  0.00    +0.024 A 
ATOM     27  C   UNL     1      -1.140   3.373   1.812  0.00  0.00    +0.017 A 
ATOM     28  C   UNL     1      -1.048   1.984   1.694  0.00  0.00    +0.063 A 
ATOM     29  C   UNL     1      -2.211   1.210   1.643  0.00  0.00    +0.017 A 
ATOM     30  C   UNL     1      -3.444   1.819   1.719  0.00  0.00    +0.024 A 
BRANCH  28  31
ATOM     31  C   UNL     1       0.274   1.335   1.618  0.00  0.00    +0.387 C 
ATOM     32  O   UNL     1       1.285   2.008   1.658  0.00  0.00    -0.241 OA
ATOM     33  O   UNL     1       0.362  -0.005   1.510  0.00  0.00    -0.241 OA
ENDBRANCH  28  31
ENDBRANCH  23  25
ENDBRANCH  20  21
ENDBRANCH   6  20
TORSDOF 6
