REMARK  Name = ZINC15559098
REMARK  7 active torsions:
REMARK  status: ('A' for Active; 'I' for Inactive)
REMARK    1  A    between atoms: C_3  and  S_6
REMARK    2  A    between atoms: S_6  and  N_9
REMARK    3  A    between atoms: C_12  and  C_15
REMARK    4  A    between atoms: N_17  and  C_18
REMARK    5  A    between atoms: C_18  and  C_19
REMARK    6  A    between atoms: C_21  and  N_26
REMARK    7  A    between atoms: C_24  and  O_25
REMARK                            x       y       z     vdW  Elec       q    Type
REMARK                         _______ _______ _______ _____ _____    ______ ____
ROOT
ATOM      1  C   UNL     1       7.483   3.156   4.335  0.00  0.00    +0.216 C 
ATOM      2  O   UNL     1       7.892   4.276   4.110  0.00  0.00    -0.276 OA
ATOM      3  N   UNL     1       8.188   2.329   5.131  0.00  0.00    -0.311 N 
ATOM      4  H   UNL     1       7.861   1.434   5.311  0.00  0.00    +0.149 HD
ENDROOT
BRANCH   1   8
ATOM      5  N   UNL     1       4.477   2.089   1.552  0.00  0.00    -0.176 NA
ATOM      6  C   UNL     1       4.259   3.348   2.277  0.00  0.00    +0.110 C 
ATOM      7  C   UNL     1       5.593   3.813   2.869  0.00  0.00    +0.030 C 
ATOM      8  C   UNL     1       6.187   2.690   3.723  0.00  0.00    +0.077 C 
ATOM      9  C   UNL     1       6.449   1.464   2.846  0.00  0.00    +0.030 C 
ATOM     10  C   UNL     1       5.120   0.971   2.255  0.00  0.00    +0.110 C 
BRANCH   5  11
ATOM     11  S   UNL     1       4.001   1.932  -0.026  0.00  0.00    +0.067 S 
ATOM     12  O   UNL     1       4.799   0.900  -0.590  0.00  0.00    -0.152 OA
ATOM     13  O   UNL     1       3.957   3.244  -0.570  0.00  0.00    -0.152 OA
BRANCH  11  16
ATOM     14  C   UNL     1      -0.016   1.351   0.009  0.00  0.00    +0.010 A 
ATOM     15  C   UNL     1       1.183   2.038   0.002  0.00  0.00    +0.036 A 
ATOM     16  C   UNL     1       2.343   1.336  -0.013  0.00  0.00    +0.143 A 
ATOM     17  S   UNL     1       1.754  -0.349  -0.017  0.00  0.00    -0.077 S 
ATOM     18  C   UNL     1       0.002  -0.004   0.002  0.00  0.00    +0.047 A 
ENDBRANCH  11  16
ENDBRANCH   5  11
ENDBRANCH   1   8
BRANCH   3  19
ATOM     19  C   UNL     1       9.448   2.782   5.726  0.00  0.00    +0.143 C 
BRANCH  19  20
ATOM     20  C   UNL     1      10.033   1.677   6.567  0.00  0.00    +0.013 A 
ATOM     21  C   UNL     1      11.121   0.960   6.107  0.00  0.00    +0.041 A 
ATOM     22  C   UNL     1      11.658  -0.054   6.878  0.00  0.00    +0.127 A 
ATOM     23  C   UNL     1      11.108  -0.354   8.111  0.00  0.00    +0.036 A 
ATOM     24  C   UNL     1      10.020   0.359   8.575  0.00  0.00    +0.048 A 
ATOM     25  C   UNL     1       9.483   1.381   7.806  0.00  0.00    +0.122 A 
BRANCH  22  26
ATOM     26  N   UNL     1      12.823  -0.820   6.383  0.00  0.00    +0.056 N 
ATOM     27  O   UNL     1      13.305  -0.559   5.305  0.00  0.00    -0.126 OA
ATOM     28  O   UNL     1      13.294  -1.708   7.056  0.00  0.00    -0.126 OA
ENDBRANCH  22  26
BRANCH  25  29
ATOM     29  O   UNL     1       8.416   2.088   8.262  0.00  0.00    -0.506 OA
ATOM     30  H   UNL     1       7.560   1.713   8.013  0.00  0.00    +0.292 HD
ENDBRANCH  25  29
ENDBRANCH  19  20
ENDBRANCH   3  19
TORSDOF 7
