REMARK  Name = ZINC12428971
REMARK  3 active torsions:
REMARK  status: ('A' for Active; 'I' for Inactive)
REMARK    1  A    between atoms: C_3  and  N_15
REMARK    2  A    between atoms: C_6  and  N_7
REMARK    3  A    between atoms: C_8  and  C_9
REMARK                            x       y       z     vdW  Elec       q    Type
REMARK                         _______ _______ _______ _____ _____    ______ ____
ROOT
ATOM      1  C   UNL     1      -0.017   1.393   0.010  0.00  0.00    +0.030 A 
ATOM      2  C   UNL     1       1.170   2.095   0.002  0.00  0.00    +0.035 A 
ATOM      3  C   UNL     1       2.378   1.420  -0.013  0.00  0.00    +0.126 A 
ATOM      4  C   UNL     1       2.404   0.036  -0.022  0.00  0.00    +0.035 A 
ATOM      5  C   UNL     1       1.225  -0.679  -0.014  0.00  0.00    +0.030 A 
ATOM      6  C   UNL     1       0.002  -0.004   0.002  0.00  0.00    +0.064 A 
ENDROOT
BRANCH   3   7
ATOM      7  N   UNL     1       3.647   2.181  -0.022  0.00  0.00    +0.056 N 
ATOM      8  O   UNL     1       3.628   3.390  -0.015  0.00  0.00    -0.126 OA
ATOM      9  O   UNL     1       4.704   1.594  -0.036  0.00  0.00    -0.126 OA
ENDBRANCH   3   7
BRANCH   6  10
ATOM     10  N   UNL     1      -1.171  -0.707   0.010  0.00  0.00    -0.252 NA
ATOM     11  C   UNL     1      -1.328  -1.726  -0.795  0.00  0.00    +0.157 C 
BRANCH  11  12
ATOM     12  C   UNL     1      -2.543  -2.455  -0.787  0.00  0.00    +0.147 A 
ATOM     13  C   UNL     1      -2.840  -3.547  -1.574  0.00  0.00    +0.052 A 
ATOM     14  C   UNL     1      -4.143  -3.943  -1.233  0.00  0.00    +0.057 A 
ATOM     15  C   UNL     1      -4.580  -3.096  -0.273  0.00  0.00    +0.171 A 
ATOM     16  O   UNL     1      -3.614  -2.206  -0.003  0.00  0.00    -0.447 OA
ATOM     17 BR   UNL     1      -6.276  -3.161   0.559  0.00  0.00    -0.008 Br
ENDBRANCH  11  12
ENDBRANCH   6  10
TORSDOF 3
