REMARK  Name = ZINC35869625
REMARK  3 active torsions:
REMARK  status: ('A' for Active; 'I' for Inactive)
REMARK    1  A    between atoms: C_6  and  N_7
REMARK    2  A    between atoms: C_11  and  C_25
REMARK    3  A    between atoms: N_18  and  C_20
REMARK                            x       y       z     vdW  Elec       q    Type
REMARK                         _______ _______ _______ _____ _____    ______ ____
ROOT
ATOM      1  C   UNL     1      -0.017   1.378   0.010  0.00  0.00    +0.034 A 
ATOM      2  C   UNL     1       1.169   2.085   0.002  0.00  0.00    +0.025 A 
ATOM      3  C   UNL     1       2.383   1.407  -0.014  0.00  0.00    +0.033 A 
ATOM      4  C   UNL     1       2.399   0.020  -0.025  0.00  0.00    -0.023 A 
ATOM      5  C   UNL     1       1.207  -0.681  -0.015  0.00  0.00    +0.038 A 
ATOM      6  C   UNL     1       0.002  -0.004   0.002  0.00  0.00    +0.127 A 
ATOM      7  C   UNL     1       3.702  -0.725  -0.051  0.00  0.00    +0.053 C 
ATOM      8  C   UNL     1       4.815   0.052   0.619  0.00  0.00    +0.125 C 
ATOM      9  C   UNL     1       4.869   1.510   0.255  0.00  0.00    +0.071 C 
ATOM     10  N   UNL     1       3.575   2.120  -0.018  0.00  0.00    -0.329 N 
ATOM     11  C   UNL     1       3.569   3.558  -0.357  0.00  0.00    +0.087 C 
ATOM     12  C   UNL     1       4.545   3.751  -1.528  0.00  0.00    -0.059 C 
ATOM     13  N   UNL     1       5.867   3.228  -1.163  0.00  0.00    +0.384 N 
ATOM     14  C   UNL     1       5.802   1.779  -0.927  0.00  0.00    -0.055 C 
ATOM     15  H   UNL     1       6.186   3.689  -0.324  0.00  0.00    -0.081 HD
ENDROOT
BRANCH  13  16
ATOM     16  C   UNL     1       6.812   3.500  -2.254  0.00  0.00    -0.068 C 
ATOM     17  C   UNL     1       8.225   3.021  -1.861  0.00  0.00    -0.015 C 
ATOM     18  C   UNL     1       9.170   4.088  -2.466  0.00  0.00    -0.002 C 
ATOM     19  C   UNL     1       8.385   5.405  -2.246  0.00  0.00    -0.002 C 
ATOM     20  C   UNL     1       6.914   5.015  -2.499  0.00  0.00    -0.015 C 
ENDBRANCH  13  16
BRANCH   6  21
ATOM     21  N   UNL     1      -1.270  -0.760   0.012  0.00  0.00    +0.056 N 
ATOM     22  O   UNL     1      -2.325  -0.169   0.026  0.00  0.00    -0.126 OA
ATOM     23  O   UNL     1      -1.255  -1.969   0.005  0.00  0.00    -0.126 OA
ENDBRANCH   6  21
BRANCH   8  24
ATOM     24  C   UNL     1       4.642  -0.058   2.112  0.00  0.00    +0.361 C 
ATOM     25  O   UNL     1       4.663  -1.152   2.650  0.00  0.00    -0.246 OA
ATOM     26  O   UNL     1       4.481   0.948   2.783  0.00  0.00    -0.246 OA
ENDBRANCH   8  24
TORSDOF 3
