REMARK  Name = ZINC14471890
REMARK  5 active torsions:
REMARK  status: ('A' for Active; 'I' for Inactive)
REMARK    1  A    between atoms: C_4  and  C_7
REMARK    2  A    between atoms: C_7  and  N_8
REMARK    3  A    between atoms: C_9  and  C_11
REMARK    4  A    between atoms: C_18  and  C_27
REMARK    5  A    between atoms: C_31  and  N_33
REMARK                            x       y       z     vdW  Elec       q    Type
REMARK                         _______ _______ _______ _____ _____    ______ ____
ROOT
ATOM      1  C   UNL     1       1.691   2.295   0.120  0.00  0.00    +0.058 A 
ATOM      2  C   UNL     1       1.873   3.675   0.186  0.00  0.00    +0.015 A 
ATOM      3  C   UNL     1       3.145   4.203   0.222  0.00  0.00    +0.001 A 
ATOM      4  C   UNL     1       4.243   3.359   0.173  0.00  0.00    +0.006 A 
ATOM      5  C   UNL     1       4.082   1.994   0.096  0.00  0.00    -0.019 A 
ATOM      6  C   UNL     1       2.803   1.429   0.077  0.00  0.00    +0.044 A 
ATOM      7  N   UNL     1       2.554   0.067   0.043  0.00  0.00    -0.336 N 
ATOM      8  C   UNL     1       3.721  -0.820  -0.085  0.00  0.00    +0.105 C 
ATOM      9  C   UNL     1       4.825  -0.230   0.767  0.00  0.00    +0.029 C 
ATOM     10  C   UNL     1       5.240   1.077   0.022  0.00  0.00    +0.049 C 
ATOM     11  C   UNL     1       6.558   1.400   0.621  0.00  0.00    -0.023 C 
ATOM     12  C   UNL     1       7.130   0.269   1.020  0.00  0.00    -0.030 C 
ATOM     13  C   UNL     1       6.197  -0.913   0.742  0.00  0.00    +0.033 C 
ATOM     14  H   UNL     1       1.970  -0.213   0.816  0.00  0.00    +0.147 HD
ENDROOT
BRANCH   8  15
ATOM     15  C   UNL     1       4.162  -0.884  -1.525  0.00  0.00    -0.025 A 
ATOM     16  C   UNL     1       3.844   0.145  -2.392  0.00  0.00    +0.005 A 
ATOM     17  C   UNL     1       4.253   0.089  -3.711  0.00  0.00    +0.003 A 
ATOM     18  C   UNL     1       4.970  -1.002  -4.166  0.00  0.00    +0.033 A 
ATOM     19  C   UNL     1       5.282  -2.033  -3.301  0.00  0.00    +0.127 A 
ATOM     20  C   UNL     1       4.878  -1.975  -1.981  0.00  0.00    +0.038 A 
BRANCH  19  21
ATOM     21  N   UNL     1       6.050  -3.201  -3.789  0.00  0.00    +0.056 N 
ATOM     22  O   UNL     1       6.325  -4.111  -3.027  0.00  0.00    -0.126 OA
ATOM     23  O   UNL     1       6.405  -3.253  -4.953  0.00  0.00    -0.126 OA
ENDBRANCH  19  21
ENDBRANCH   8  15
BRANCH   1  25
ATOM     24  N   UNL     1      -0.739   2.561   0.125  0.00  0.00    -0.307 N 
ATOM     25  C   UNL     1       0.327   1.737   0.090  0.00  0.00    +0.246 C 
ATOM     26  O   UNL     1       0.163   0.533   0.028  0.00  0.00    -0.270 OA
ATOM     27  H   UNL     1      -0.609   3.521   0.175  0.00  0.00    +0.149 HD
BRANCH  24  28
ATOM     28  C   UNL     1      -2.095   2.007   0.089  0.00  0.00    +0.139 C 
BRANCH  28  32
ATOM     29  C   UNL     1      -4.939   5.191   0.234  0.00  0.00    +0.000 A 
ATOM     30  C   UNL     1      -4.472   4.736  -0.985  0.00  0.00    +0.000 A 
ATOM     31  C   UNL     1      -3.551   3.706  -1.032  0.00  0.00    +0.005 A 
ATOM     32  C   UNL     1      -3.098   3.130   0.140  0.00  0.00    -0.030 A 
ATOM     33  C   UNL     1      -3.570   3.580   1.359  0.00  0.00    +0.005 A 
ATOM     34  C   UNL     1      -4.486   4.614   1.406  0.00  0.00    +0.000 A 
ENDBRANCH  28  32
ENDBRANCH  24  28
ENDBRANCH   1  25
TORSDOF 5
