REMARK  Name = ZINC16080870
REMARK  7 active torsions:
REMARK  status: ('A' for Active; 'I' for Inactive)
REMARK    1  A    between atoms: C_3  and  C_19
REMARK    2  A    between atoms: C_6  and  C_7
REMARK    3  A    between atoms: C_7  and  N_8
REMARK    4  A    between atoms: C_10  and  C_15
REMARK    5  A    between atoms: N_20  and  O_21
REMARK    6  A    between atoms: O_21  and  C_22
REMARK    7  A    between atoms: N_24  and  C_25
REMARK                            x       y       z     vdW  Elec       q    Type
REMARK                         _______ _______ _______ _____ _____    ______ ____
ROOT
ATOM      1  C   UNL     1      -0.017   1.379   0.010  0.00  0.00    +0.006 A 
ATOM      2  C   UNL     1       1.167   2.088   0.002  0.00  0.00    +0.012 A 
ATOM      3  C   UNL     1       2.384   1.407  -0.013  0.00  0.00    +0.018 A 
ATOM      4  C   UNL     1       2.397   0.013  -0.021  0.00  0.00    +0.012 A 
ATOM      5  C   UNL     1       1.206  -0.685  -0.013  0.00  0.00    +0.006 A 
ATOM      6  C   UNL     1       0.002  -0.004   0.002  0.00  0.00    -0.028 A 
ENDROOT
BRANCH   3   7
ATOM      7  C   UNL     1       3.658   2.162  -0.022  0.00  0.00    +0.163 C 
ATOM      8  N   UNL     1       4.792   1.524  -0.036  0.00  0.00    -0.057 NA
ATOM      9  N   UNL     1       3.643   3.545  -0.015  0.00  0.00    -0.340 N 
ATOM     10  H   UNL     1       2.797   4.021  -0.004  0.00  0.00    +0.144 HD
ATOM     11  H   UNL     1       4.477   4.039  -0.020  0.00  0.00    +0.144 HD
BRANCH   8  12
ATOM     12  O   UNL     1       6.010   2.245  -0.044  0.00  0.00    -0.297 OA
BRANCH  12  13
ATOM     13  C   UNL     1       7.108   1.467  -0.059  0.00  0.00    +0.426 C 
ATOM     14  O   UNL     1       6.994   0.257  -0.064  0.00  0.00    -0.224 OA
ATOM     15  N   UNL     1       8.333   2.029  -0.068  0.00  0.00    -0.277 N 
ATOM     16  H   UNL     1       8.423   2.995  -0.064  0.00  0.00    +0.152 HD
BRANCH  15  17
ATOM     17  C   UNL     1       9.527   1.181  -0.084  0.00  0.00    +0.076 C 
ATOM     18  C   UNL     1       9.884   0.776   1.348  0.00  0.00    +0.022 C 
ATOM     19  C   UNL     1      11.132  -0.109   1.331  0.00  0.00    +0.002 C 
ATOM     20  C   UNL     1      12.299   0.665   0.714  0.00  0.00    +0.000 C 
ATOM     21  C   UNL     1      11.942   1.070  -0.717  0.00  0.00    +0.002 C 
ATOM     22  C   UNL     1      10.694   1.955  -0.701  0.00  0.00    +0.022 C 
ENDBRANCH  15  17
ENDBRANCH  12  13
ENDBRANCH   8  12
ENDBRANCH   3   7
BRANCH   6  23
ATOM     23  C   UNL     1      -1.294  -0.772   0.011  0.00  0.00    +0.160 C 
BRANCH  23  24
ATOM     24  N   UNL     1      -1.728  -1.014  -1.368  0.00  0.00    -0.310 N 
ATOM     25  C   UNL     1      -2.524  -0.106  -1.990  0.00  0.00    +0.101 A 
ATOM     26  C   UNL     1      -2.938  -0.308  -3.262  0.00  0.00    +0.071 A 
ATOM     27  C   UNL     1      -2.544  -1.463  -3.952  0.00  0.00    +0.019 A 
ATOM     28  C   UNL     1      -1.744  -2.373  -3.325  0.00  0.00    +0.071 A 
ATOM     29  C   UNL     1      -1.329  -2.131  -2.005  0.00  0.00    +0.252 A 
ATOM     30  O   UNL     1      -0.609  -2.934  -1.434  0.00  0.00    -0.268 OA
BRANCH  26  31
ATOM     31  C   UNL     1      -3.822   0.709  -3.938  0.00  0.00    +0.419 C 
ATOM     32  F   UNL     1      -3.033   1.588  -4.687  0.00  0.00    -0.166 F 
ATOM     33  F   UNL     1      -4.723   0.055  -4.784  0.00  0.00    -0.166 F 
ATOM     34  F   UNL     1      -4.529   1.429  -2.969  0.00  0.00    -0.166 F 
ENDBRANCH  26  31
ENDBRANCH  23  24
ENDBRANCH   6  23
TORSDOF 7
