REMARK  Name = ZINC67061886
REMARK  3 active torsions:
REMARK  status: ('A' for Active; 'I' for Inactive)
REMARK    1  A    between atoms: C_5  and  C_7
REMARK    2  A    between atoms: N_16  and  C_17
REMARK    3  A    between atoms: C_17  and  C_18
REMARK                            x       y       z     vdW  Elec       q    Type
REMARK                         _______ _______ _______ _____ _____    ______ ____
ROOT
ATOM      1  C   UNL     1       1.231  -2.186  -0.021  0.00  0.00    +0.168 C 
ATOM      2  C   UNL     1       1.345  -2.688  -1.465  0.00  0.00    +0.145 C 
ATOM      3  N   UNL     1       1.175  -4.150  -1.463  0.00  0.00    -0.281 N 
ATOM      4  C   UNL     1       0.009  -4.709  -0.760  0.00  0.00    +0.137 C 
ATOM      5  C   UNL     1      -0.040  -4.109   0.650  0.00  0.00    +0.179 C 
ATOM      6  O   UNL     1       0.022  -2.683   0.557  0.00  0.00    -0.369 OA
ATOM      7  C   UNL     1       2.059  -4.953  -2.086  0.00  0.00    +0.303 C 
ATOM      8  O   UNL     1       2.965  -4.469  -2.738  0.00  0.00    -0.253 OA
ATOM      9  N   UNL     1       1.941  -6.292  -1.988  0.00  0.00    -0.294 N 
ATOM     10  H   UNL     1       1.178  -6.678  -1.530  0.00  0.00    +0.151 HD
ENDROOT
BRANCH   1  15
ATOM     11  C   UNL     1      -0.013   1.378   0.013  0.00  0.00    +0.001 A 
ATOM     12  C   UNL     1       1.174   2.087   0.003  0.00  0.00    +0.003 A 
ATOM     13  C   UNL     1       2.381   1.414  -0.014  0.00  0.00    +0.039 A 
ATOM     14  C   UNL     1       2.401   0.029  -0.021  0.00  0.00    +0.129 A 
ATOM     15  C   UNL     1       1.211  -0.679  -0.012  0.00  0.00    +0.018 A 
ATOM     16  C   UNL     1       0.005  -0.004   0.005  0.00  0.00    +0.009 A 
ATOM     17  F   UNL     1       3.580  -0.630  -0.038  0.00  0.00    -0.205 F 
ENDBRANCH   1  15
BRANCH   9  18
ATOM     18  C   UNL     1       2.964  -7.163  -2.571  0.00  0.00    +0.162 C 
BRANCH  18  19
ATOM     19  C   UNL     1       2.597  -8.603  -2.325  0.00  0.00    +0.077 A 
ATOM     20  C   UNL     1       1.935  -9.407  -3.186  0.00  0.00    +0.117 A 
ATOM     21  N   UNL     1       1.806 -10.627  -2.582  0.00  0.00    -0.305 N 
ATOM     22  C   UNL     1       1.232 -11.800  -2.982  0.00  0.00    +0.112 A 
ATOM     23  C   UNL     1       1.242 -12.882  -2.174  0.00  0.00    +0.058 A 
ATOM     24  C   UNL     1       1.846 -12.813  -0.907  0.00  0.00    +0.025 A 
ATOM     25  C   UNL     1       2.422 -11.651  -0.497  0.00  0.00    +0.048 A 
ATOM     26  C   UNL     1       2.402 -10.531  -1.352  0.00  0.00    +0.138 A 
ATOM     27  N   UNL     1       2.878  -9.300  -1.221  0.00  0.00    -0.231 NA
ATOM     28 CL   UNL     1       0.506 -14.363  -2.702  0.00  0.00    -0.082 Cl
ENDBRANCH  18  19
ENDBRANCH   9  18
TORSDOF 3
