REMARK  Name = ZINC63350766
REMARK  9 active torsions:
REMARK  status: ('A' for Active; 'I' for Inactive)
REMARK    1  A    between atoms: C_4  and  C_7
REMARK    2  A    between atoms: C_7  and  O_8
REMARK    3  A    between atoms: O_8  and  C_9
REMARK    4  A    between atoms: N_11  and  C_12
REMARK    5  A    between atoms: C_12  and  C_14
REMARK    6  A    between atoms: C_12  and  C_24
REMARK    7  A    between atoms: C_14  and  C_15
REMARK    8  A    between atoms: C_24  and  O_26
REMARK    9  A    between atoms: O_26  and  C_27
REMARK                            x       y       z     vdW  Elec       q    Type
REMARK                         _______ _______ _______ _____ _____    ______ ____
ROOT
ATOM      1  C   UNL     1       7.061  -2.535   2.892  0.00  0.00    +0.189 C 
ENDROOT
BRANCH   1   4
ATOM      2  C   UNL     1       5.341  -1.515   1.500  0.00  0.00    +0.401 C 
ATOM      3  O   UNL     1       5.953  -1.892   0.520  0.00  0.00    -0.226 OA
ATOM      4  N   UNL     1       5.812  -1.786   2.733  0.00  0.00    -0.268 N 
ATOM      5  H   UNL     1       5.325  -1.484   3.516  0.00  0.00    +0.153 HD
BRANCH   2   6
ATOM      6  O   UNL     1       4.194  -0.826   1.354  0.00  0.00    -0.446 OA
BRANCH   6   7
ATOM      7  C   UNL     1       3.754  -0.575   0.018  0.00  0.00    +0.269 C 
BRANCH   7  11
ATOM      8  C   UNL     1       0.094   1.627   0.113  0.00  0.00    +0.000 A 
ATOM      9  C   UNL     1       1.303   2.296   0.088  0.00  0.00    +0.000 A 
ATOM     10  C   UNL     1       2.487   1.584   0.058  0.00  0.00    +0.007 A 
ATOM     11  C   UNL     1       2.462   0.202   0.052  0.00  0.00    -0.010 A 
ATOM     12  C   UNL     1       1.254  -0.468   0.078  0.00  0.00    +0.007 A 
ATOM     13  C   UNL     1       0.069   0.245   0.107  0.00  0.00    +0.000 A 
ENDBRANCH   7  11
ENDBRANCH   6   7
ENDBRANCH   2   6
ENDBRANCH   1   4
BRANCH   1  14
ATOM     14  C   UNL     1       7.066  -3.225   4.232  0.00  0.00    +0.333 C 
ATOM     15  O   UNL     1       6.123  -3.103   4.978  0.00  0.00    -0.248 OA
BRANCH  14  16
ATOM     16  O   UNL     1       8.118  -3.975   4.597  0.00  0.00    -0.424 OA
BRANCH  16  17
ATOM     17  C   UNL     1       8.126  -4.495   5.853  0.00  0.00    +0.135 A 
ATOM     18  C   UNL     1       7.347  -5.606   6.148  0.00  0.00    +0.047 A 
ATOM     19  C   UNL     1       7.353  -6.127   7.428  0.00  0.00    +0.011 A 
ATOM     20  C   UNL     1       8.130  -5.552   8.412  0.00  0.00    -0.001 A 
ATOM     21  C   UNL     1       8.927  -4.442   8.122  0.00  0.00    +0.139 A 
ATOM     22  C   UNL     1       8.915  -3.921   6.835  0.00  0.00    +0.093 A 
ATOM     23  O   UNL     1       9.738  -3.863   9.051  0.00  0.00    -0.425 OA
ATOM     24  C   UNL     1       9.831  -4.402  10.298  0.00  0.00    +0.316 C 
ATOM     25  O   UNL     1      10.081  -3.746  11.282  0.00  0.00    -0.250 OA
ATOM     26  C   UNL     1       9.596  -5.880  10.340  0.00  0.00    +0.106 C 
ATOM     27  C   UNL     1       8.148  -6.070   9.801  0.00  0.00    +0.036 C 
ATOM     28  C   UNL     1       7.860  -7.528  10.093  0.00  0.00    +0.009 C 
ATOM     29  C   UNL     1       8.669  -7.840  11.382  0.00  0.00    +0.001 C 
ATOM     30  C   UNL     1       9.509  -6.559  11.705  0.00  0.00    +0.015 C 
ENDBRANCH  16  17
ENDBRANCH  14  16
ENDBRANCH   1  14
BRANCH   1  31
ATOM     31  C   UNL     1       8.248  -1.572   2.810  0.00  0.00    +0.067 C 
BRANCH  31  32
ATOM     32  C   UNL     1       8.315  -0.974   1.429  0.00  0.00    -0.039 C 
ATOM     33  C   UNL     1       7.797   0.210   1.029  0.00  0.00    -0.001 A 
ATOM     34  C   UNL     1       7.045   1.255   1.734  0.00  0.00    +0.010 A 
ATOM     35  C   UNL     1       6.651   2.353   1.051  0.00  0.00    +0.001 A 
ATOM     36  C   UNL     1       6.942   2.519  -0.310  0.00  0.00    +0.002 A 
ATOM     37  C   UNL     1       7.629   1.603  -1.025  0.00  0.00    +0.026 A 
ATOM     38  C   UNL     1       8.092   0.409  -0.408  0.00  0.00    +0.043 A 
ATOM     39  N   UNL     1       8.766  -0.612  -0.878  0.00  0.00    -0.380 N 
ATOM     40  C   UNL     1       8.980  -1.573   0.210  0.00  0.00    +0.144 C 
ATOM     41  H   UNL     1       9.075  -0.714  -1.792  0.00  0.00    +0.160 HD
ENDBRANCH  31  32
ENDBRANCH   1  31
TORSDOF 9
