REMARK  Name = ZINC15866613
REMARK  6 active torsions:
REMARK  status: ('A' for Active; 'I' for Inactive)
REMARK    1  A    between atoms: C_1  and  C_2
REMARK    2  A    between atoms: C_4  and  C_19
REMARK    3  A    between atoms: C_6  and  S_9
REMARK    4  A    between atoms: C_7  and  C_8
REMARK    5  A    between atoms: S_9  and  N_12
REMARK    6  A    between atoms: N_12  and  C_13
REMARK                            x       y       z     vdW  Elec       q    Type
REMARK                         _______ _______ _______ _____ _____    ______ ____
ROOT
ATOM      1  C   UNL     1      -2.768   2.369  -0.198  0.00  0.00    +0.044 C 
ATOM      2  C   UNL     1      -2.053   2.299   1.126  0.00  0.00    -0.045 A 
ATOM      3  C   UNL     1      -2.720   2.631   2.288  0.00  0.00    +0.013 A 
ATOM      4  C   UNL     1      -2.056   2.572   3.511  0.00  0.00    +0.004 A 
ATOM      5  C   UNL     1      -0.722   2.171   3.555  0.00  0.00    +0.039 A 
ATOM      6  C   UNL     1      -0.066   1.837   2.388  0.00  0.00    +0.109 A 
ATOM      7  C   UNL     1      -0.730   1.898   1.176  0.00  0.00    -0.021 A 
ATOM      8  C   UNL     1      -0.009   1.532  -0.095  0.00  0.00    +0.046 C 
ENDROOT
BRANCH   4   9
ATOM      9  C   UNL     1      -2.766   2.933   4.763  0.00  0.00    +0.091 A 
ATOM     10  C   UNL     1      -4.119   3.344   4.712  0.00  0.00    +0.035 A 
ATOM     11  C   UNL     1      -4.741   3.663   5.883  0.00  0.00    +0.073 A 
ATOM     12  C   UNL     1      -3.990   3.574   7.076  0.00  0.00    +0.265 A 
ATOM     13  O   UNL     1      -4.503   3.855   8.147  0.00  0.00    -0.266 OA
ATOM     14  N   UNL     1      -2.705   3.177   7.023  0.00  0.00    -0.243 N 
ATOM     15  H   UNL     1      -2.195   3.118   7.846  0.00  0.00    +0.192 HD
ATOM     16  N   UNL     1      -2.136   2.875   5.912  0.00  0.00    -0.171 NA
ENDBRANCH   4   9
BRANCH   6  17
ATOM     17  S   UNL     1       1.621   1.331   2.441  0.00  0.00    +0.059 S 
ATOM     18  O   UNL     1       2.026   1.409   3.801  0.00  0.00    -0.153 OA
ATOM     19  O   UNL     1       1.709   0.129   1.688  0.00  0.00    -0.153 OA
BRANCH  17  20
ATOM     20  N   UNL     1       2.500   2.469   1.620  0.00  0.00    -0.187 NA
ATOM     21  H   UNL     1       2.950   2.232   0.794  0.00  0.00    +0.148 HD
BRANCH  20  22
ATOM     22  C   UNL     1       2.597   3.836   2.140  0.00  0.00    +0.077 C 
ATOM     23  C   UNL     1       1.551   4.717   1.455  0.00  0.00    +0.020 C 
ATOM     24  C   UNL     1       1.652   6.144   1.998  0.00  0.00    +0.002 C 
ATOM     25  C   UNL     1       3.050   6.699   1.717  0.00  0.00    +0.000 C 
ATOM     26  C   UNL     1       4.096   5.817   2.402  0.00  0.00    +0.002 C 
ATOM     27  C   UNL     1       3.995   4.390   1.859  0.00  0.00    +0.020 C 
ENDBRANCH  20  22
ENDBRANCH  17  20
ENDBRANCH   6  17
TORSDOF 4
