REMARK  Name = ZINC66595421
REMARK  6 active torsions:
REMARK  status: ('A' for Active; 'I' for Inactive)
REMARK    1  A    between atoms: C_1  and  C_2
REMARK    2  A    between atoms: C_2  and  N_3
REMARK    3  A    between atoms: C_9  and  C_11
REMARK    4  A    between atoms: C_11  and  C_12
REMARK    5  A    between atoms: N_20  and  C_21
REMARK    6  A    between atoms: C_21  and  C_22
REMARK                            x       y       z     vdW  Elec       q    Type
REMARK                         _______ _______ _______ _____ _____    ______ ____
ROOT
ATOM      1  C   UNL     1       4.801  -4.895   3.352  0.00  0.00    +0.001 C 
ATOM      2  C   UNL     1       5.692  -4.788   2.112  0.00  0.00    +0.023 C 
ATOM      3  C   UNL     1       7.043  -5.449   2.401  0.00  0.00    +0.109 C 
ATOM      4  N   UNL     1       6.809  -6.825   2.860  0.00  0.00    -0.286 N 
ATOM      5  C   UNL     1       5.896  -7.048   3.989  0.00  0.00    +0.109 C 
ATOM      6  C   UNL     1       4.557  -6.369   3.682  0.00  0.00    +0.023 C 
ATOM      7  C   UNL     1       7.419  -7.864   2.255  0.00  0.00    +0.303 C 
ATOM      8  O   UNL     1       8.096  -7.677   1.262  0.00  0.00    -0.253 OA
ATOM      9  N   UNL     1       7.278  -9.109   2.750  0.00  0.00    -0.292 N 
ATOM     10  H   UNL     1       6.681  -9.270   3.497  0.00  0.00    +0.151 HD
ENDROOT
BRANCH   1  11
ATOM     11  C   UNL     1       3.463  -4.205   3.079  0.00  0.00    +0.099 C 
BRANCH  11  18
ATOM     12  N   UNL     1       0.729  -0.477   1.183  0.00  0.00    +0.382 N 
ATOM     13  C   UNL     1       2.135  -0.062   1.122  0.00  0.00    -0.060 C 
ATOM     14  C   UNL     1       2.845  -0.473   2.416  0.00  0.00    +0.089 C 
ATOM     15  N   UNL     1       2.647  -1.916   2.619  0.00  0.00    -0.305 N 
ATOM     16  C   UNL     1       1.277  -2.446   2.533  0.00  0.00    +0.089 C 
ATOM     17  C   UNL     1       0.642  -1.942   1.233  0.00  0.00    -0.060 C 
ATOM     18  C   UNL     1       3.690  -2.730   2.875  0.00  0.00    +0.216 C 
ATOM     19  O   UNL     1       4.812  -2.274   2.942  0.00  0.00    -0.276 OA
ATOM     20  H   UNL     1       0.301  -0.088   2.009  0.00  0.00    -0.082 HD
BRANCH  12  22
ATOM     21  C   UNL     1       0.005   1.542   0.002  0.00  0.00    -0.017 C 
ATOM     22  C   UNL     1       0.023   0.012  -0.009  0.00  0.00    -0.082 C 
ENDBRANCH  12  22
ENDBRANCH  11  18
ENDBRANCH   1  11
BRANCH   9  23
ATOM     23  C   UNL     1       8.027 -10.221   2.160  0.00  0.00    +0.180 C 
BRANCH  23  24
ATOM     24  C   UNL     1       7.693 -11.496   2.891  0.00  0.00    +0.122 A 
ATOM     25  C   UNL     1       6.702 -12.348   2.574  0.00  0.00    +0.046 A 
ATOM     26  C   UNL     1       6.749 -13.401   3.516  0.00  0.00    +0.041 A 
ATOM     27  C   UNL     1       7.767 -13.129   4.353  0.00  0.00    +0.195 A 
ATOM     28  O   UNL     1       8.339 -11.977   3.966  0.00  0.00    -0.466 OA
ENDBRANCH  23  24
ENDBRANCH   9  23
TORSDOF 5
