REMARK  Name = ZINC39638137
REMARK  10 active torsions:
REMARK  status: ('A' for Active; 'I' for Inactive)
REMARK    1  A    between atoms: C_1  and  C_2
REMARK    2  A    between atoms: C_2  and  C_3
REMARK    3  A    between atoms: C_3  and  C_5
REMARK    4  A    between atoms: C_3  and  N_8
REMARK    5  A    between atoms: C_5  and  O_6
REMARK    6  A    between atoms: O_6  and  C_7
REMARK    7  A    between atoms: C_9  and  C_11
REMARK    8  A    between atoms: C_22  and  C_24
REMARK    9  A    between atoms: C_29  and  S_30
REMARK   10  A    between atoms: S_30  and  C_31
REMARK                            x       y       z     vdW  Elec       q    Type
REMARK                         _______ _______ _______ _____ _____    ______ ____
ROOT
ATOM      1  C   UNL     1      -0.690   1.498  -4.200  0.00  0.00    +0.100 C 
ATOM      2  C   UNL     1      -2.206   1.395  -3.917  0.00  0.00    +0.121 C 
ATOM      3  N   UNL     1      -2.605   2.764  -3.513  0.00  0.00    -0.296 N 
ATOM      4  C   UNL     1      -1.831   3.654  -4.411  0.00  0.00    +0.115 C 
ATOM      5  C   UNL     1      -0.449   2.982  -4.527  0.00  0.00    -0.004 C 
ATOM      6  C   UNL     1       0.092   3.129  -5.946  0.00  0.00    -0.010 C 
ATOM      7  C   UNL     1       0.379   4.606  -6.228  0.00  0.00    -0.082 C 
ATOM      8  N   UNL     1       1.356   5.111  -5.255  0.00  0.00    +0.379 N 
ATOM      9  C   UNL     1       0.790   5.052  -3.901  0.00  0.00    -0.082 C 
ATOM     10  C   UNL     1       0.521   3.594  -3.522  0.00  0.00    -0.010 C 
ATOM     11  C   UNL     1      -3.475   3.119  -2.546  0.00  0.00    +0.249 C 
ATOM     12  O   UNL     1      -3.961   2.270  -1.824  0.00  0.00    -0.270 OA
ATOM     13  H   UNL     1       2.191   4.546  -5.294  0.00  0.00    -0.086 HD
ATOM     14  H   UNL     1       1.589   6.067  -5.479  0.00  0.00    -0.086 HD
ENDROOT
BRANCH  11  15
ATOM     15  C   UNL     1      -3.836   4.536  -2.365  0.00  0.00    +0.069 A 
ATOM     16  C   UNL     1      -3.941   5.392  -3.467  0.00  0.00    +0.017 A 
ATOM     17  C   UNL     1      -4.284   6.713  -3.244  0.00  0.00    +0.020 A 
ATOM     18  C   UNL     1      -4.511   7.149  -1.950  0.00  0.00    +0.112 A 
ATOM     19  N   UNL     1      -4.407   6.328  -0.924  0.00  0.00    -0.248 NA
ATOM     20  C   UNL     1      -4.088   5.052  -1.081  0.00  0.00    +0.114 A 
BRANCH  20  21
ATOM     21  S   UNL     1      -3.970   3.998   0.326  0.00  0.00    -0.069 S 
BRANCH  21  22
ATOM     22  C   UNL     1      -4.213   5.083   1.693  0.00  0.00    +0.014 A 
ATOM     23  C   UNL     1      -5.477   5.226   2.251  0.00  0.00    +0.015 A 
ATOM     24  C   UNL     1      -5.664   6.077   3.323  0.00  0.00    +0.001 A 
ATOM     25  C   UNL     1      -4.596   6.786   3.840  0.00  0.00    +0.000 A 
ATOM     26  C   UNL     1      -3.336   6.646   3.286  0.00  0.00    +0.001 A 
ATOM     27  C   UNL     1      -3.140   5.792   2.218  0.00  0.00    +0.015 A 
ENDBRANCH  21  22
ENDBRANCH  20  21
ENDBRANCH  11  15
BRANCH   1  29
ATOM     28  N   UNL     1       1.313   0.526  -3.123  0.00  0.00    -0.310 N 
ATOM     29  C   UNL     1       0.100   1.095  -2.982  0.00  0.00    +0.218 C 
ATOM     30  O   UNL     1      -0.357   1.282  -1.874  0.00  0.00    -0.275 OA
ATOM     31  H   UNL     1       1.678   0.376  -4.009  0.00  0.00    +0.149 HD
BRANCH  28  32
ATOM     32  C   UNL     1       2.081   0.133  -1.939  0.00  0.00    +0.098 C 
BRANCH  32  34
ATOM     33  C   UNL     1       0.184  -1.212  -1.025  0.00  0.00    +0.006 C 
ATOM     34  C   UNL     1       1.642  -1.261  -1.486  0.00  0.00    +0.021 C 
ENDBRANCH  32  34
BRANCH  32  35
ATOM     35  C   UNL     1       3.572   0.113  -2.281  0.00  0.00    +0.181 C 
BRANCH  35  36
ATOM     36  O   UNL     1       3.824  -0.907  -3.250  0.00  0.00    -0.381 OA
ATOM     37  C   UNL     1       5.195  -1.011  -3.641  0.00  0.00    +0.194 C 
ENDBRANCH  35  36
ENDBRANCH  32  35
ENDBRANCH  28  32
ENDBRANCH   1  29
TORSDOF 8
