REMARK  Name = ZINC00986315
REMARK  6 active torsions:
REMARK  status: ('A' for Active; 'I' for Inactive)
REMARK    1  A    between atoms: C_4  and  N_7
REMARK    2  A    between atoms: C_11  and  S_15
REMARK    3  A    between atoms: S_15  and  C_16
REMARK    4  A    between atoms: C_19  and  S_21
REMARK    5  A    between atoms: S_21  and  C_22
REMARK    6  A    between atoms: C_22  and  C_23
REMARK                            x       y       z     vdW  Elec       q    Type
REMARK                         _______ _______ _______ _____ _____    ______ ____
ROOT
ATOM      1  S   UNL     1       5.644  -3.247   1.528  0.00  0.00    -0.084 S 
ENDROOT
BRANCH   1   6
ATOM      2  N   UNL     1       3.624  -0.652  -0.037  0.00  0.00    -0.209 N 
ATOM      3  C   UNL     1       4.802  -0.025  -0.139  0.00  0.00    +0.228 C 
ATOM      4  O   UNL     1       4.954   1.175  -0.226  0.00  0.00    -0.275 OA
ATOM      5  C   UNL     1       5.915  -1.050  -0.127  0.00  0.00    +0.120 C 
ATOM      6  C   UNL     1       5.167  -2.393   0.001  0.00  0.00    +0.149 C 
ATOM      7  C   UNL     1       3.711  -1.985   0.053  0.00  0.00    +0.240 C 
ATOM      8  O   UNL     1       2.772  -2.745   0.157  0.00  0.00    -0.274 OA
BRANCH   2  12
ATOM      9  C   UNL     1      -0.016   1.380   0.011  0.00  0.00    +0.000 A 
ATOM     10  C   UNL     1       0.420   0.718   1.145  0.00  0.00    +0.002 A 
ATOM     11  C   UNL     1       1.625   0.044   1.131  0.00  0.00    +0.024 A 
ATOM     12  C   UNL     1       2.399   0.031  -0.021  0.00  0.00    +0.044 A 
ATOM     13  C   UNL     1       1.959   0.696  -1.157  0.00  0.00    +0.024 A 
ATOM     14  C   UNL     1       0.753   1.369  -1.138  0.00  0.00    +0.002 A 
ENDBRANCH   2  12
ENDBRANCH   1   6
BRANCH   1  15
ATOM     15  C   UNL     1       4.816  -4.799   1.425  0.00  0.00    +0.160 A 
ATOM     16  N   UNL     1       4.032  -5.267   0.473  0.00  0.00    -0.134 NA
ATOM     17  N   UNL     1       3.482  -6.522   0.594  0.00  0.00    -0.134 NA
ATOM     18  C   UNL     1       3.742  -7.252   1.661  0.00  0.00    +0.160 A 
ATOM     19  S   UNL     1       4.821  -6.163   2.579  0.00  0.00    -0.033 S 
BRANCH  18  20
ATOM     20  S   UNL     1       3.180  -8.871   2.071  0.00  0.00    -0.092 S 
BRANCH  20  21
ATOM     21  C   UNL     1       2.133  -9.341   0.665  0.00  0.00    +0.111 C 
BRANCH  21  22
ATOM     22  C   UNL     1       1.580 -10.724   0.891  0.00  0.00    -0.037 A 
ATOM     23  C   UNL     1       2.282 -11.829   0.447  0.00  0.00    +0.006 A 
ATOM     24  C   UNL     1       1.776 -13.099   0.653  0.00  0.00    +0.020 A 
ATOM     25  C   UNL     1       0.566 -13.263   1.304  0.00  0.00    +0.041 A 
ATOM     26  C   UNL     1      -0.136 -12.157   1.748  0.00  0.00    +0.020 A 
ATOM     27  C   UNL     1       0.374 -10.888   1.546  0.00  0.00    +0.006 A 
ATOM     28 CL   UNL     1      -0.071 -14.857   1.563  0.00  0.00    -0.084 Cl
ENDBRANCH  21  22
ENDBRANCH  20  21
ENDBRANCH  18  20
ENDBRANCH   1  15
TORSDOF 6
