REMARK  Name = ZINC22811569
REMARK  11 active torsions:
REMARK  status: ('A' for Active; 'I' for Inactive)
REMARK    1  A    between atoms: C_1  and  C_2
REMARK    2  A    between atoms: C_2  and  O_3
REMARK    3  A    between atoms: O_3  and  C_4
REMARK    4  A    between atoms: C_4  and  C_6
REMARK    5  A    between atoms: C_7  and  C_20
REMARK    6  A    between atoms: C_12  and  C_14
REMARK    7  A    between atoms: C_20  and  N_21
REMARK    8  A    between atoms: N_24  and  C_27
REMARK    9  A    between atoms: C_27  and  C_28
REMARK   10  A    between atoms: C_32  and  C_39
REMARK   11  A    between atoms: C_35  and  C_38
REMARK                            x       y       z     vdW  Elec       q    Type
REMARK                         _______ _______ _______ _____ _____    ______ ____
ROOT
ATOM      1  C   UNL     1      -2.066  -1.131  -0.740  0.00  0.00    +0.079 C 
ATOM      2  C   UNL     1      -1.344  -0.645   0.292  0.00  0.00    +0.038 C 
ATOM      3  N   UNL     1      -1.896  -0.505   1.534  0.00  0.00    -0.271 N 
ATOM      4  C   UNL     1      -3.165  -0.818   1.822  0.00  0.00    +0.304 C 
ATOM      5  O   UNL     1      -3.569  -0.653   2.956  0.00  0.00    -0.252 OA
ATOM      6  N   UNL     1      -4.009  -1.315   0.896  0.00  0.00    -0.288 N 
ATOM      7  C   UNL     1      -3.509  -1.510  -0.476  0.00  0.00    +0.144 C 
ATOM      8  H   UNL     1      -1.289  -0.115   2.365  0.00  0.00    +0.156 HD
ATOM      9  H   UNL     1      -5.049  -1.573   1.143  0.00  0.00    +0.151 HD
ENDROOT
BRANCH   7  10
ATOM     10  C   UNL     1      -3.680  -2.965  -0.830  0.00  0.00    -0.023 A 
ATOM     11  C   UNL     1      -3.271  -3.944   0.055  0.00  0.00    +0.006 A 
ATOM     12  C   UNL     1      -3.432  -5.279  -0.269  0.00  0.00    +0.000 A 
ATOM     13  C   UNL     1      -3.993  -5.633  -1.481  0.00  0.00    +0.000 A 
ATOM     14  C   UNL     1      -4.397  -4.653  -2.368  0.00  0.00    +0.000 A 
ATOM     15  C   UNL     1      -4.240  -3.319  -2.043  0.00  0.00    +0.006 A 
ENDBRANCH   7  10
BRANCH   1  16
ATOM     16  C   UNL     1      -1.494  -1.281  -2.025  0.00  0.00    +0.339 C 
ATOM     17  O   UNL     1      -1.727  -0.462  -2.894  0.00  0.00    -0.245 OA
BRANCH  16  18
ATOM     18  O   UNL     1      -0.691  -2.333  -2.288  0.00  0.00    -0.462 OA
BRANCH  18  20
ATOM     19  C   UNL     1       0.730  -3.670  -3.714  0.00  0.00    +0.048 C 
ATOM     20  C   UNL     1      -0.148  -2.422  -3.607  0.00  0.00    +0.229 C 
ENDBRANCH  18  20
ENDBRANCH  16  18
ENDBRANCH   1  16
BRANCH   2  21
ATOM     21  C   UNL     1       0.095  -0.256   0.073  0.00  0.00    +0.135 C 
BRANCH  21  22
ATOM     22  N   UNL     1       0.249   1.190   0.282  0.00  0.00    -0.300 NA
ATOM     23  C   UNL     1      -0.475   1.951  -0.745  0.00  0.00    +0.066 C 
ATOM     24  C   UNL     1      -0.356   3.447  -0.447  0.00  0.00    -0.063 C 
ATOM     25  N   UNL     1       1.063   3.827  -0.418  0.00  0.00    +0.387 N 
ATOM     26  C   UNL     1       1.788   3.066   0.609  0.00  0.00    -0.063 C 
ATOM     27  C   UNL     1       1.669   1.569   0.311  0.00  0.00    +0.066 C 
ATOM     28  H   UNL     1       1.501   3.579  -1.396  0.00  0.00    -0.081 HD
BRANCH  25  29
ATOM     29  C   UNL     1       1.217   5.272  -0.209  0.00  0.00    +0.019 C 
BRANCH  29  30
ATOM     30  C   UNL     1       0.676   6.013  -1.405  0.00  0.00    +0.199 C 
ATOM     31  O   UNL     1       0.208   5.398  -2.339  0.00  0.00    -0.278 OA
ATOM     32  N   UNL     1       0.712   7.360  -1.436  0.00  0.00    -0.303 N 
ATOM     33  C   UNL     1       0.188   8.097  -2.594  0.00  0.00    +0.111 C 
ATOM     34  C   UNL     1       1.274   9.049  -3.106  0.00  0.00    +0.004 C 
ATOM     35  C   UNL     1       1.748   9.940  -1.956  0.00  0.00    +0.009 C 
ATOM     36  C   UNL     1       2.349   9.072  -0.849  0.00  0.00    +0.004 C 
ATOM     37  C   UNL     1       1.270   8.120  -0.309  0.00  0.00    +0.111 C 
ATOM     38  C   UNL     1       2.853   9.966   0.286  0.00  0.00    +0.009 C 
ATOM     39  C   UNL     1       0.703   9.919  -4.226  0.00  0.00    +0.009 C 
ENDBRANCH  29  30
ENDBRANCH  25  29
ENDBRANCH  21  22
ENDBRANCH   2  21
TORSDOF 8
