REMARK  Name = ZINC04436496
REMARK  9 active torsions:
REMARK  status: ('A' for Active; 'I' for Inactive)
REMARK    1  A    between atoms: C_1  and  C_2
REMARK    2  A    between atoms: C_5  and  C_9
REMARK    3  A    between atoms: C_6  and  C_8
REMARK    4  A    between atoms: C_11  and  C_25
REMARK    5  A    between atoms: C_12  and  C_17
REMARK    6  A    between atoms: C_17  and  S_18
REMARK    7  A    between atoms: S_18  and  C_19
REMARK    8  A    between atoms: C_25  and  O_27
REMARK    9  A    between atoms: O_27  and  C_28
REMARK                            x       y       z     vdW  Elec       q    Type
REMARK                         _______ _______ _______ _____ _____    ______ ____
ROOT
ATOM      1  C   UNL     1       0.251   0.041   2.493  0.00  0.00    +0.144 C 
ATOM      2  C   UNL     1      -1.117   0.345   3.070  0.00  0.00    +0.079 C 
ATOM      3  C   UNL     1      -1.409  -0.153   4.291  0.00  0.00    +0.034 C 
ATOM      4  N   UNL     1      -0.502  -0.906   4.981  0.00  0.00    -0.272 N 
ATOM      5  C   UNL     1       0.719  -1.204   4.519  0.00  0.00    +0.304 C 
ATOM      6  O   UNL     1       1.458  -1.881   5.207  0.00  0.00    -0.252 OA
ATOM      7  N   UNL     1       1.156  -0.779   3.317  0.00  0.00    -0.288 N 
ATOM      8  H   UNL     1      -0.756  -1.242   5.854  0.00  0.00    +0.156 HD
ATOM      9  H   UNL     1       2.044  -1.007   3.002  0.00  0.00    +0.151 HD
ENDROOT
BRANCH   1  14
ATOM     10  C   UNL     1      -0.505  -2.667  -2.555  0.00  0.00    +0.044 C 
ATOM     11  C   UNL     1      -0.308  -1.961  -1.238  0.00  0.00    -0.050 A 
ATOM     12  C   UNL     1      -0.206  -2.693  -0.070  0.00  0.00    +0.004 A 
ATOM     13  C   UNL     1      -0.025  -2.045   1.138  0.00  0.00    +0.006 A 
ATOM     14  C   UNL     1       0.054  -0.665   1.177  0.00  0.00    -0.020 A 
ATOM     15  C   UNL     1      -0.048   0.066   0.009  0.00  0.00    -0.045 A 
ATOM     16  C   UNL     1      -0.235  -0.581  -1.198  0.00  0.00    +0.007 A 
ATOM     17  C   UNL     1       0.038   1.570   0.051  0.00  0.00    +0.044 C 
ENDBRANCH   1  14
BRANCH   2  18
ATOM     18  C   UNL     1      -2.055   1.125   2.354  0.00  0.00    +0.339 C 
ATOM     19  O   UNL     1      -2.727   0.615   1.478  0.00  0.00    -0.245 OA
BRANCH  18  20
ATOM     20  O   UNL     1      -2.205   2.434   2.644  0.00  0.00    -0.465 OA
ATOM     21  C   UNL     1      -3.171   3.161   1.882  0.00  0.00    +0.280 C 
ENDBRANCH  18  20
ENDBRANCH   2  18
BRANCH   3  22
ATOM     22  C   UNL     1      -2.758   0.125   4.901  0.00  0.00    +0.127 C 
BRANCH  22  23
ATOM     23  S   UNL     1      -3.789  -1.364   4.796  0.00  0.00    -0.091 S 
BRANCH  23  24
ATOM     24  C   UNL     1      -5.311  -0.882   5.541  0.00  0.00    +0.160 A 
ATOM     25  N   UNL     1      -5.655   0.280   6.063  0.00  0.00    -0.133 NA
ATOM     26  N   UNL     1      -6.912   0.443   6.599  0.00  0.00    -0.125 NA
ATOM     27  C   UNL     1      -7.766  -0.562   6.589  0.00  0.00    +0.180 A 
ATOM     28  S   UNL     1      -6.803  -1.833   5.785  0.00  0.00    -0.025 S 
ATOM     29  N   UNL     1      -9.069  -0.615   7.070  0.00  0.00    -0.336 N 
ATOM     30  H   UNL     1      -9.465   0.167   7.484  0.00  0.00    +0.144 HD
ATOM     31  H   UNL     1      -9.582  -1.435   6.992  0.00  0.00    +0.144 HD
ENDBRANCH  23  24
ENDBRANCH  22  23
ENDBRANCH   3  22
TORSDOF 6
