REMARK  Name = ZINC52723993
REMARK  6 active torsions:
REMARK  status: ('A' for Active; 'I' for Inactive)
REMARK    1  A    between atoms: C_1  and  C_2
REMARK    2  A    between atoms: C_2  and  C_3
REMARK    3  A    between atoms: C_3  and  C_4
REMARK    4  A    between atoms: C_4  and  N_5
REMARK    5  A    between atoms: N_11  and  C_14
REMARK    6  A    between atoms: C_14  and  C_15
REMARK                            x       y       z     vdW  Elec       q    Type
REMARK                         _______ _______ _______ _____ _____    ______ ____
ROOT
ATOM      1  N   UNL     1       1.458  -5.047   1.661  0.00  0.00    -0.299 N 
ATOM      2  C   UNL     1       1.958  -4.140   2.524  0.00  0.00    +0.302 C 
ATOM      3  O   UNL     1       1.972  -2.961   2.226  0.00  0.00    -0.253 OA
ATOM      4  N   UNL     1       2.440  -4.539   3.717  0.00  0.00    -0.283 N 
ATOM      5  C   UNL     1       2.883  -3.558   4.719  0.00  0.00    +0.124 C 
ATOM      6  C   UNL     1       2.200  -3.882   6.052  0.00  0.00    +0.104 C 
ATOM      7  N   UNL     1       2.456  -5.285   6.402  0.00  0.00    -0.294 NA
ATOM      8  C   UNL     1       1.869  -6.197   5.411  0.00  0.00    +0.104 C 
ATOM      9  C   UNL     1       2.533  -5.968   4.054  0.00  0.00    +0.124 C 
ATOM     10  H   UNL     1       1.511  -5.993   1.868  0.00  0.00    +0.150 HD
ENDROOT
BRANCH   1  11
ATOM     11  C   UNL     1       0.836  -4.604   0.411  0.00  0.00    +0.106 C 
BRANCH  11  12
ATOM     12  C   UNL     1       0.356  -5.823  -0.380  0.00  0.00    +0.018 C 
BRANCH  12  14
ATOM     13  C   UNL     1      -0.773  -6.579  -2.476  0.00  0.00    +0.004 C 
ATOM     14  C   UNL     1      -0.294  -5.360  -1.685  0.00  0.00    -0.002 C 
ENDBRANCH  12  14
ENDBRANCH  11  12
ENDBRANCH   1  11
BRANCH   7  15
ATOM     15  C   UNL     1       1.966  -5.589   7.753  0.00  0.00    +0.138 C 
BRANCH  15  16
ATOM     16  C   UNL     1       2.774  -4.820   8.766  0.00  0.00    +0.037 A 
ATOM     17  C   UNL     1       2.181  -3.853   9.549  0.00  0.00    +0.093 A 
ATOM     18  C   UNL     1       2.945  -3.152  10.481  0.00  0.00    +0.259 A 
ATOM     19  O   UNL     1       2.425  -2.294  11.178  0.00  0.00    -0.267 OA
ATOM     20  N   UNL     1       4.277  -3.426  10.615  0.00  0.00    -0.264 N 
ATOM     21  C   UNL     1       5.157  -2.825  11.483  0.00  0.00    +0.104 A 
ATOM     22  C   UNL     1       6.441  -3.182  11.519  0.00  0.00    +0.067 A 
ATOM     23  S   UNL     1       6.501  -4.456  10.268  0.00  0.00    -0.059 S 
ATOM     24  C   UNL     1       4.785  -4.401   9.798  0.00  0.00    +0.158 A 
ATOM     25  N   UNL     1       4.072  -5.066   8.924  0.00  0.00    -0.338 N 
ATOM     26  H   UNL     1       4.498  -5.748   8.381  0.00  0.00    +0.168 HD
ENDBRANCH  15  16
ENDBRANCH   7  15
TORSDOF 5
