REMARK  Name = ZINC04257861
REMARK  10 active torsions:
REMARK  status: ('A' for Active; 'I' for Inactive)
REMARK    1  A    between atoms: C_1  and  C_2
REMARK    2  A    between atoms: C_2  and  C_4
REMARK    3  A    between atoms: C_2  and  O_7
REMARK    4  A    between atoms: O_7  and  C_8
REMARK    5  A    between atoms: C_10  and  N_42
REMARK    6  A    between atoms: C_12  and  O_30
REMARK    7  A    between atoms: C_20  and  C_24
REMARK    8  A    between atoms: O_30  and  C_31
REMARK    9  A    between atoms: C_31  and  C_32
REMARK   10  A    between atoms: C_43  and  C_45
REMARK                            x       y       z     vdW  Elec       q    Type
REMARK                         _______ _______ _______ _____ _____    ______ ____
ROOT
ATOM      1  C   UNL     1      -1.642  -1.094  -0.615  0.00  0.00    +0.176 C 
ATOM      2  C   UNL     1      -2.005   0.309  -1.118  0.00  0.00    +0.160 C 
ATOM      3  C   UNL     1      -3.127   0.891  -0.256  0.00  0.00    +0.274 C 
ATOM      4  O   UNL     1      -4.254   0.010  -0.259  0.00  0.00    -0.341 OA
ATOM      5  C   UNL     1      -3.961  -1.284   0.264  0.00  0.00    +0.178 C 
ATOM      6  C   UNL     1      -2.903  -1.957  -0.627  0.00  0.00    +0.183 C 
ATOM      7  O   UNL     1      -2.638  -3.265  -0.119  0.00  0.00    -0.339 OA
ATOM      8  C   UNL     1      -3.800  -4.100  -0.083  0.00  0.00    +0.282 C 
ATOM      9  O   UNL     1      -4.816  -3.492   0.716  0.00  0.00    -0.345 OA
ATOM     10  C   UNL     1      -5.208  -2.169   0.282  0.00  0.00    +0.197 C 
ENDROOT
BRANCH   8  11
ATOM     11  C   UNL     1      -4.320  -4.294  -1.484  0.00  0.00    +0.008 A 
ATOM     12  C   UNL     1      -3.445  -4.279  -2.554  0.00  0.00    +0.008 A 
ATOM     13  C   UNL     1      -3.922  -4.457  -3.840  0.00  0.00    +0.000 A 
ATOM     14  C   UNL     1      -5.274  -4.651  -4.055  0.00  0.00    +0.000 A 
ATOM     15  C   UNL     1      -6.148  -4.667  -2.985  0.00  0.00    +0.000 A 
ATOM     16  C   UNL     1      -5.671  -4.493  -1.699  0.00  0.00    +0.008 A 
ENDBRANCH   8  11
BRANCH   2  17
ATOM     17  N   UNL     1      -0.827   1.177  -1.035  0.00  0.00    -0.305 N 
ATOM     18  C   UNL     1      -0.706   2.230  -1.867  0.00  0.00    +0.210 C 
ATOM     19  O   UNL     1      -1.572   2.460  -2.684  0.00  0.00    -0.276 OA
ATOM     20  C   UNL     1       0.506   3.122  -1.781  0.00  0.00    +0.109 C 
ATOM     21  H   UNL     1      -0.135   0.993  -0.381  0.00  0.00    +0.149 HD
ENDBRANCH   2  17
BRANCH   1  22
ATOM     22  O   UNL     1      -1.130  -1.009   0.716  0.00  0.00    -0.358 OA
BRANCH  22  24
ATOM     23  C   UNL     1       1.257  -1.383   0.662  0.00  0.00    +0.050 C 
ATOM     24  C   UNL     1      -0.113  -1.969   1.009  0.00  0.00    +0.228 C 
BRANCH  24  25
ATOM     25  C   UNL     1      -0.155  -2.314   2.476  0.00  0.00    +0.384 C 
ATOM     26  O   UNL     1      -0.917  -1.720   3.220  0.00  0.00    -0.243 OA
ATOM     27  O   UNL     1       0.573  -3.186   2.918  0.00  0.00    -0.243 OA
ENDBRANCH  24  25
ENDBRANCH  22  24
ENDBRANCH   1  22
BRANCH   3  28
ATOM     28  O   UNL     1      -2.658   1.055   1.085  0.00  0.00    -0.345 OA
BRANCH  28  29
ATOM     29  C   UNL     1      -3.593   1.698   1.952  0.00  0.00    +0.198 C 
BRANCH  29  30
ATOM     30  C   UNL     1      -2.999   1.817   3.332  0.00  0.00    -0.021 A 
ATOM     31  C   UNL     1      -3.192   0.790   4.254  0.00  0.00    +0.006 A 
ATOM     32  C   UNL     1      -2.669   0.866   5.508  0.00  0.00    +0.009 A 
ATOM     33  C   UNL     1      -1.922   1.996   5.882  0.00  0.00    -0.018 A 
ATOM     34  C   UNL     1      -1.365   2.110   7.168  0.00  0.00    +0.008 A 
ATOM     35  C   UNL     1      -0.647   3.219   7.495  0.00  0.00    +0.001 A 
ATOM     36  C   UNL     1      -0.454   4.246   6.573  0.00  0.00    +0.001 A 
ATOM     37  C   UNL     1      -0.977   4.170   5.319  0.00  0.00    +0.008 A 
ATOM     38  C   UNL     1      -1.725   3.041   4.945  0.00  0.00    -0.018 A 
ATOM     39  C   UNL     1      -2.276   2.924   3.657  0.00  0.00    +0.014 A 
ENDBRANCH  29  30
ENDBRANCH  28  29
ENDBRANCH   3  28
TORSDOF 8
