REMARK  Name = ZINC09283036
REMARK  10 active torsions:
REMARK  status: ('A' for Active; 'I' for Inactive)
REMARK    1  A    between atoms: C_1  and  C_2
REMARK    2  A    between atoms: C_2  and  N_52
REMARK    3  A    between atoms: C_3  and  C_4
REMARK    4  A    between atoms: C_3  and  N_52
REMARK    5  A    between atoms: C_16  and  C_17
REMARK    6  A    between atoms: C_16  and  N_52
REMARK    7  A    between atoms: C_23  and  C_32
REMARK    8  A    between atoms: C_24  and  C_28
REMARK    9  A    between atoms: C_28  and  O_30
REMARK   10  A    between atoms: O_30  and  C_31
REMARK                            x       y       z     vdW  Elec       q    Type
REMARK                         _______ _______ _______ _____ _____    ______ ____
ROOT
ATOM      1  C   UNL     1       0.663  -0.593  -1.446  0.00  0.00    -0.003 C 
ENDROOT
BRANCH   1   2
ATOM      2  C   UNL     1       2.125  -0.232  -1.509  0.00  0.00    +0.094 A 
ATOM      3  N   UNL     1       2.861  -0.646  -2.570  0.00  0.00    -0.312 N 
ATOM      4  H   UNL     1       2.435  -1.167  -3.269  0.00  0.00    +0.170 HD
ATOM      5  C   UNL     1       4.170  -0.345  -2.676  0.00  0.00    +0.260 A 
ATOM      6  O   UNL     1       4.821  -0.718  -3.636  0.00  0.00    -0.267 OA
ATOM      7  C   UNL     1       4.798   0.447  -1.594  0.00  0.00    +0.076 A 
ATOM      8  C   UNL     1       6.120   0.878  -1.469  0.00  0.00    -0.015 A 
ATOM      9  C   UNL     1       6.496   1.606  -0.378  0.00  0.00    +0.102 A 
ATOM     10  S   UNL     1       4.981   1.729   0.556  0.00  0.00    -0.062 S 
ATOM     11  C   UNL     1       3.928   0.814  -0.541  0.00  0.00    +0.116 A 
ATOM     12  N   UNL     1       2.647   0.467  -0.538  0.00  0.00    -0.229 NA
ATOM     13  C   UNL     1       7.128   0.541  -2.537  0.00  0.00    +0.046 C 
BRANCH   9  14
ATOM     14  C   UNL     1       7.816   2.151  -0.054  0.00  0.00    +0.346 C 
ATOM     15  O   UNL     1       8.751   1.971  -0.811  0.00  0.00    -0.244 OA
BRANCH  14  16
ATOM     16  O   UNL     1       7.996   2.853   1.084  0.00  0.00    -0.464 OA
ATOM     17  C   UNL     1       9.331   3.364   1.340  0.00  0.00    +0.280 C 
ENDBRANCH  14  16
ENDBRANCH   9  14
ENDBRANCH   1   2
BRANCH   1  18
ATOM     18  N   UNL     1       0.093  -0.056  -0.193  0.00  0.00    +0.389 N 
ATOM     19  H   UNL     1       0.678  -0.356   0.595  0.00  0.00    -0.081 HD
BRANCH  18  21
ATOM     20  C   UNL     1      -0.072   1.956   1.186  0.00  0.00    -0.017 C 
ATOM     21  C   UNL     1       0.072   1.422  -0.240  0.00  0.00    -0.081 C 
ENDBRANCH  18  21
BRANCH  18  22
ATOM     22  C   UNL     1      -1.278  -0.574   0.001  0.00  0.00    -0.003 C 
BRANCH  22  23
ATOM     23  C   UNL     1      -1.195  -2.023   0.403  0.00  0.00    +0.094 A 
ATOM     24  N   UNL     1      -2.351  -2.726   0.526  0.00  0.00    -0.312 N 
ATOM     25  H   UNL     1      -3.200  -2.288   0.355  0.00  0.00    +0.170 HD
ATOM     26  C   UNL     1      -2.331  -4.030   0.885  0.00  0.00    +0.259 A 
ATOM     27  O   UNL     1      -3.359  -4.671   0.998  0.00  0.00    -0.267 OA
ATOM     28  C   UNL     1      -1.017  -4.644   1.132  0.00  0.00    +0.065 A 
ATOM     29  C   UNL     1      -0.886  -5.980   1.506  0.00  0.00    +0.015 A 
ATOM     30  C   UNL     1       0.369  -6.503   1.724  0.00  0.00    +0.001 A 
ATOM     31  C   UNL     1       1.501  -5.711   1.575  0.00  0.00    +0.002 A 
ATOM     32  C   UNL     1       1.393  -4.389   1.207  0.00  0.00    +0.028 A 
ATOM     33  C   UNL     1       0.131  -3.835   0.980  0.00  0.00    +0.078 A 
ATOM     34  N   UNL     1      -0.021  -2.539   0.610  0.00  0.00    -0.236 NA
ENDBRANCH  22  23
ENDBRANCH  18  22
ENDBRANCH   1  18
TORSDOF 7
