REMARK  Name = ZINC40007242
REMARK  4 active torsions:
REMARK  status: ('A' for Active; 'I' for Inactive)
REMARK    1  A    between atoms: C_3  and  C_17
REMARK    2  A    between atoms: C_5  and  O_7
REMARK    3  A    between atoms: O_7  and  C_8
REMARK    4  A    between atoms: C_8  and  C_9
REMARK                            x       y       z     vdW  Elec       q    Type
REMARK                         _______ _______ _______ _____ _____    ______ ____
ROOT
ATOM      1  C   UNL     1       0.002   1.428  -0.480  0.00  0.00    +0.004 A 
ATOM      2  C   UNL     1       1.198   2.113  -0.425  0.00  0.00    +0.008 A 
ATOM      3  C   UNL     1       2.374   1.438  -0.081  0.00  0.00    -0.020 A 
ATOM      4  C   UNL     1       2.329   0.070   0.207  0.00  0.00    +0.053 A 
ATOM      5  C   UNL     1       1.122  -0.605   0.148  0.00  0.00    +0.122 A 
ATOM      6  C   UNL     1      -0.040   0.075  -0.195  0.00  0.00    +0.046 A 
ENDROOT
BRANCH   3   7
ATOM      7  C   UNL     1       3.651   2.163  -0.022  0.00  0.00    +0.028 C 
ATOM      8  C   UNL     1       3.694   3.421   0.480  0.00  0.00    +0.078 C 
ATOM      9  C   UNL     1       2.639   4.190   1.173  0.00  0.00    +0.256 C 
ATOM     10  O   UNL     1       1.536   3.717   1.375  0.00  0.00    -0.269 OA
ATOM     11  N   UNL     1       2.949   5.414   1.566  0.00  0.00    -0.261 N 
ATOM     12  C   UNL     1       4.207   5.930   1.327  0.00  0.00    +0.158 C 
ATOM     13  N   UNL     1       4.674   7.106   1.643  0.00  0.00    -0.279 NA
ATOM     14  S   UNL     1       5.042   4.594   0.489  0.00  0.00    -0.049 S 
ATOM     15  H   UNL     1       2.287   5.954   2.025  0.00  0.00    +0.157 HD
ATOM     16  H   UNL     1       5.586   7.344   1.414  0.00  0.00    +0.189 HD
ENDBRANCH   3   7
BRANCH   5  17
ATOM     17  O   UNL     1       1.073  -1.934   0.427  0.00  0.00    -0.487 OA
BRANCH  17  18
ATOM     18  C   UNL     1      -0.205  -2.567   0.347  0.00  0.00    +0.266 C 
BRANCH  18  19
ATOM     19  C   UNL     1      -0.064  -4.029   0.687  0.00  0.00    +0.008 A 
ATOM     20  C   UNL     1       1.175  -4.546   1.014  0.00  0.00    +0.010 A 
ATOM     21  C   UNL     1       1.306  -5.886   1.325  0.00  0.00    +0.020 A 
ATOM     22  C   UNL     1       0.195  -6.711   1.310  0.00  0.00    +0.042 A 
ATOM     23  C   UNL     1      -1.046  -6.195   0.983  0.00  0.00    +0.040 A 
ATOM     24  C   UNL     1      -1.176  -4.852   0.676  0.00  0.00    +0.049 A 
ATOM     25 CL   UNL     1      -2.734  -4.201   0.271  0.00  0.00    -0.083 Cl
ATOM     26 CL   UNL     1       0.359  -8.395   1.700  0.00  0.00    -0.083 Cl
ENDBRANCH  18  19
ENDBRANCH  17  18
ENDBRANCH   5  17
TORSDOF 4
