REMARK  Name = ZINC09448580
REMARK  6 active torsions:
REMARK  status: ('A' for Active; 'I' for Inactive)
REMARK    1  A    between atoms: C_6  and  C_7
REMARK    2  A    between atoms: C_7  and  O_9
REMARK    3  A    between atoms: O_9  and  C_10
REMARK    4  A    between atoms: C_10  and  C_11
REMARK    5  A    between atoms: N_13  and  C_14
REMARK    6  A    between atoms: C_19  and  N_20
REMARK                            x       y       z     vdW  Elec       q    Type
REMARK                         _______ _______ _______ _____ _____    ______ ____
ROOT
ATOM      1  O   UNL     1       4.856   0.067  -0.065  0.00  0.00    -0.452 OA
ENDROOT
BRANCH   1   2
ATOM      2  C   UNL     1       3.707  -0.636  -0.066  0.00  0.00    +0.340 C 
ATOM      3  O   UNL     1       3.738  -1.851  -0.091  0.00  0.00    -0.245 OA
BRANCH   2   9
ATOM      4  C   UNL     1       2.379   1.465  -0.008  0.00  0.00    +0.016 A 
ATOM      5  C   UNL     1       1.167   2.120   0.019  0.00  0.00    +0.017 A 
ATOM      6  C   UNL     1      -0.016   1.394   0.015  0.00  0.00    +0.030 A 
ATOM      7  C   UNL     1       0.003  -0.006  -0.010  0.00  0.00    +0.048 A 
ATOM      8  C   UNL     1       1.221  -0.663  -0.038  0.00  0.00    +0.039 A 
ATOM      9  C   UNL     1       2.413   0.068  -0.036  0.00  0.00    +0.061 A 
ATOM     10  N   UNL     1      -1.175  -0.750  -0.003  0.00  0.00    -0.284 N 
ATOM     11  C   UNL     1      -2.378  -0.322  -0.374  0.00  0.00    +0.227 C 
ATOM     12  O   UNL     1      -3.306  -1.102  -0.318  0.00  0.00    -0.275 OA
ATOM     13  C   UNL     1      -2.653   1.075  -0.860  0.00  0.00    +0.170 C 
ATOM     14  S   UNL     1      -1.571   2.229   0.035  0.00  0.00    -0.114 S 
ATOM     15  H   UNL     1      -1.111  -1.668   0.303  0.00  0.00    +0.155 HD
ENDBRANCH   2   9
ENDBRANCH   1   2
BRANCH   1  16
ATOM     16  C   UNL     1       6.094  -0.692  -0.095  0.00  0.00    +0.328 C 
BRANCH  16  17
ATOM     17  C   UNL     1       7.265   0.256  -0.089  0.00  0.00    +0.255 C 
ATOM     18  O   UNL     1       7.076   1.454  -0.062  0.00  0.00    -0.272 OA
ATOM     19  N   UNL     1       8.523  -0.227  -0.114  0.00  0.00    -0.281 N 
ATOM     20  H   UNL     1       8.677  -1.183  -0.054  0.00  0.00    +0.155 HD
BRANCH  19  21
ATOM     21  C   UNL     1       9.608   0.651  -0.225  0.00  0.00    +0.064 A 
ATOM     22  C   UNL     1       9.438   1.895  -0.819  0.00  0.00    +0.027 A 
ATOM     23  C   UNL     1      10.509   2.759  -0.927  0.00  0.00    +0.022 A 
ATOM     24  C   UNL     1      11.752   2.387  -0.445  0.00  0.00    +0.043 A 
ATOM     25  C   UNL     1      11.924   1.148   0.147  0.00  0.00    +0.054 A 
ATOM     26  C   UNL     1      10.854   0.282   0.263  0.00  0.00    +0.149 A 
ATOM     27 CL   UNL     1      13.097   3.475  -0.583  0.00  0.00    -0.083 Cl
BRANCH  26  28
ATOM     28  N   UNL     1      11.037  -1.041   0.902  0.00  0.00    +0.058 N 
ATOM     29  O   UNL     1      12.107  -1.329   1.410  0.00  0.00    -0.126 OA
ATOM     30  O   UNL     1      10.120  -1.841   0.920  0.00  0.00    -0.126 OA
ENDBRANCH  26  28
ENDBRANCH  19  21
ENDBRANCH  16  17
ENDBRANCH   1  16
TORSDOF 6
