REMARK  Name = ZINC09780705
REMARK  7 active torsions:
REMARK  status: ('A' for Active; 'I' for Inactive)
REMARK    1  A    between atoms: C_1  and  C_2
REMARK    2  A    between atoms: C_2  and  C_4
REMARK    3  A    between atoms: C_2  and  O_33
REMARK    4  A    between atoms: C_7  and  N_10
REMARK    5  A    between atoms: C_11  and  C_13
REMARK    6  A    between atoms: C_19  and  C_28
REMARK    7  A    between atoms: C_22  and  C_24
REMARK                            x       y       z     vdW  Elec       q    Type
REMARK                         _______ _______ _______ _____ _____    ______ ____
ROOT
ATOM      1  C   UNL     1       4.708  -2.863   5.663  0.00  0.00    +0.096 A 
ATOM      2  C   UNL     1       4.146  -3.088   6.946  0.00  0.00    +0.149 A 
ATOM      3  N   UNL     1       5.061  -3.627   7.705  0.00  0.00    -0.177 NA
ATOM      4  N   UNL     1       6.236  -3.776   6.970  0.00  0.00    -0.238 N 
ATOM      5  C   UNL     1       6.015  -3.310   5.718  0.00  0.00    +0.130 A 
ATOM      6  N   UNL     1       6.985  -3.315   4.731  0.00  0.00    -0.319 N 
ATOM      7  C   UNL     1       8.366  -3.590   5.176  0.00  0.00    +0.140 C 
ATOM      8  C   UNL     1       8.331  -4.749   6.180  0.00  0.00    +0.066 C 
ATOM      9  C   UNL     1       7.517  -4.336   7.414  0.00  0.00    +0.215 C 
ATOM     10  H   UNL     1       6.771  -3.147   3.801  0.00  0.00    +0.148 HD
ENDROOT
BRANCH   7  11
ATOM     11  C   UNL     1       9.214  -3.969   3.989  0.00  0.00    +0.125 A 
ATOM     12  C   UNL     1      10.486  -3.586   3.778  0.00  0.00    +0.046 A 
ATOM     13  C   UNL     1      10.890  -4.166   2.553  0.00  0.00    +0.041 A 
ATOM     14  C   UNL     1       9.840  -4.867   2.089  0.00  0.00    +0.195 A 
ATOM     15  O   UNL     1       8.830  -4.749   2.966  0.00  0.00    -0.466 OA
ENDBRANCH   7  11
BRANCH   1  17
ATOM     16  N   UNL     1       2.746  -1.883   4.598  0.00  0.00    -0.281 N 
ATOM     17  C   UNL     1       4.032  -2.275   4.502  0.00  0.00    +0.253 C 
ATOM     18  O   UNL     1       4.631  -2.142   3.451  0.00  0.00    -0.270 OA
ATOM     19  H   UNL     1       2.291  -1.917   5.454  0.00  0.00    +0.155 HD
BRANCH  16  23
ATOM     20  C   UNL     1       0.726  -0.520   1.219  0.00  0.00    -0.019 A 
ATOM     21  C   UNL     1       0.435   0.017   2.460  0.00  0.00    +0.008 A 
ATOM     22  C   UNL     1       1.103  -0.433   3.582  0.00  0.00    +0.023 A 
ATOM     23  C   UNL     1       2.067  -1.425   3.463  0.00  0.00    +0.034 A 
ATOM     24  C   UNL     1       2.357  -1.962   2.216  0.00  0.00    +0.023 A 
ATOM     25  C   UNL     1       1.682  -1.512   1.098  0.00  0.00    +0.008 A 
BRANCH  20  27
ATOM     26  C   UNL     1       0.696   1.220  -0.547  0.00  0.00    +0.043 C 
ATOM     27  C   UNL     1      -0.004  -0.027  -0.003  0.00  0.00    +0.141 C 
BRANCH  27  28
ATOM     28  O   UNL     1      -1.352   0.297   0.345  0.00  0.00    -0.387 OA
ATOM     29  H   UNL     1      -1.882   0.622  -0.395  0.00  0.00    +0.210 HD
ENDBRANCH  27  28
ENDBRANCH  20  27
ENDBRANCH  16  23
ENDBRANCH   1  17
BRANCH   9  30
ATOM     30  C   UNL     1       7.263  -5.570   8.284  0.00  0.00    +0.412 C 
ATOM     31  F   UNL     1       6.568  -6.529   7.539  0.00  0.00    -0.168 F 
ATOM     32  F   UNL     1       8.486  -6.102   8.706  0.00  0.00    -0.168 F 
ATOM     33  F   UNL     1       6.503  -5.205   9.400  0.00  0.00    -0.168 F 
ENDBRANCH   9  30
TORSDOF 6
