REMARK  Name = ZINC40687381
REMARK  4 active torsions:
REMARK  status: ('A' for Active; 'I' for Inactive)
REMARK    1  A    between atoms: C_4  and  S_7
REMARK    2  A    between atoms: S_7  and  C_8
REMARK    3  A    between atoms: C_9  and  N_23
REMARK    4  A    between atoms: C_10  and  N_14
REMARK                            x       y       z     vdW  Elec       q    Type
REMARK                         _______ _______ _______ _____ _____    ______ ____
ROOT
ATOM      1  C   UNL     1       3.488  -2.527   0.075  0.00  0.00    +0.127 A 
ATOM      2  C   UNL     1       4.463  -3.517   0.218  0.00  0.00    +0.098 A 
ATOM      3  C   UNL     1       4.042  -4.840   0.358  0.00  0.00    +0.151 A 
ATOM      4  N   UNL     1       2.738  -5.107   0.351  0.00  0.00    -0.218 NA
ATOM      5  C   UNL     1       1.850  -4.143   0.214  0.00  0.00    +0.224 A 
ATOM      6  N   UNL     1       2.204  -2.880   0.084  0.00  0.00    -0.227 NA
ENDROOT
BRANCH   3   7
ATOM      7  N   UNL     1       4.971  -5.864   0.503  0.00  0.00    -0.283 N 
ATOM      8  C   UNL     1       5.559  -6.292   1.776  0.00  0.00    +0.117 C 
ATOM      9  C   UNL     1       6.514  -7.440   1.414  0.00  0.00    +0.056 C 
ATOM     10  C   UNL     1       6.389  -7.579  -0.087  0.00  0.00    -0.025 A 
ATOM     11  C   UNL     1       5.476  -6.640  -0.542  0.00  0.00    +0.038 A 
ATOM     12  C   UNL     1       5.189  -6.581  -1.907  0.00  0.00    +0.024 A 
ATOM     13  C   UNL     1       5.803  -7.449  -2.785  0.00  0.00    +0.002 A 
ATOM     14  C   UNL     1       6.709  -8.384  -2.321  0.00  0.00    +0.000 A 
ATOM     15  C   UNL     1       7.006  -8.443  -0.971  0.00  0.00    +0.005 A 
ENDBRANCH   3   7
BRANCH   2  16
ATOM     16  N   UNL     1       5.828  -3.189   0.219  0.00  0.00    -0.353 N 
ATOM     17  H   UNL     1       6.104  -2.260   0.203  0.00  0.00    +0.142 HD
ATOM     18  H   UNL     1       6.495  -3.893   0.237  0.00  0.00    +0.142 HD
ENDBRANCH   2  16
BRANCH   1  19
ATOM     19  S   UNL     1       3.949  -0.836  -0.107  0.00  0.00    -0.068 S 
BRANCH  19  23
ATOM     20  C   UNL     1      -0.005   1.366  -0.287  0.00  0.00    +0.000 A 
ATOM     21  C   UNL     1       0.565   1.070   0.938  0.00  0.00    +0.001 A 
ATOM     22  C   UNL     1       1.770   0.399   0.997  0.00  0.00    +0.015 A 
ATOM     23  C   UNL     1       2.411   0.021  -0.177  0.00  0.00    +0.014 A 
ATOM     24  C   UNL     1       1.835   0.320  -1.406  0.00  0.00    +0.015 A 
ATOM     25  C   UNL     1       0.630   0.991  -1.457  0.00  0.00    +0.001 A 
ENDBRANCH  19  23
ENDBRANCH   1  19
TORSDOF 4
