REMARK  Name = ZINC02685276
REMARK  3 active torsions:
REMARK  status: ('A' for Active; 'I' for Inactive)
REMARK    1  A    between atoms: C_4  and  S_14
REMARK    2  A    between atoms: S_14  and  N_17
REMARK    3  A    between atoms: N_17  and  C_18
REMARK                            x       y       z     vdW  Elec       q    Type
REMARK                         _______ _______ _______ _____ _____    ______ ____
ROOT
ATOM      1  C   UNL     1       3.133   3.018   0.476  0.00  0.00    +0.001 A 
ATOM      2  C   UNL     1       1.778   3.129   0.640  0.00  0.00    +0.010 A 
ATOM      3  C   UNL     1       1.147   4.333   0.284  0.00  0.00    +0.011 A 
ATOM      4  C   UNL     1      -0.228   4.602   0.391  0.00  0.00    +0.116 A 
ATOM      5  C   UNL     1      -0.686   5.828  -0.008  0.00  0.00    +0.031 A 
ATOM      6  C   UNL     1       0.146   6.831  -0.505  0.00  0.00    +0.026 A 
ATOM      7  C   UNL     1       1.504   6.605  -0.625  0.00  0.00    +0.042 A 
ATOM      8  C   UNL     1       1.955   5.352  -0.222  0.00  0.00    +0.017 A 
ATOM      9  C   UNL     1       3.343   5.248  -0.393  0.00  0.00    +0.047 A 
ATOM     10  C   UNL     1       3.927   4.046  -0.030  0.00  0.00    +0.014 A 
ATOM     11  C   UNL     1       3.737   6.551  -0.942  0.00  0.00    +0.249 C 
ATOM     12  O   UNL     1       4.867   6.889  -1.239  0.00  0.00    -0.270 OA
ATOM     13  N   UNL     1       2.618   7.313  -1.059  0.00  0.00    -0.281 N 
ATOM     14  H   UNL     1       2.599   8.222  -1.397  0.00  0.00    +0.155 HD
ENDROOT
BRANCH   4  15
ATOM     15  S   UNL     1      -1.339   3.386   1.017  0.00  0.00    +0.073 S 
ATOM     16  O   UNL     1      -2.641   3.950   0.947  0.00  0.00    -0.150 OA
ATOM     17  O   UNL     1      -0.778   2.913   2.234  0.00  0.00    -0.150 OA
BRANCH  15  18
ATOM     18  N   UNL     1      -1.317   2.112  -0.041  0.00  0.00    -0.216 N 
ATOM     19  H   UNL     1      -1.026   1.237   0.260  0.00  0.00    +0.174 HD
BRANCH  18  20
ATOM     20  C   UNL     1      -1.717   2.297  -1.366  0.00  0.00    +0.048 A 
ATOM     21  C   UNL     1      -2.887   2.991  -1.649  0.00  0.00    +0.025 A 
ATOM     22  C   UNL     1      -3.283   3.168  -2.960  0.00  0.00    +0.017 A 
ATOM     23  C   UNL     1      -2.516   2.655  -3.991  0.00  0.00    +0.018 A 
ATOM     24  C   UNL     1      -1.351   1.963  -3.713  0.00  0.00    +0.017 A 
ATOM     25  C   UNL     1      -0.949   1.783  -2.404  0.00  0.00    +0.025 A 
ATOM     26 BR   UNL     1      -3.062   2.901  -5.785  0.00  0.00    -0.050 Br
ENDBRANCH  18  20
ENDBRANCH  15  18
ENDBRANCH   4  15
TORSDOF 3
