REMARK  Name = ZINC39575412
REMARK  10 active torsions:
REMARK  status: ('A' for Active; 'I' for Inactive)
REMARK    1  A    between atoms: C_1  and  C_2
REMARK    2  A    between atoms: N_10  and  C_14
REMARK    3  A    between atoms: C_14  and  C_15
REMARK    4  A    between atoms: C_15  and  O_17
REMARK    5  A    between atoms: O_17  and  C_18
REMARK    6  A    between atoms: C_18  and  C_20
REMARK    7  A    between atoms: C_18  and  C_21
REMARK    8  A    between atoms: N_23  and  C_24
REMARK    9  A    between atoms: C_24  and  C_26
REMARK   10  A    between atoms: C_24  and  C_27
REMARK                            x       y       z     vdW  Elec       q    Type
REMARK                         _______ _______ _______ _____ _____    ______ ____
ROOT
ATOM      1  C   UNL     1       4.494  -6.617  -0.949  0.00  0.00    +0.326 C 
ATOM      2  O   UNL     1       4.292  -5.742  -1.756  0.00  0.00    -0.249 OA
ENDROOT
BRANCH   1   3
ATOM      3  C   UNL     1       4.479  -6.302   0.525  0.00  0.00    +0.238 C 
BRANCH   3  13
ATOM      4  C   UNL     1       2.401   1.346   1.589  0.00  0.00    +0.007 C 
ATOM      5  C   UNL     1       2.166  -0.156   1.417  0.00  0.00    -0.014 C 
ATOM      6  C   UNL     1       2.727  -0.608   0.067  0.00  0.00    +0.006 C 
ATOM      7  C   UNL     1       2.482  -2.109  -0.109  0.00  0.00    +0.035 C 
ATOM      8  C   UNL     1       3.159  -2.872   1.024  0.00  0.00    +0.113 C 
ATOM      9  C   UNL     1       2.624  -2.416   2.377  0.00  0.00    +0.035 C 
ATOM     10  C   UNL     1       2.869  -0.914   2.544  0.00  0.00    +0.006 C 
ATOM     11  C   UNL     1       2.959  -4.360   0.851  0.00  0.00    +0.247 C 
ATOM     12  O   UNL     1       1.907  -4.962   0.836  0.00  0.00    -0.273 OA
ATOM     13  N   UNL     1       4.198  -4.877   0.716  0.00  0.00    -0.213 N 
ATOM     14  C   UNL     1       5.138  -3.927   0.780  0.00  0.00    +0.310 C 
ATOM     15  O   UNL     1       6.330  -4.147   0.685  0.00  0.00    -0.252 OA
ATOM     16  N   UNL     1       4.616  -2.699   0.962  0.00  0.00    -0.285 N 
ATOM     17  H   UNL     1       5.105  -1.865   1.037  0.00  0.00    +0.151 HD
ENDBRANCH   3  13
ENDBRANCH   1   3
BRANCH   1  18
ATOM     18  O   UNL     1       4.734  -7.871  -1.365  0.00  0.00    -0.451 OA
BRANCH  18  19
ATOM     19  C   UNL     1       4.734  -8.098  -2.775  0.00  0.00    +0.258 C 
ATOM     20  C   UNL     1       6.147  -7.894  -3.325  0.00  0.00    +0.062 C 
BRANCH  19  21
ATOM     21  C   UNL     1       4.284  -9.508  -3.057  0.00  0.00    +0.254 C 
ATOM     22  O   UNL     1       3.992 -10.247  -2.140  0.00  0.00    -0.272 OA
ATOM     23  N   UNL     1       4.206  -9.950  -4.328  0.00  0.00    -0.306 N 
ATOM     24  H   UNL     1       4.439  -9.359  -5.062  0.00  0.00    +0.149 HD
BRANCH  23  25
ATOM     25  C   UNL     1       3.768 -11.321  -4.602  0.00  0.00    +0.102 C 
ATOM     26  C   UNL     1       2.242 -11.359  -4.702  0.00  0.00    +0.033 C 
BRANCH  25  27
ATOM     27  C   UNL     1       4.369 -11.789  -5.903  0.00  0.00    -0.009 A 
ATOM     28  C   UNL     1       4.698 -10.871  -6.883  0.00  0.00    +0.008 A 
ATOM     29  C   UNL     1       5.248 -11.300  -8.075  0.00  0.00    +0.020 A 
ATOM     30  C   UNL     1       5.472 -12.648  -8.289  0.00  0.00    +0.042 A 
ATOM     31  C   UNL     1       5.143 -13.567  -7.309  0.00  0.00    +0.040 A 
ATOM     32  C   UNL     1       4.596 -13.137  -6.114  0.00  0.00    +0.047 A 
ATOM     33 CL   UNL     1       4.189 -14.290  -4.881  0.00  0.00    -0.083 Cl
ATOM     34 CL   UNL     1       6.163 -13.187  -9.788  0.00  0.00    -0.083 Cl
ENDBRANCH  25  27
ENDBRANCH  23  25
ENDBRANCH  19  21
ENDBRANCH  18  19
ENDBRANCH   1  18
TORSDOF 7
