REMARK  Name = ZINC05426181
REMARK  9 active torsions:
REMARK  status: ('A' for Active; 'I' for Inactive)
REMARK    1  A    between atoms: C_1  and  C_2
REMARK    2  A    between atoms: C_5  and  O_32
REMARK    3  A    between atoms: C_7  and  C_30
REMARK    4  A    between atoms: C_7  and  C_31
REMARK    5  A    between atoms: C_12  and  C_17
REMARK    6  A    between atoms: C_14  and  C_15
REMARK    7  A    between atoms: C_14  and  O_16
REMARK    8  A    between atoms: C_17  and  O_18
REMARK    9  A    between atoms: O_18  and  C_19
REMARK                            x       y       z     vdW  Elec       q    Type
REMARK                         _______ _______ _______ _____ _____    ______ ____
ROOT
ATOM      1  C   UNL     1       0.303   1.249   0.514  0.00  0.00    +0.014 C 
ATOM      2  C   UNL     1       0.292  -0.274   0.249  0.00  0.00    +0.000 C 
ATOM      3  C   UNL     1      -1.157  -0.755   0.328  0.00  0.00    +0.012 C 
ATOM      4  C   UNL     1      -1.699  -0.578   1.747  0.00  0.00    +0.032 C 
ATOM      5  C   UNL     1      -0.865  -1.411   2.714  0.00  0.00    +0.120 C 
ATOM      6  C   UNL     1       0.602  -0.989   2.682  0.00  0.00    -0.006 C 
ATOM      7  C   UNL     1       1.162  -0.998   1.265  0.00  0.00    +0.006 C 
ATOM      8  C   UNL     1       1.369  -2.448   0.809  0.00  0.00    +0.005 C 
ATOM      9  C   UNL     1       2.112  -2.459  -0.528  0.00  0.00    +0.010 C 
ATOM     10  C   UNL     1       1.278  -1.781  -1.601  0.00  0.00    +0.058 C 
ATOM     11  C   UNL     1       0.801  -0.406  -1.187  0.00  0.00    +0.075 C 
ATOM     12  C   UNL     1       1.949   0.603  -1.385  0.00  0.00    +0.042 C 
ATOM     13  C   UNL     1       1.384  -1.986   3.565  0.00  0.00    +0.014 C 
ATOM     14  C   UNL     1       0.766   0.374   3.364  0.00  0.00    +0.014 C 
ENDROOT
BRANCH  11  15
ATOM     15  O   UNL     1      -0.264  -0.008  -2.074  0.00  0.00    -0.388 OA
ATOM     16  H   UNL     1      -0.035  -0.059  -3.012  0.00  0.00    +0.210 HD
ENDBRANCH  11  15
BRANCH   5  17
ATOM     17  O   UNL     1      -1.375  -1.248   4.042  0.00  0.00    -0.391 OA
ATOM     18  H   UNL     1      -2.296  -1.524   4.147  0.00  0.00    +0.210 HD
ENDBRANCH   5  17
BRANCH  10  19
ATOM     19  C   UNL     1       0.116  -2.673  -2.036  0.00  0.00    +0.235 C 
BRANCH  19  20
ATOM     20  O   UNL     1       0.628  -3.849  -2.665  0.00  0.00    -0.491 OA
BRANCH  20  21
ATOM     21  C   UNL     1      -0.280  -4.754  -3.113  0.00  0.00    +0.124 A 
ATOM     22  C   UNL     1      -1.641  -4.505  -2.951  0.00  0.00    +0.046 A 
ATOM     23  C   UNL     1      -2.566  -5.404  -3.395  0.00  0.00    +0.015 A 
ATOM     24  C   UNL     1      -2.145  -6.585  -4.018  0.00  0.00    +0.018 A 
ATOM     25  C   UNL     1      -3.115  -7.568  -4.505  0.00  0.00    +0.018 A 
ATOM     26  C   UNL     1      -2.644  -8.694  -5.102  0.00  0.00    +0.092 A 
ATOM     27  C   UNL     1      -1.254  -8.886  -5.236  0.00  0.00    +0.337 A 
ATOM     28  O   UNL     1      -0.844  -9.900  -5.772  0.00  0.00    -0.245 OA
ATOM     29  O   UNL     1      -0.370  -7.981  -4.787  0.00  0.00    -0.422 OA
ATOM     30  C   UNL     1      -0.772  -6.842  -4.185  0.00  0.00    +0.143 A 
ATOM     31  C   UNL     1       0.155  -5.914  -3.732  0.00  0.00    +0.092 A 
ENDBRANCH  20  21
ENDBRANCH  19  20
ENDBRANCH  10  19
TORSDOF 5
