REMARK  Name = ZINC63480700
REMARK  5 active torsions:
REMARK  status: ('A' for Active; 'I' for Inactive)
REMARK    1  A    between atoms: C_1  and  C_2
REMARK    2  A    between atoms: C_2  and  C_4
REMARK    3  A    between atoms: C_2  and  N_14
REMARK    4  A    between atoms: C_15  and  C_17
REMARK    5  A    between atoms: N_31  and  C_32
REMARK                            x       y       z     vdW  Elec       q    Type
REMARK                         _______ _______ _______ _____ _____    ______ ____
ROOT
ATOM      1  N   UNL     1      -1.144  -0.658   0.221  0.00  0.00    -0.307 N 
ATOM      2  C   UNL     1      -1.894  -0.768   1.335  0.00  0.00    +0.238 C 
ATOM      3  O   UNL     1      -1.410  -0.521   2.419  0.00  0.00    -0.273 OA
ATOM      4  H   UNL     1      -1.531  -0.855  -0.646  0.00  0.00    +0.149 HD
ENDROOT
BRANCH   2   5
ATOM      5  C   UNL     1      -3.335  -1.198   1.234  0.00  0.00    +0.183 C 
ATOM      6  C   UNL     1      -3.422  -2.595   0.662  0.00  0.00    +0.019 C 
ATOM      7  C   UNL     1      -4.018  -3.369   1.599  0.00  0.00    +0.057 C 
ATOM      8  C   UNL     1      -4.336  -2.553   2.777  0.00  0.00    +0.051 C 
ATOM      9  C   UNL     1      -4.967  -3.197   3.865  0.00  0.00    +0.018 A 
ATOM     10  C   UNL     1      -5.298  -2.473   5.023  0.00  0.00    +0.011 A 
ATOM     11  C   UNL     1      -5.907  -3.106   6.065  0.00  0.00    +0.001 A 
ATOM     12  C   UNL     1      -6.204  -4.463   5.995  0.00  0.00    +0.002 A 
ATOM     13  C   UNL     1      -5.896  -5.194   4.888  0.00  0.00    +0.024 A 
ATOM     14  C   UNL     1      -5.267  -4.579   3.790  0.00  0.00    +0.043 A 
ATOM     15  N   UNL     1      -4.970  -5.309   2.706  0.00  0.00    -0.281 N 
ATOM     16  C   UNL     1      -4.380  -4.804   1.634  0.00  0.00    +0.250 C 
ATOM     17  O   UNL     1      -4.135  -5.521   0.676  0.00  0.00    -0.270 OA
ATOM     18  N   UNL     1      -3.937  -1.268   2.571  0.00  0.00    -0.317 N 
ATOM     19  C   UNL     1      -4.082  -0.156   3.513  0.00  0.00    +0.130 C 
ATOM     20  H   UNL     1      -5.198  -6.251   2.707  0.00  0.00    +0.155 HD
ENDBRANCH   2   5
BRANCH   1  22
ATOM     21  C   UNL     1       0.332   1.288   0.345  0.00  0.00    +0.033 C 
ATOM     22  C   UNL     1       0.257  -0.239   0.319  0.00  0.00    +0.100 C 
BRANCH  22  23
ATOM     23  C   UNL     1       1.021  -0.760  -0.870  0.00  0.00    -0.024 A 
ATOM     24  C   UNL     1       0.443  -0.740  -2.126  0.00  0.00    +0.009 A 
ATOM     25  C   UNL     1       1.140  -1.218  -3.219  0.00  0.00    +0.050 A 
ATOM     26  C   UNL     1       2.423  -1.719  -3.059  0.00  0.00    +0.162 A 
ATOM     27  C   UNL     1       3.006  -1.738  -1.797  0.00  0.00    +0.162 A 
ATOM     28  C   UNL     1       2.302  -1.253  -0.705  0.00  0.00    +0.055 A 
ATOM     29  O   UNL     1       4.267  -2.219  -1.619  0.00  0.00    -0.485 OA
ATOM     30  C   UNL     1       4.800  -3.032  -2.671  0.00  0.00    +0.270 C 
ATOM     31  C   UNL     1       4.514  -2.336  -4.008  0.00  0.00    +0.270 C 
ATOM     32  O   UNL     1       3.096  -2.191  -4.144  0.00  0.00    -0.485 OA
ENDBRANCH  22  23
ENDBRANCH   1  22
TORSDOF 3
