REMARK  Name = ZINC00664581
REMARK  4 active torsions:
REMARK  status: ('A' for Active; 'I' for Inactive)
REMARK    1  A    between atoms: C_6  and  C_11
REMARK    2  A    between atoms: C_14  and  C_25
REMARK    3  A    between atoms: C_20  and  N_24
REMARK    4  A    between atoms: C_21  and  C_22
REMARK                            x       y       z     vdW  Elec       q    Type
REMARK                         _______ _______ _______ _____ _____    ______ ____
ROOT
ATOM      1  C   UNL     1       5.008  -2.700  -0.060  0.00  0.00    +0.102 C 
ATOM      2  C   UNL     1       5.119  -3.585   1.155  0.00  0.00    +0.054 A 
ATOM      3  C   UNL     1       5.311  -3.248   2.453  0.00  0.00    +0.074 A 
ATOM      4  N   UNL     1       5.338  -4.409   3.173  0.00  0.00    -0.273 N 
ATOM      5  H   UNL     1       5.461  -4.484   4.132  0.00  0.00    +0.189 HD
ATOM      6  N   UNL     1       5.157  -5.475   2.278  0.00  0.00    -0.135 NA
ATOM      7  C   UNL     1       5.027  -4.989   1.077  0.00  0.00    +0.245 A 
ATOM      8  O   UNL     1       4.835  -5.633  -0.106  0.00  0.00    -0.421 OA
ATOM      9  C   UNL     1       5.005  -4.920  -1.237  0.00  0.00    +0.201 C 
ATOM     10  C   UNL     1       5.094  -3.573  -1.287  0.00  0.00    +0.098 C 
ENDROOT
BRANCH   1  16
ATOM     11  C   UNL     1      -0.016   1.357   0.009  0.00  0.00    +0.001 A 
ATOM     12  C   UNL     1       1.169   2.091   0.002  0.00  0.00    +0.001 A 
ATOM     13  C   UNL     1       2.378   1.468  -0.013  0.00  0.00    +0.008 A 
ATOM     14  C   UNL     1       2.438   0.063  -0.021  0.00  0.00    -0.018 A 
ATOM     15  C   UNL     1       3.668  -0.615  -0.036  0.00  0.00    +0.013 A 
ATOM     16  C   UNL     1       3.687  -1.976  -0.043  0.00  0.00    -0.034 A 
ATOM     17  C   UNL     1       2.502  -2.710  -0.036  0.00  0.00    +0.005 A 
ATOM     18  C   UNL     1       1.292  -2.087  -0.021  0.00  0.00    +0.009 A 
ATOM     19  C   UNL     1       1.233  -0.683  -0.013  0.00  0.00    -0.018 A 
ATOM     20  C   UNL     1       0.002  -0.004   0.002  0.00  0.00    +0.008 A 
ENDBRANCH   1  16
BRANCH   3  21
ATOM     21  C   UNL     1       5.462  -1.878   2.991  0.00  0.00    +0.000 A 
ATOM     22  C   UNL     1       6.288  -0.959   2.344  0.00  0.00    +0.011 A 
ATOM     23  C   UNL     1       6.426   0.317   2.850  0.00  0.00    +0.020 A 
ATOM     24  C   UNL     1       5.746   0.686   3.998  0.00  0.00    +0.041 A 
ATOM     25  C   UNL     1       4.926  -0.222   4.646  0.00  0.00    +0.020 A 
ATOM     26  C   UNL     1       4.776  -1.499   4.145  0.00  0.00    +0.011 A 
ATOM     27 CL   UNL     1       5.924   2.293   4.630  0.00  0.00    -0.084 Cl
ENDBRANCH   3  21
BRANCH   9  28
ATOM     28  N   UNL     1       5.093  -5.610  -2.420  0.00  0.00    -0.328 N 
ATOM     29  H   UNL     1       5.033  -6.578  -2.423  0.00  0.00    +0.145 HD
ATOM     30  H   UNL     1       5.215  -5.129  -3.254  0.00  0.00    +0.145 HD
ENDBRANCH   9  28
BRANCH  10  31
ATOM     31  C   UNL     1       5.280  -2.946  -2.561  0.00  0.00    +0.101 C 
ATOM     32  N   UNL     1       5.427  -2.448  -3.571  0.00  0.00    -0.191 NA
ENDBRANCH  10  31
TORSDOF 4
