REMARK  Name = ZINC64137041
REMARK  9 active torsions:
REMARK  status: ('A' for Active; 'I' for Inactive)
REMARK    1  A    between atoms: C_1  and  C_2
REMARK    2  A    between atoms: C_2  and  O_3
REMARK    3  A    between atoms: O_3  and  C_4
REMARK    4  A    between atoms: C_4  and  C_6
REMARK    5  A    between atoms: C_6  and  C_7
REMARK    6  A    between atoms: C_12  and  C_14
REMARK    7  A    between atoms: C_16  and  O_33
REMARK    8  A    between atoms: N_24  and  C_27
REMARK    9  A    between atoms: C_27  and  C_28
REMARK                            x       y       z     vdW  Elec       q    Type
REMARK                         _______ _______ _______ _____ _____    ______ ____
ROOT
ATOM      1  C   UNL     1      -0.574  -9.087  -2.407  0.00  0.00    +0.226 C 
ATOM      2  C   UNL     1      -0.572 -10.588  -2.189  0.00  0.00    +0.116 C 
ATOM      3  C   UNL     1       0.222 -11.308  -2.987  0.00  0.00    -0.011 C 
ATOM      4  C   UNL     1       0.318 -12.786  -2.754  0.00  0.00    +0.036 C 
ATOM      5  C   UNL     1       1.011 -13.470  -3.934  0.00  0.00    +0.005 C 
ATOM      6  C   UNL     1       2.311 -12.702  -4.217  0.00  0.00    +0.002 C 
ATOM      7  C   UNL     1       1.941 -11.372  -4.868  0.00  0.00    +0.027 C 
ATOM      8  C   UNL     1       1.001 -10.560  -4.019  0.00  0.00    +0.106 C 
ATOM      9  N   UNL     1       1.648  -9.398  -3.404  0.00  0.00    -0.286 N 
ATOM     10  C   UNL     1       0.865  -8.639  -2.582  0.00  0.00    +0.236 C 
ATOM     11  O   UNL     1       1.298  -7.657  -2.018  0.00  0.00    -0.274 OA
ENDROOT
BRANCH   1  17
ATOM     12  C   UNL     1      -4.641  -6.351   1.137  0.00  0.00    +0.061 A 
ATOM     13  C   UNL     1      -3.710  -6.227   2.115  0.00  0.00    +0.072 A 
ATOM     14  S   UNL     1      -2.300  -6.990   1.330  0.00  0.00    -0.060 S 
ATOM     15  C   UNL     1      -3.031  -7.380  -0.135  0.00  0.00    +0.165 A 
ATOM     16  N   UNL     1      -2.472  -8.014  -1.238  0.00  0.00    -0.264 N 
ATOM     17  C   UNL     1      -1.181  -8.399  -1.211  0.00  0.00    +0.238 C 
ATOM     18  O   UNL     1      -0.506  -8.192  -0.224  0.00  0.00    -0.274 OA
ATOM     19  N   UNL     1      -4.262  -6.942   0.020  0.00  0.00    -0.229 NA
ATOM     20  H   UNL     1      -3.011  -8.180  -2.027  0.00  0.00    +0.157 HD
BRANCH  12  21
ATOM     21  C   UNL     1      -6.048  -5.842   1.321  0.00  0.00    +0.176 C 
BRANCH  21  22
ATOM     22  C   UNL     1      -6.392  -4.901   0.196  0.00  0.00    +0.313 C 
ATOM     23  O   UNL     1      -5.579  -4.667  -0.666  0.00  0.00    -0.250 OA
BRANCH  22  24
ATOM     24  O   UNL     1      -7.602  -4.322   0.152  0.00  0.00    -0.465 OA
BRANCH  24  26
ATOM     25  C   UNL     1      -9.280  -2.881  -0.823  0.00  0.00    +0.048 C 
ATOM     26  C   UNL     1      -7.860  -3.440  -0.943  0.00  0.00    +0.229 C 
ENDBRANCH  24  26
ENDBRANCH  22  24
ENDBRANCH  21  22
ENDBRANCH  12  21
ENDBRANCH   1  17
BRANCH   2  27
ATOM     27  O   UNL     1      -1.339 -11.170  -1.233  0.00  0.00    -0.510 OA
ATOM     28  H   UNL     1      -1.929 -10.557  -0.775  0.00  0.00    +0.292 HD
ENDBRANCH   2  27
BRANCH   9  29
ATOM     29  C   UNL     1       3.053  -9.068  -3.657  0.00  0.00    +0.182 C 
BRANCH  29  30
ATOM     30  C   UNL     1       3.160  -8.268  -4.929  0.00  0.00    +0.122 A 
ATOM     31  C   UNL     1       3.107  -6.927  -5.022  0.00  0.00    +0.046 A 
ATOM     32  C   UNL     1       3.247  -6.606  -6.392  0.00  0.00    +0.041 A 
ATOM     33  C   UNL     1       3.378  -7.769  -7.054  0.00  0.00    +0.195 A 
ATOM     34  O   UNL     1       3.330  -8.773  -6.162  0.00  0.00    -0.466 OA
ENDBRANCH  29  30
ENDBRANCH   9  29
TORSDOF 8
