REMARK  Name = ZINC39520679
REMARK  6 active torsions:
REMARK  status: ('A' for Active; 'I' for Inactive)
REMARK    1  A    between atoms: C_4  and  C_7
REMARK    2  A    between atoms: C_7  and  N_8
REMARK    3  A    between atoms: C_9  and  C_28
REMARK    4  A    between atoms: C_18  and  C_21
REMARK    5  A    between atoms: C_26  and  O_27
REMARK    6  A    between atoms: C_33  and  O_34
REMARK                            x       y       z     vdW  Elec       q    Type
REMARK                         _______ _______ _______ _____ _____    ______ ____
ROOT
ATOM      1  N   UNL     1       3.842  -2.024   0.786  0.00  0.00    +0.391 N 
ATOM      2  C   UNL     1       3.281  -1.683   2.100  0.00  0.00    -0.033 C 
ATOM      3  C   UNL     1       4.131  -0.598   2.764  0.00  0.00    -0.011 C 
ATOM      4  C   UNL     1       5.584  -1.071   2.851  0.00  0.00    -0.003 C 
ATOM      5  C   UNL     1       6.074  -1.450   1.454  0.00  0.00    -0.012 C 
ATOM      6  C   UNL     1       5.181  -2.598   0.903  0.00  0.00    -0.064 C 
ATOM      7  C   UNL     1       5.268  -3.727   1.915  0.00  0.00    -0.012 C 
ATOM      8  C   UNL     1       4.806  -5.070   1.365  0.00  0.00    -0.001 C 
ATOM      9  C   UNL     1       5.672  -5.418   0.150  0.00  0.00    +0.008 C 
ATOM     10  C   UNL     1       5.439  -4.374  -0.940  0.00  0.00    +0.021 C 
ATOM     11  C   UNL     1       5.760  -2.973  -0.453  0.00  0.00    -0.004 C 
ATOM     12  H   UNL     1       3.935  -1.142   0.267  0.00  0.00    -0.080 HD
ENDROOT
BRANCH  10  13
ATOM     13  C   UNL     1       6.332  -4.700  -2.110  0.00  0.00    -0.003 A 
ATOM     14  C   UNL     1       7.703  -4.738  -1.944  0.00  0.00    +0.007 A 
ATOM     15  C   UNL     1       8.522  -5.036  -3.017  0.00  0.00    +0.001 A 
ATOM     16  C   UNL     1       7.972  -5.297  -4.258  0.00  0.00    +0.004 A 
ATOM     17  C   UNL     1       6.602  -5.261  -4.429  0.00  0.00    +0.046 A 
ATOM     18  C   UNL     1       5.777  -4.967  -3.353  0.00  0.00    +0.120 A 
BRANCH  18  19
ATOM     19  O   UNL     1       4.428  -4.936  -3.517  0.00  0.00    -0.506 OA
ATOM     20  H   UNL     1       4.083  -4.069  -3.769  0.00  0.00    +0.292 HD
ENDBRANCH  18  19
ENDBRANCH  10  13
BRANCH   2  21
ATOM     21  C   UNL     1       1.881  -1.160   1.910  0.00  0.00    -0.019 A 
ATOM     22  C   UNL     1       1.680   0.096   1.370  0.00  0.00    +0.005 A 
ATOM     23  C   UNL     1       0.395   0.577   1.196  0.00  0.00    +0.000 A 
ATOM     24  C   UNL     1      -0.691  -0.198   1.560  0.00  0.00    +0.004 A 
ATOM     25  C   UNL     1      -0.495  -1.454   2.100  0.00  0.00    +0.045 A 
ATOM     26  C   UNL     1       0.793  -1.941   2.271  0.00  0.00    +0.118 A 
BRANCH  26  27
ATOM     27  O   UNL     1       0.988  -3.179   2.796  0.00  0.00    -0.507 OA
ATOM     28  H   UNL     1       1.065  -3.189   3.760  0.00  0.00    +0.292 HD
ENDBRANCH  26  27
ENDBRANCH   2  21
BRANCH   1  29
ATOM     29  C   UNL     1       2.894  -2.860   0.058  0.00  0.00    -0.041 C 
BRANCH  29  33
ATOM     30  C   UNL     1       1.598  -0.812  -3.460  0.00  0.00    +0.000 A 
ATOM     31  C   UNL     1       2.784  -1.522  -3.471  0.00  0.00    +0.000 A 
ATOM     32  C   UNL     1       3.203  -2.185  -2.333  0.00  0.00    +0.002 A 
ATOM     33  C   UNL     1       2.437  -2.137  -1.183  0.00  0.00    -0.064 A 
ATOM     34  C   UNL     1       1.251  -1.426  -1.172  0.00  0.00    +0.002 A 
ATOM     35  C   UNL     1       0.831  -0.765  -2.311  0.00  0.00    +0.000 A 
ENDBRANCH  29  33
ENDBRANCH   1  29
TORSDOF 6
