REMARK  Name = ZINC04164708
REMARK  7 active torsions:
REMARK  status: ('A' for Active; 'I' for Inactive)
REMARK    1  A    between atoms: C_1  and  C_2
REMARK    2  A    between atoms: N_7  and  C_8
REMARK    3  A    between atoms: C_8  and  C_10
REMARK    4  A    between atoms: C_8  and  C_19
REMARK    5  A    between atoms: C_13  and  N_16
REMARK    6  A    between atoms: C_25  and  C_30
REMARK    7  A    between atoms: C_28  and  O_29
REMARK                            x       y       z     vdW  Elec       q    Type
REMARK                         _______ _______ _______ _____ _____    ______ ____
ROOT
ATOM      1  C   UNL     1       4.797   4.114  -0.022  0.00  0.00    +0.136 C 
ENDROOT
BRANCH   1   2
ATOM      2  C   UNL     1       3.570   3.241   0.016  0.00  0.00    +0.021 A 
ATOM      3  C   UNL     1       3.705   1.862  -0.121  0.00  0.00    +0.010 A 
ATOM      4  C   UNL     1       2.615   1.045  -0.090  0.00  0.00    +0.010 A 
ATOM      5  C   UNL     1       1.335   1.597   0.080  0.00  0.00    +0.004 A 
ATOM      6  C   UNL     1       0.186   0.786   0.116  0.00  0.00    +0.012 A 
ATOM      7  C   UNL     1      -1.027   1.392   0.279  0.00  0.00    +0.023 A 
ATOM      8  C   UNL     1      -1.098   2.777   0.414  0.00  0.00    +0.039 A 
ATOM      9  N   UNL     1      -0.025   3.530   0.380  0.00  0.00    -0.248 NA
ATOM     10  C   UNL     1       1.190   2.999   0.219  0.00  0.00    +0.113 A 
ATOM     11  C   UNL     1       2.341   3.814   0.183  0.00  0.00    +0.148 A 
ATOM     12  C   UNL     1      -2.445   3.428   0.598  0.00  0.00    +0.065 C 
BRANCH  11  13
ATOM     13  O   UNL     1       2.229   5.162   0.314  0.00  0.00    -0.504 OA
ATOM     14  H   UNL     1       2.114   5.630  -0.524  0.00  0.00    +0.292 HD
ENDBRANCH  11  13
ENDBRANCH   1   2
BRANCH   1  21
ATOM     15  C   UNL     1       8.597   1.280   3.843  0.00  0.00    +0.063 C 
ATOM     16  C   UNL     1       7.455   2.180   3.448  0.00  0.00    +0.014 A 
ATOM     17  C   UNL     1       6.694   2.786   4.428  0.00  0.00    +0.021 A 
ATOM     18  C   UNL     1       5.643   3.613   4.059  0.00  0.00    +0.005 A 
ATOM     19  C   UNL     1       5.393   3.802   2.711  0.00  0.00    +0.041 A 
ATOM     20  C   UNL     1       6.200   3.160   1.777  0.00  0.00    +0.097 A 
ATOM     21  N   UNL     1       5.960   3.341   0.420  0.00  0.00    -0.320 N 
ATOM     22  H   UNL     1       6.563   2.954  -0.234  0.00  0.00    +0.148 HD
ATOM     23  N   UNL     1       7.235   2.338   2.116  0.00  0.00    -0.347 N 
ATOM     24  H   UNL     1       7.812   1.868   1.408  0.00  0.00    +0.167 HD
ENDBRANCH   1  21
BRANCH   1  25
ATOM     25  C   UNL     1       5.024   4.602  -1.430  0.00  0.00    -0.023 A 
ATOM     26  C   UNL     1       5.512   3.736  -2.391  0.00  0.00    +0.008 A 
ATOM     27  C   UNL     1       5.715   4.182  -3.683  0.00  0.00    +0.033 A 
ATOM     28  C   UNL     1       5.440   5.497  -4.012  0.00  0.00    +0.126 A 
ATOM     29  C   UNL     1       4.957   6.363  -3.050  0.00  0.00    +0.033 A 
ATOM     30  C   UNL     1       4.748   5.916  -1.759  0.00  0.00    +0.008 A 
BRANCH  28  31
ATOM     31  N   UNL     1       5.663   5.976  -5.395  0.00  0.00    +0.056 N 
ATOM     32  O   UNL     1       5.421   7.134  -5.684  0.00  0.00    -0.126 OA
ATOM     33  O   UNL     1       6.089   5.212  -6.243  0.00  0.00    -0.126 OA
ENDBRANCH  28  31
ENDBRANCH   1  25
TORSDOF 5
