REMARK  Name = ZINC17246547
REMARK  8 active torsions:
REMARK  status: ('A' for Active; 'I' for Inactive)
REMARK    1  A    between atoms: C_1  and  C_2
REMARK    2  A    between atoms: C_2  and  C_3
REMARK    3  A    between atoms: N_10  and  N_13
REMARK    4  A    between atoms: C_14  and  C_16
REMARK    5  A    between atoms: C_19  and  S_22
REMARK    6  A    between atoms: S_22  and  N_25
REMARK    7  A    between atoms: N_25  and  C_26
REMARK    8  A    between atoms: C_26  and  C_27
REMARK                            x       y       z     vdW  Elec       q    Type
REMARK                         _______ _______ _______ _____ _____    ______ ____
ROOT
ATOM      1  C   UNL     1      -2.082   0.932  -6.454  0.00  0.00    +0.038 A 
ATOM      2  C   UNL     1      -2.893   0.027  -5.768  0.00  0.00    +0.015 A 
ATOM      3  C   UNL     1      -3.260   0.285  -4.463  0.00  0.00    +0.029 A 
ATOM      4  C   UNL     1      -2.825   1.439  -3.835  0.00  0.00    +0.105 A 
ATOM      5  C   UNL     1      -2.026   2.343  -4.511  0.00  0.00    +0.029 A 
ATOM      6  C   UNL     1      -1.648   2.094  -5.814  0.00  0.00    +0.015 A 
ENDROOT
BRANCH   1   8
ATOM      7  N   UNL     1      -0.902   1.538  -8.512  0.00  0.00    -0.215 N 
ATOM      8  C   UNL     1      -1.685   0.662  -7.852  0.00  0.00    +0.262 C 
ATOM      9  O   UNL     1      -2.065  -0.351  -8.407  0.00  0.00    -0.268 OA
ATOM     10  H   UNL     1      -0.599   2.347  -8.069  0.00  0.00    +0.176 HD
BRANCH   7  18
ATOM     11  C   UNL     1      -0.687   1.888 -14.589  0.00  0.00    -0.008 A 
ATOM     12  C   UNL     1      -1.202   2.298 -13.419  0.00  0.00    +0.026 A 
ATOM     13  C   UNL     1      -0.723   1.701 -12.186  0.00  0.00    +0.074 A 
ATOM     14  C   UNL     1       0.268   0.716 -12.348  0.00  0.00    +0.115 A 
ATOM     15  S   UNL     1       0.499   0.647 -14.106  0.00  0.00    -0.073 S 
ATOM     16  N   UNL     1       0.804   0.080 -11.310  0.00  0.00    -0.228 NA
ATOM     17  C   UNL     1       0.429   0.350 -10.089  0.00  0.00    +0.223 A 
ATOM     18  N   UNL     1      -0.526   1.282  -9.837  0.00  0.00    -0.212 N 
ATOM     19  C   UNL     1      -1.114   1.969 -10.834  0.00  0.00    +0.279 A 
ATOM     20  O   UNL     1      -1.967   2.805 -10.591  0.00  0.00    -0.265 OA
BRANCH  11  22
ATOM     21  C   UNL     1      -0.123   3.536 -16.354  0.00  0.00    +0.009 C 
ATOM     22  C   UNL     1      -1.029   2.362 -15.978  0.00  0.00    +0.039 C 
ENDBRANCH  11  22
ENDBRANCH   7  18
ENDBRANCH   1   8
BRANCH   4  23
ATOM     23  S   UNL     1      -3.299   1.761  -2.168  0.00  0.00    +0.058 S 
ATOM     24  O   UNL     1      -4.498   1.035  -1.939  0.00  0.00    -0.153 OA
ATOM     25  O   UNL     1      -3.213   3.168  -1.987  0.00  0.00    -0.153 OA
BRANCH  23  26
ATOM     26  N   UNL     1      -2.144   1.086  -1.192  0.00  0.00    -0.187 NA
ATOM     27  H   UNL     1      -2.375   0.350  -0.605  0.00  0.00    +0.148 HD
BRANCH  26  28
ATOM     28  C   UNL     1      -0.773   1.602  -1.215  0.00  0.00    +0.137 C 
BRANCH  28  29
ATOM     29  C   UNL     1      -0.013   1.086   0.008  0.00  0.00    +0.134 C 
ATOM     30  C   UNL     1       1.429   1.629  -0.003  0.00  0.00    +0.035 C 
ATOM     31  C   UNL     1       1.553   2.402   1.333  0.00  0.00    +0.031 C 
ATOM     32  C   UNL     1       0.413   1.778   2.177  0.00  0.00    +0.160 C 
ATOM     33  O   UNL     1      -0.639   1.560   1.212  0.00  0.00    -0.375 OA
ENDBRANCH  28  29
ENDBRANCH  26  28
ENDBRANCH  23  26
ENDBRANCH   4  23
TORSDOF 7
