REMARK  Name = ZINC05612618
REMARK  11 active torsions:
REMARK  status: ('A' for Active; 'I' for Inactive)
REMARK    1  A    between atoms: C_1  and  C_2
REMARK    2  A    between atoms: C_3  and  C_32
REMARK    3  A    between atoms: N_4  and  C_11
REMARK    4  A    between atoms: C_11  and  C_12
REMARK    5  A    between atoms: C_12  and  C_14
REMARK    6  A    between atoms: C_12  and  O_31
REMARK    7  A    between atoms: C_14  and  N_64
REMARK    8  A    between atoms: C_15  and  C_16
REMARK    9  A    between atoms: C_15  and  N_64
REMARK   10  A    between atoms: C_22  and  N_64
REMARK   11  A    between atoms: C_28  and  O_30
REMARK                            x       y       z     vdW  Elec       q    Type
REMARK                         _______ _______ _______ _____ _____    ______ ____
ROOT
ATOM      1  N   UNL     1       1.338   1.500   2.540  0.00  0.00    +0.388 N 
ATOM      2  H   UNL     1       0.406   1.266   2.903  0.00  0.00    -0.081 HD
ENDROOT
BRANCH   1   3
ATOM      3  C   UNL     1       1.456   2.970   2.432  0.00  0.00    -0.039 C 
ATOM      4  C   UNL     1       2.923   3.380   2.289  0.00  0.00    -0.013 C 
ATOM      5  C   UNL     1       3.018   4.904   2.187  0.00  0.00    -0.001 C 
ATOM      6  C   UNL     1       2.433   5.537   3.451  0.00  0.00    +0.002 C 
ATOM      7  C   UNL     1       0.966   5.127   3.595  0.00  0.00    +0.030 C 
ATOM      8  C   UNL     1       0.870   3.603   3.696  0.00  0.00    +0.101 C 
BRANCH   8   9
ATOM      9  O   UNL     1       1.604   3.155   4.837  0.00  0.00    -0.393 OA
ATOM     10  H   UNL     1       1.337   3.573   5.667  0.00  0.00    +0.210 HD
ENDBRANCH   8   9
ENDBRANCH   1   3
BRANCH   1  11
ATOM     11  C   UNL     1       1.503   0.881   1.208  0.00  0.00    -0.044 C 
BRANCH  11  12
ATOM     12  C   UNL     1       0.306   1.264   0.334  0.00  0.00    +0.118 C 
BRANCH  12  13
ATOM     13  O   UNL     1      -0.899   0.809   0.952  0.00  0.00    -0.392 OA
ATOM     14  H   UNL     1      -0.937  -0.148   1.084  0.00  0.00    +0.210 HD
ENDBRANCH  12  13
BRANCH  12  15
ATOM     15  C   UNL     1       0.451   0.613  -1.042  0.00  0.00    +0.151 C 
BRANCH  15  19
ATOM     16  C   UNL     1      -2.066   3.402  -4.381  0.00  0.00    +0.046 C 
ATOM     17  C   UNL     1      -1.728   2.316  -3.393  0.00  0.00    -0.022 A 
ATOM     18  C   UNL     1      -0.572   2.177  -2.724  0.00  0.00    +0.020 A 
ATOM     19  N   UNL     1      -0.630   1.073  -1.917  0.00  0.00    -0.341 N 
ATOM     20  C   UNL     1      -1.854   0.457  -2.054  0.00  0.00    +0.050 A 
ATOM     21  C   UNL     1      -2.597   1.212  -2.980  0.00  0.00    +0.003 A 
ATOM     22  C   UNL     1      -3.894   0.820  -3.316  0.00  0.00    +0.010 A 
ATOM     23  C   UNL     1      -4.438  -0.293  -2.738  0.00  0.00    +0.001 A 
ATOM     24  C   UNL     1      -3.711  -1.037  -1.820  0.00  0.00    +0.002 A 
ATOM     25  C   UNL     1      -2.429  -0.669  -1.474  0.00  0.00    +0.026 A 
ATOM     26  C   UNL     1       0.614   3.099  -2.845  0.00  0.00    +0.064 C 
ENDBRANCH  15  19
ENDBRANCH  12  15
ENDBRANCH  11  12
ENDBRANCH   1  11
BRANCH   1  27
ATOM     27  C   UNL     1       2.361   0.978   3.470  0.00  0.00    -0.042 C 
BRANCH  27  28
ATOM     28  C   UNL     1       2.100  -0.487   3.708  0.00  0.00    -0.064 A 
ATOM     29  C   UNL     1       1.176  -0.879   4.658  0.00  0.00    +0.002 A 
ATOM     30  C   UNL     1       0.933  -2.223   4.873  0.00  0.00    +0.000 A 
ATOM     31  C   UNL     1       1.621  -3.175   4.145  0.00  0.00    +0.000 A 
ATOM     32  C   UNL     1       2.550  -2.783   3.199  0.00  0.00    +0.000 A 
ATOM     33  C   UNL     1       2.789  -1.439   2.980  0.00  0.00    +0.002 A 
ENDBRANCH  27  28
ENDBRANCH   1  27
TORSDOF 9
