REMARK  Name = ZINC13319715
REMARK  5 active torsions:
REMARK  status: ('A' for Active; 'I' for Inactive)
REMARK    1  A    between atoms: C_1  and  C_2
REMARK    2  A    between atoms: C_8  and  C_16
REMARK    3  A    between atoms: C_12  and  C_13
REMARK    4  A    between atoms: C_16  and  O_17
REMARK    5  A    between atoms: O_17  and  C_18
REMARK                            x       y       z     vdW  Elec       q    Type
REMARK                         _______ _______ _______ _____ _____    ______ ____
ROOT
ATOM      1  C   UNL     1      -0.018   1.503   0.010  0.00  0.00    +0.046 C 
ATOM      2  C   UNL     1       0.002  -0.004   0.002  0.00  0.00    -0.015 A 
ATOM      3  C   UNL     1       0.005  -0.700  -1.207  0.00  0.00    +0.076 A 
ATOM      4  C   UNL     1      -0.009  -0.168  -2.590  0.00  0.00    +0.260 A 
ATOM      5  O   UNL     1      -0.026   1.032  -2.798  0.00  0.00    -0.267 OA
ATOM      6  N   UNL     1      -0.002  -1.047  -3.611  0.00  0.00    -0.308 N 
ATOM      7  H   UNL     1      -0.010  -0.716  -4.523  0.00  0.00    +0.170 HD
ATOM      8  C   UNL     1       0.018  -2.385  -3.391  0.00  0.00    +0.149 A 
ATOM      9  N   UNL     1       0.031  -2.886  -2.186  0.00  0.00    -0.223 NA
ATOM     10  C   UNL     1       0.026  -2.110  -1.109  0.00  0.00    +0.116 A 
ATOM     11  S   UNL     1       0.038  -2.402   0.641  0.00  0.00    -0.062 S 
ATOM     12  C   UNL     1       0.023  -0.703   1.188  0.00  0.00    +0.106 A 
ENDROOT
BRANCH  12  13
ATOM     13  C   UNL     1       0.029  -0.199   2.513  0.00  0.00    +0.393 C 
ATOM     14  O   UNL     1       0.015   1.010   2.709  0.00  0.00    -0.240 OA
ATOM     15  O   UNL     1       0.050  -0.973   3.463  0.00  0.00    -0.240 OA
ENDBRANCH  12  13
BRANCH   8  16
ATOM     16  C   UNL     1       0.025  -3.320  -4.573  0.00  0.00    +0.303 C 
BRANCH  16  17
ATOM     17  O   UNL     1       0.046  -4.672  -4.110  0.00  0.00    -0.478 OA
BRANCH  17  18
ATOM     18  C   UNL     1       0.054  -5.649  -5.056  0.00  0.00    +0.197 A 
ATOM     19  C   UNL     1      -1.143  -6.160  -5.537  0.00  0.00    +0.203 A 
ATOM     20  C   UNL     1      -1.132  -7.155  -6.502  0.00  0.00    +0.165 A 
ATOM     21  C   UNL     1       0.072  -7.638  -6.985  0.00  0.00    +0.082 A 
ATOM     22  C   UNL     1       1.267  -7.129  -6.507  0.00  0.00    +0.165 A 
ATOM     23  C   UNL     1       1.260  -6.131  -5.546  0.00  0.00    +0.203 A 
ATOM     24  F   UNL     1       2.427  -5.631  -5.083  0.00  0.00    -0.199 F 
ATOM     25  F   UNL     1       2.440  -7.603  -6.980  0.00  0.00    -0.202 F 
ATOM     26  F   UNL     1      -2.297  -7.653  -6.970  0.00  0.00    -0.202 F 
ATOM     27  F   UNL     1      -2.317  -5.689  -5.066  0.00  0.00    -0.199 F 
ENDBRANCH  17  18
ENDBRANCH  16  17
ENDBRANCH   8  16
TORSDOF 4
