REMARK  Name = ZINC14478997
REMARK  6 active torsions:
REMARK  status: ('A' for Active; 'I' for Inactive)
REMARK    1  A    between atoms: C_1  and  C_2
REMARK    2  A    between atoms: C_7  and  C_8
REMARK    3  A    between atoms: C_19  and  S_24
REMARK    4  A    between atoms: S_24  and  N_27
REMARK    5  A    between atoms: N_27  and  C_28
REMARK    6  A    between atoms: C_28  and  C_29
REMARK                            x       y       z     vdW  Elec       q    Type
REMARK                         _______ _______ _______ _____ _____    ______ ____
ROOT
ATOM      1  C   UNL     1      -2.519   1.406   0.022  0.00  0.00    +0.105 C 
ATOM      2  C   UNL     1      -2.948   1.104   1.446  0.00  0.00    +0.029 C 
ATOM      3  C   UNL     1      -1.911   0.414   2.336  0.00  0.00    +0.033 C 
ATOM      4  C   UNL     1      -2.334   0.915   3.718  0.00  0.00    -0.030 C 
ATOM      5  C   UNL     1      -2.950   2.086   3.608  0.00  0.00    -0.023 C 
ATOM      6  C   UNL     1      -2.965   2.481   2.176  0.00  0.00    +0.049 C 
ATOM      7  C   UNL     1      -4.060   3.289   1.598  0.00  0.00    -0.018 A 
ATOM      8  C   UNL     1      -4.799   4.178   2.348  0.00  0.00    +0.034 A 
ATOM      9  C   UNL     1      -5.790   4.938   1.753  0.00  0.00    +0.106 A 
ATOM     10  C   UNL     1      -6.043   4.806   0.400  0.00  0.00    +0.030 A 
ATOM     11  C   UNL     1      -5.314   3.913  -0.358  0.00  0.00    +0.025 A 
ATOM     12  C   UNL     1      -4.320   3.140   0.231  0.00  0.00    +0.031 A 
ATOM     13  N   UNL     1      -3.605   2.229  -0.555  0.00  0.00    -0.336 N 
ATOM     14  H   UNL     1      -3.825   2.136  -1.496  0.00  0.00    +0.147 HD
ENDROOT
BRANCH   1  21
ATOM     15  C   UNL     1       0.002  -0.004   0.002  0.00  0.00    +0.044 C 
ATOM     16  C   UNL     1      -0.018   1.503   0.010  0.00  0.00    -0.045 A 
ATOM     17  C   UNL     1       1.169   2.210   0.003  0.00  0.00    +0.004 A 
ATOM     18  C   UNL     1       1.151   3.592   0.010  0.00  0.00    +0.000 A 
ATOM     19  C   UNL     1      -0.056   4.267   0.025  0.00  0.00    +0.000 A 
ATOM     20  C   UNL     1      -1.243   3.560   0.033  0.00  0.00    +0.006 A 
ATOM     21  C   UNL     1      -1.225   2.178   0.020  0.00  0.00    -0.024 A 
ENDBRANCH   1  21
BRANCH   9  22
ATOM     22  S   UNL     1      -6.728   6.074   2.719  0.00  0.00    +0.058 S 
ATOM     23  O   UNL     1      -5.930   6.405   3.847  0.00  0.00    -0.153 OA
ATOM     24  O   UNL     1      -7.223   7.058   1.822  0.00  0.00    -0.153 OA
BRANCH  22  25
ATOM     25  N   UNL     1      -8.046   5.254   3.296  0.00  0.00    -0.187 NA
ATOM     26  H   UNL     1      -8.938   5.508   3.011  0.00  0.00    +0.148 HD
BRANCH  25  27
ATOM     27  C   UNL     1      -7.865   4.146   4.237  0.00  0.00    +0.137 C 
BRANCH  27  28
ATOM     28  C   UNL     1      -9.206   3.811   4.894  0.00  0.00    +0.134 C 
ATOM     29  C   UNL     1      -9.003   2.722   5.970  0.00  0.00    +0.035 C 
ATOM     30  C   UNL     1     -10.265   1.836   5.783  0.00  0.00    +0.031 C 
ATOM     31  C   UNL     1     -10.474   1.940   4.252  0.00  0.00    +0.160 C 
ATOM     32  O   UNL     1     -10.110   3.288   3.914  0.00  0.00    -0.375 OA
ENDBRANCH  27  28
ENDBRANCH  25  27
ENDBRANCH  22  25
ENDBRANCH   9  22
TORSDOF 5
