REMARK  Name = ZINC39210800
REMARK  16 active torsions:
REMARK  status: ('A' for Active; 'I' for Inactive)
REMARK    1  A    between atoms: C_1  and  C_2
REMARK    2  A    between atoms: C_5  and  S_8
REMARK    3  A    between atoms: S_8  and  N_11
REMARK    4  A    between atoms: N_11  and  C_12
REMARK    5  A    between atoms: C_12  and  C_14
REMARK    6  A    between atoms: C_12  and  C_17
REMARK    7  A    between atoms: C_14  and  C_15
REMARK    8  A    between atoms: C_14  and  C_16
REMARK    9  A    between atoms: C_17  and  O_19
REMARK   10  A    between atoms: O_19  and  C_20
REMARK   11  A    between atoms: C_20  and  C_22
REMARK   12  A    between atoms: C_20  and  C_23
REMARK   13  A    between atoms: N_25  and  C_26
REMARK   14  A    between atoms: N_30  and  C_31
REMARK   15  A    between atoms: C_31  and  C_32
REMARK   16  A    between atoms: C_31  and  C_33
REMARK                            x       y       z     vdW  Elec       q    Type
REMARK                         _______ _______ _______ _____ _____    ______ ____
ROOT
ATOM      1  C   UNL     1       3.652  -5.689   0.897  0.00  0.00    +0.327 C 
ATOM      2  O   UNL     1       3.618  -6.581   0.084  0.00  0.00    -0.249 OA
ENDROOT
BRANCH   1   3
ATOM      3  C   UNL     1       2.559  -4.651   0.924  0.00  0.00    +0.187 C 
BRANCH   3   4
ATOM      4  C   UNL     1       3.165  -3.266   0.686  0.00  0.00    +0.012 C 
ATOM      5  C   UNL     1       2.043  -2.232   0.568  0.00  0.00    +0.009 C 
ATOM      6  C   UNL     1       4.075  -2.899   1.860  0.00  0.00    +0.009 C 
ENDBRANCH   3   4
BRANCH   3   7
ATOM      7  N   UNL     1       1.582  -4.944  -0.128  0.00  0.00    -0.176 NA
ATOM      8  H   UNL     1       1.739  -4.638  -1.034  0.00  0.00    +0.149 HD
BRANCH   7   9
ATOM      9  S   UNL     1       0.210  -5.798   0.232  0.00  0.00    +0.059 S 
ATOM     10  O   UNL     1       0.624  -6.942   0.966  0.00  0.00    -0.153 OA
ATOM     11  O   UNL     1      -0.536  -5.895  -0.974  0.00  0.00    -0.153 OA
BRANCH   9  16
ATOM     12  C   UNL     1      -3.059  -2.418   4.013  0.00  0.00    +0.044 C 
ATOM     13  C   UNL     1      -2.242  -3.262   3.069  0.00  0.00    -0.050 A 
ATOM     14  C   UNL     1      -2.347  -3.070   1.704  0.00  0.00    +0.005 A 
ATOM     15  C   UNL     1      -1.598  -3.844   0.838  0.00  0.00    +0.029 A 
ATOM     16  C   UNL     1      -0.744  -4.810   1.336  0.00  0.00    +0.105 A 
ATOM     17  C   UNL     1      -0.639  -5.002   2.701  0.00  0.00    +0.029 A 
ATOM     18  C   UNL     1      -1.385  -4.225   3.568  0.00  0.00    +0.005 A 
ENDBRANCH   9  16
ENDBRANCH   7   9
ENDBRANCH   3   7
ENDBRANCH   1   3
BRANCH   1  19
ATOM     19  O   UNL     1       4.663  -5.621   1.778  0.00  0.00    -0.451 OA
BRANCH  19  20
ATOM     20  C   UNL     1       5.664  -6.638   1.695  0.00  0.00    +0.259 C 
ATOM     21  C   UNL     1       5.271  -7.815   2.590  0.00  0.00    +0.062 C 
BRANCH  20  22
ATOM     22  C   UNL     1       6.987  -6.079   2.153  0.00  0.00    +0.259 C 
ATOM     23  O   UNL     1       7.047  -4.952   2.599  0.00  0.00    -0.271 OA
ATOM     24  N   UNL     1       8.102  -6.830   2.066  0.00  0.00    -0.268 N 
ATOM     25  H   UNL     1       8.054  -7.731   1.709  0.00  0.00    +0.156 HD
BRANCH  24  26
ATOM     26  C   UNL     1       9.326  -6.312   2.490  0.00  0.00    +0.123 A 
ATOM     27  C   UNL     1       9.538  -5.074   3.014  0.00  0.00    +0.065 A 
ATOM     28  C   UNL     1      10.900  -4.960   3.305  0.00  0.00    +0.136 A 
ATOM     29  N   UNL     1      11.487  -6.081   2.971  0.00  0.00    -0.178 NA
ATOM     30  N   UNL     1      10.518  -6.952   2.460  0.00  0.00    -0.248 N 
BRANCH  30  31
ATOM     31  C   UNL     1      10.753  -8.315   1.975  0.00  0.00    +0.103 C 
ATOM     32  C   UNL     1      11.746  -8.278   0.812  0.00  0.00    +0.032 C 
ATOM     33  C   UNL     1      11.326  -9.168   3.108  0.00  0.00    +0.032 C 
ENDBRANCH  30  31
ENDBRANCH  24  26
ENDBRANCH  20  22
ENDBRANCH  19  20
ENDBRANCH   1  19
TORSDOF 10
