REMARK  Name = ZINC64775572
REMARK  5 active torsions:
REMARK  status: ('A' for Active; 'I' for Inactive)
REMARK    1  A    between atoms: C_1  and  N_2
REMARK    2  A    between atoms: C_9  and  C_21
REMARK    3  A    between atoms: C_12  and  C_14
REMARK    4  A    between atoms: C_19  and  O_20
REMARK    5  A    between atoms: C_26  and  O_27
REMARK                            x       y       z     vdW  Elec       q    Type
REMARK                         _______ _______ _______ _____ _____    ______ ____
ROOT
ATOM      1  C   UNL     1      -0.018   1.465   0.010  0.00  0.00    -0.096 C 
ATOM      2  N   UNL     1       0.002  -0.004   0.002  0.00  0.00    +0.378 N 
ATOM      3  C   UNL     1       0.681  -0.476  -1.211  0.00  0.00    -0.076 C 
ATOM      4  C   UNL     1       0.635  -2.004  -1.264  0.00  0.00    +0.027 C 
ATOM      5  C   UNL     1       1.344  -2.573  -0.029  0.00  0.00    +0.109 C 
ATOM      6  C   UNL     1       0.668  -2.018   1.229  0.00  0.00    +0.027 C 
ATOM      7  C   UNL     1       0.712  -0.489   1.192  0.00  0.00    -0.076 C 
ATOM      8  N   UNL     1       1.226  -4.037  -0.035  0.00  0.00    -0.286 NA
ATOM      9  C   UNL     1       2.057  -4.617   1.034  0.00  0.00    +0.095 C 
ATOM     10  C   UNL     1       3.528  -4.380   0.678  0.00  0.00    +0.079 C 
ATOM     11  C   UNL     1       3.718  -2.947   0.265  0.00  0.00    +0.050 C 
ATOM     12  N   UNL     1       2.747  -2.173  -0.045  0.00  0.00    -0.266 NA
ATOM     13  H   UNL     1       0.263  -4.323   0.059  0.00  0.00    +0.125 HD
ATOM     14  H   UNL     1      -0.945  -0.352   0.012  0.00  0.00    -0.082 HD
ENDROOT
BRANCH  11  15
ATOM     15  C   UNL     1       5.089  -2.407   0.216  0.00  0.00    +0.037 A 
ATOM     16  C   UNL     1       6.177  -3.220   0.543  0.00  0.00    +0.013 A 
ATOM     17  C   UNL     1       7.456  -2.709   0.494  0.00  0.00    +0.001 A 
ATOM     18  C   UNL     1       7.668  -1.392   0.123  0.00  0.00    +0.004 A 
ATOM     19  C   UNL     1       6.602  -0.577  -0.202  0.00  0.00    +0.046 A 
ATOM     20  C   UNL     1       5.309  -1.076  -0.164  0.00  0.00    +0.126 A 
BRANCH  20  21
ATOM     21  O   UNL     1       4.260  -0.277  -0.488  0.00  0.00    -0.506 OA
ATOM     22  H   UNL     1       3.887   0.206   0.262  0.00  0.00    +0.292 HD
ENDBRANCH  20  21
ENDBRANCH  11  15
BRANCH   9  23
ATOM     23  C   UNL     1       1.791  -6.097   1.138  0.00  0.00    +0.011 A 
ATOM     24  C   UNL     1       1.324  -6.794   0.040  0.00  0.00    +0.009 A 
ATOM     25  C   UNL     1       1.079  -8.152   0.135  0.00  0.00    +0.001 A 
ATOM     26  C   UNL     1       1.301  -8.815   1.328  0.00  0.00    +0.004 A 
ATOM     27  C   UNL     1       1.768  -8.122   2.428  0.00  0.00    +0.046 A 
ATOM     28  C   UNL     1       2.019  -6.761   2.334  0.00  0.00    +0.122 A 
BRANCH  28  29
ATOM     29  O   UNL     1       2.484  -6.079   3.413  0.00  0.00    -0.506 OA
ATOM     30  H   UNL     1       1.789  -5.714   3.977  0.00  0.00    +0.292 HD
ENDBRANCH  28  29
ENDBRANCH   9  23
TORSDOF 4
