REMARK  Name = ZINC39732334
REMARK  17 active torsions:
REMARK  status: ('A' for Active; 'I' for Inactive)
REMARK    1  A    between atoms: C_1  and  C_2
REMARK    2  A    between atoms: C_2  and  O_3
REMARK    3  A    between atoms: O_3  and  C_4
REMARK    4  A    between atoms: C_4  and  C_6
REMARK    5  A    between atoms: C_8  and  C_39
REMARK    6  A    between atoms: C_10  and  C_34
REMARK    7  A    between atoms: C_13  and  N_15
REMARK    8  A    between atoms: C_16  and  C_18
REMARK    9  A    between atoms: C_18  and  S_19
REMARK   10  A    between atoms: S_19  and  C_20
REMARK   11  A    between atoms: C_25  and  C_30
REMARK   12  A    between atoms: C_30  and  C_31
REMARK   13  A    between atoms: C_30  and  C_32
REMARK   14  A    between atoms: C_30  and  C_33
REMARK   15  A    between atoms: C_34  and  O_36
REMARK   16  A    between atoms: O_36  and  C_37
REMARK   17  A    between atoms: C_37  and  C_38
REMARK                            x       y       z     vdW  Elec       q    Type
REMARK                         _______ _______ _______ _____ _____    ______ ____
ROOT
ATOM      1  N   UNL     1      -5.334  -3.845  -2.967  0.00  0.00    -0.302 N 
ATOM      2  C   UNL     1      -4.852  -3.551  -4.191  0.00  0.00    +0.224 C 
ATOM      3  O   UNL     1      -5.262  -4.148  -5.163  0.00  0.00    -0.275 OA
ATOM      4  H   UNL     1      -5.006  -3.367  -2.189  0.00  0.00    +0.150 HD
ENDROOT
BRANCH   1   9
ATOM      5  C   UNL     1      -6.012  -5.809  -1.627  0.00  0.00    +0.132 C 
ATOM      6  C   UNL     1      -5.679  -7.239  -2.050  0.00  0.00    +0.026 C 
ATOM      7  C   UNL     1      -6.468  -7.619  -3.334  0.00  0.00    +0.160 C 
ATOM      8  S   UNL     1      -6.343  -6.023  -4.255  0.00  0.00    -0.123 S 
ATOM      9  C   UNL     1      -6.354  -4.885  -2.812  0.00  0.00    +0.146 C 
ATOM     10  C   UNL     1      -6.057  -8.202  -0.922  0.00  0.00    +0.010 C 
BRANCH   5  11
ATOM     11  C   UNL     1      -4.828  -5.235  -0.892  0.00  0.00    +0.313 C 
ATOM     12  O   UNL     1      -3.818  -5.886  -0.772  0.00  0.00    -0.250 OA
BRANCH  11  13
ATOM     13  O   UNL     1      -4.896  -3.999  -0.371  0.00  0.00    -0.465 OA
BRANCH  13  15
ATOM     14  C   UNL     1      -4.002  -2.104   0.832  0.00  0.00    +0.048 C 
ATOM     15  C   UNL     1      -3.737  -3.518   0.312  0.00  0.00    +0.229 C 
ENDBRANCH  13  15
ENDBRANCH  11  13
ENDBRANCH   5  11
BRANCH   7  16
ATOM     16  C   UNL     1      -5.794  -8.740  -4.082  0.00  0.00    +0.321 C 
ATOM     17  O   UNL     1      -4.594  -8.867  -4.027  0.00  0.00    -0.250 OA
BRANCH  16  18
ATOM     18  O   UNL     1      -6.527  -9.598  -4.808  0.00  0.00    -0.464 OA
BRANCH  18  19
ATOM     19  C   UNL     1      -5.822 -10.637  -5.491  0.00  0.00    +0.229 C 
ATOM     20  C   UNL     1      -6.817 -11.509  -6.260  0.00  0.00    +0.048 C 
ENDBRANCH  18  19
ENDBRANCH  16  18
ENDBRANCH   7  16
ENDBRANCH   1   9
BRANCH   2  21
ATOM     21  C   UNL     1      -3.803  -2.481  -4.350  0.00  0.00    +0.173 C 
BRANCH  21  22
ATOM     22  S   UNL     1      -3.362  -2.322  -6.103  0.00  0.00    -0.076 S 
BRANCH  22  23
ATOM     23  C   UNL     1      -2.144  -1.050  -6.122  0.00  0.00    +0.198 A 
ATOM     24  N   UNL     1      -1.683  -0.396  -5.082  0.00  0.00    -0.120 NA
ATOM     25  N   UNL     1      -0.802   0.465  -5.449  0.00  0.00    -0.107 NA
ATOM     26  C   UNL     1      -0.643   0.414  -6.759  0.00  0.00    +0.260 A 
ATOM     27  N   UNL     1      -1.497  -0.563  -7.223  0.00  0.00    -0.258 N 
ATOM     28  C   UNL     1      -1.553  -0.851  -8.559  0.00  0.00    +0.040 A 
ATOM     29  C   UNL     1      -0.759  -0.166  -9.411  0.00  0.00    +0.094 A 
ATOM     30  C   UNL     1       0.107   0.827  -8.905  0.00  0.00    +0.275 A 
ATOM     31  O   UNL     1       0.907   1.518  -9.751  0.00  0.00    -0.266 OA
ATOM     32  N   UNL     1       0.138   1.090  -7.614  0.00  0.00    -0.172 NA
BRANCH  28  33
ATOM     33  C   UNL     1      -2.486  -1.916  -9.073  0.00  0.00    +0.003 C 
ATOM     34  C   UNL     1      -2.342  -2.030 -10.592  0.00  0.00    +0.017 C 
ATOM     35  C   UNL     1      -2.136  -3.257  -8.425  0.00  0.00    +0.017 C 
ATOM     36  C   UNL     1      -3.929  -1.542  -8.725  0.00  0.00    +0.017 C 
ENDBRANCH  28  33
ENDBRANCH  22  23
ENDBRANCH  21  22
ENDBRANCH   2  21
TORSDOF 11
