REMARK  Name = ZINC05633439
REMARK  4 active torsions:
REMARK  status: ('A' for Active; 'I' for Inactive)
REMARK    1  A    between atoms: C_1  and  C_2
REMARK    2  A    between atoms: C_2  and  C_3
REMARK    3  A    between atoms: C_2  and  C_4
REMARK    4  A    between atoms: N_7  and  O_8
REMARK                            x       y       z     vdW  Elec       q    Type
REMARK                         _______ _______ _______ _____ _____    ______ ____
ROOT
ATOM      1  C   UNL     1      -1.433  -0.534   0.013  0.00  0.00    +0.228 C 
ATOM      2  C   UNL     1      -1.431  -2.047   0.030  0.00  0.00    +0.131 C 
ATOM      3  N   UNL     1      -0.935  -2.850  -0.856  0.00  0.00    -0.088 NA
ATOM      4  C   UNL     1      -2.123  -2.403   1.288  0.00  0.00    +0.046 A 
ATOM      5  C   UNL     1      -2.427  -3.634   1.855  0.00  0.00    +0.025 A 
ATOM      6  C   UNL     1      -3.101  -3.681   3.077  0.00  0.00    +0.018 A 
ATOM      7  C   UNL     1      -3.436  -4.962   3.703  0.00  0.00    +0.018 A 
ATOM      8  C   UNL     1      -4.093  -4.942   4.892  0.00  0.00    +0.092 A 
ATOM      9  C   UNL     1      -4.431  -3.708   5.485  0.00  0.00    +0.337 A 
ATOM     10  O   UNL     1      -5.019  -3.705   6.552  0.00  0.00    -0.245 OA
ATOM     11  O   UNL     1      -4.121  -2.538   4.907  0.00  0.00    -0.422 OA
ATOM     12  C   UNL     1      -3.468  -2.485   3.725  0.00  0.00    +0.143 A 
ATOM     13  C   UNL     1      -3.159  -1.264   3.147  0.00  0.00    +0.093 A 
ATOM     14  C   UNL     1      -2.488  -1.208   1.932  0.00  0.00    +0.134 A 
ATOM     15  O   UNL     1      -2.098  -0.128   1.209  0.00  0.00    -0.482 OA
ENDROOT
BRANCH   1  17
ATOM     16  C   UNL     1      -0.019   1.526   0.010  0.00  0.00    +0.011 C 
ATOM     17  C   UNL     1       0.002  -0.004   0.002  0.00  0.00    +0.030 C 
ATOM     18  C   UNL     1       0.742  -0.511   1.242  0.00  0.00    +0.011 C 
ENDBRANCH   1  17
BRANCH   3  19
ATOM     19  O   UNL     1      -1.025  -4.251  -0.673  0.00  0.00    -0.409 OA
ATOM     20  H   UNL     1      -0.627  -4.768  -1.386  0.00  0.00    +0.328 HD
ENDBRANCH   3  19
TORSDOF 2
