REMARK  Name = ZINC50027616
REMARK  6 active torsions:
REMARK  status: ('A' for Active; 'I' for Inactive)
REMARK    1  A    between atoms: C_4  and  C_7
REMARK    2  A    between atoms: C_7  and  N_8
REMARK    3  A    between atoms: C_12  and  C_14
REMARK    4  A    between atoms: C_14  and  N_16
REMARK    5  A    between atoms: C_19  and  C_22
REMARK    6  A    between atoms: C_24  and  C_28
REMARK                            x       y       z     vdW  Elec       q    Type
REMARK                         _______ _______ _______ _____ _____    ______ ____
ROOT
ATOM      1  N   UNL     1       7.832  -0.836   1.575  0.00  0.00    -0.158 NA
ATOM      2  C   UNL     1       8.761   0.106   1.748  0.00  0.00    +0.163 A 
ATOM      3  N   UNL     1      10.112  -0.044   1.804  0.00  0.00    -0.335 N 
ATOM      4  C   UNL     1      10.890   1.063   1.991  0.00  0.00    +0.056 A 
ATOM      5  C   UNL     1      10.249   2.246   2.109  0.00  0.00    +0.074 A 
ATOM      6  S   UNL     1       8.542   1.761   1.943  0.00  0.00    -0.060 S 
ATOM      7  H   UNL     1      10.515  -0.921   1.714  0.00  0.00    +0.168 HD
ENDROOT
BRANCH   4   8
ATOM      8  C   UNL     1      12.367   0.970   2.062  0.00  0.00    +0.017 A 
ATOM      9  C   UNL     1      13.263   2.039   2.256  0.00  0.00    +0.042 A 
ATOM     10  C   UNL     1      14.524   1.513   2.256  0.00  0.00    +0.102 A 
ATOM     11  N   UNL     1      14.422   0.153   2.068  0.00  0.00    -0.356 N 
ATOM     12  H   UNL     1      15.167  -0.467   2.027  0.00  0.00    +0.165 HD
ATOM     13  C   UNL     1      13.119  -0.179   1.956  0.00  0.00    +0.093 A 
BRANCH  10  14
ATOM     14  C   UNL     1      15.771   2.266   2.428  0.00  0.00    +0.258 C 
ATOM     15  O   UNL     1      15.736   3.472   2.588  0.00  0.00    -0.269 OA
ATOM     16  N   UNL     1      16.955   1.623   2.408  0.00  0.00    -0.324 N 
ATOM     17  H   UNL     1      16.983   0.662   2.280  0.00  0.00    +0.145 HD
ATOM     18  H   UNL     1      17.780   2.121   2.521  0.00  0.00    +0.145 HD
ENDBRANCH  10  14
ENDBRANCH   4   8
BRANCH   1  19
ATOM     19  C   UNL     1       6.548  -0.503   1.540  0.00  0.00    +0.225 C 
ATOM     20  O   UNL     1       6.218   0.661   1.667  0.00  0.00    -0.275 OA
BRANCH  19  25
ATOM     21  N   UNL     1       4.153  -0.953   1.342  0.00  0.00    +0.390 N 
ATOM     22  C   UNL     1       3.257  -1.939   1.998  0.00  0.00    -0.077 C 
ATOM     23  C   UNL     1       4.129  -2.498   3.150  0.00  0.00    -0.020 C 
ATOM     24  C   UNL     1       5.537  -2.565   2.517  0.00  0.00    -0.008 C 
ATOM     25  C   UNL     1       5.499  -1.567   1.344  0.00  0.00    +0.022 C 
ATOM     26  H   UNL     1       4.164  -0.089   1.863  0.00  0.00    -0.080 HD
BRANCH  21  27
ATOM     27  C   UNL     1       3.711  -0.707  -0.038  0.00  0.00    -0.042 C 
BRANCH  27  31
ATOM     28  C   UNL     1      -0.017   1.378   0.010  0.00  0.00    +0.000 A 
ATOM     29  C   UNL     1       1.171   2.086   0.002  0.00  0.00    +0.000 A 
ATOM     30  C   UNL     1       2.377   1.411  -0.013  0.00  0.00    +0.002 A 
ATOM     31  C   UNL     1       2.396   0.029  -0.020  0.00  0.00    -0.064 A 
ATOM     32  C   UNL     1       1.208  -0.679  -0.012  0.00  0.00    +0.002 A 
ATOM     33  C   UNL     1       0.002  -0.004   0.002  0.00  0.00    +0.000 A 
ENDBRANCH  27  31
ENDBRANCH  21  27
ENDBRANCH  19  25
ENDBRANCH   1  19
TORSDOF 6
