REMARK  Name = ZINC13198059
REMARK  5 active torsions:
REMARK  status: ('A' for Active; 'I' for Inactive)
REMARK    1  A    between atoms: C_3  and  C_6
REMARK    2  A    between atoms: N_11  and  S_12
REMARK    3  A    between atoms: S_12  and  C_15
REMARK    4  A    between atoms: C_18  and  O_23
REMARK    5  A    between atoms: C_19  and  C_21
REMARK                            x       y       z     vdW  Elec       q    Type
REMARK                         _______ _______ _______ _____ _____    ______ ____
ROOT
ATOM      1  S   UNL     1       3.904   2.315  -0.023  0.00  0.00    +0.061 S 
ATOM      2  O   UNL     1       3.629   3.591   0.538  0.00  0.00    -0.153 OA
ATOM      3  O   UNL     1       4.891   1.444   0.514  0.00  0.00    -0.153 OA
ENDROOT
BRANCH   1   4
ATOM      4  C   UNL     1       2.385   1.422  -0.013  0.00  0.00    +0.107 A 
ATOM      5  C   UNL     1       2.400   0.036  -0.021  0.00  0.00    +0.032 A 
ATOM      6  C   UNL     1       1.216  -0.675  -0.013  0.00  0.00    +0.048 A 
ATOM      7  C   UNL     1       0.002  -0.004   0.002  0.00  0.00    +0.131 A 
ATOM      8  C   UNL     1      -0.017   1.398   0.010  0.00  0.00    +0.106 A 
ATOM      9  C   UNL     1       1.189   2.105   0.002  0.00  0.00    +0.047 A 
BRANCH   8  10
ATOM     10  C   UNL     1      -1.301   2.122   0.020  0.00  0.00    +0.390 C 
ATOM     11  O   UNL     1      -2.347   1.504   0.021  0.00  0.00    -0.240 OA
ATOM     12  O   UNL     1      -1.314   3.469   0.027  0.00  0.00    -0.240 OA
ENDBRANCH   8  10
BRANCH   7  13
ATOM     13  O   UNL     1      -1.161  -0.701   0.009  0.00  0.00    -0.506 OA
ATOM     14  H   UNL     1      -1.507  -0.899  -0.872  0.00  0.00    +0.292 HD
ENDBRANCH   7  13
ENDBRANCH   1   4
BRANCH   1  19
ATOM     15  C   UNL     1       5.132   1.677  -2.437  0.00  0.00    +0.116 C 
ATOM     16  C   UNL     1       5.219   2.308  -3.843  0.00  0.00    +0.027 C 
ATOM     17  C   UNL     1       3.981   3.241  -3.884  0.00  0.00    +0.019 C 
ATOM     18  C   UNL     1       3.916   3.737  -2.418  0.00  0.00    +0.110 C 
ATOM     19  N   UNL     1       4.311   2.571  -1.607  0.00  0.00    -0.169 NA
BRANCH  15  22
ATOM     20  C   UNL     1       8.542   0.569  -1.149  0.00  0.00    +0.008 A 
ATOM     21  C   UNL     1       7.295   0.449  -1.734  0.00  0.00    +0.013 A 
ATOM     22  C   UNL     1       6.511   1.549  -1.843  0.00  0.00    +0.009 A 
ATOM     23  S   UNL     1       7.533   2.807  -1.094  0.00  0.00    -0.100 S 
ATOM     24  C   UNL     1       8.939   1.782  -0.692  0.00  0.00    +0.045 A 
ENDBRANCH  15  22
ENDBRANCH   1  19
TORSDOF 5
