REMARK  Name = ZINC39607279
REMARK  7 active torsions:
REMARK  status: ('A' for Active; 'I' for Inactive)
REMARK    1  A    between atoms: C_1  and  C_2
REMARK    2  A    between atoms: C_5  and  C_9
REMARK    3  A    between atoms: C_6  and  C_8
REMARK    4  A    between atoms: C_9  and  N_10
REMARK    5  A    between atoms: C_11  and  C_13
REMARK    6  A    between atoms: C_24  and  C_26
REMARK    7  A    between atoms: C_27  and  C_31
REMARK                            x       y       z     vdW  Elec       q    Type
REMARK                         _______ _______ _______ _____ _____    ______ ____
ROOT
ATOM      1  C   UNL     1      -2.917  -6.620   0.509  0.00  0.00    +0.100 C 
ATOM      2  C   UNL     1      -3.347  -6.314   1.962  0.00  0.00    +0.121 C 
ATOM      3  N   UNL     1      -4.130  -7.502   2.378  0.00  0.00    -0.296 N 
ATOM      4  C   UNL     1      -3.397  -8.650   1.792  0.00  0.00    +0.115 C 
ATOM      5  C   UNL     1      -2.950  -8.154   0.402  0.00  0.00    -0.004 C 
ATOM      6  C   UNL     1      -1.560  -8.691   0.073  0.00  0.00    -0.010 C 
ATOM      7  C   UNL     1      -1.631 -10.212  -0.086  0.00  0.00    -0.082 C 
ATOM      8  N   UNL     1      -2.575 -10.551  -1.158  0.00  0.00    +0.379 N 
ATOM      9  C   UNL     1      -3.927 -10.113  -0.791  0.00  0.00    -0.082 C 
ATOM     10  C   UNL     1      -3.954  -8.588  -0.662  0.00  0.00    -0.010 C 
ATOM     11  C   UNL     1      -5.253  -7.532   3.121  0.00  0.00    +0.254 C 
ATOM     12  O   UNL     1      -5.795  -6.492   3.447  0.00  0.00    -0.269 OA
ATOM     13  H   UNL     1      -2.293 -10.091  -2.011  0.00  0.00    -0.086 HD
ATOM     14  H   UNL     1      -2.574 -11.550  -1.302  0.00  0.00    -0.086 HD
ENDROOT
BRANCH  11  15
ATOM     15  C   UNL     1      -5.822  -8.817   3.538  0.00  0.00    +0.077 A 
ATOM     16  C   UNL     1      -7.011  -9.071   4.205  0.00  0.00    -0.031 A 
ATOM     17  C   UNL     1      -7.280 -10.394   4.463  0.00  0.00    +0.011 A 
ATOM     18  C   UNL     1      -6.393 -11.337   4.060  0.00  0.00    +0.046 A 
ATOM     19  S   UNL     1      -5.170 -10.460   3.314  0.00  0.00    -0.092 S 
ATOM     20  C   UNL     1      -7.948  -7.966   4.622  0.00  0.00    +0.045 C 
ENDBRANCH  11  15
BRANCH   1  22
ATOM     21  N   UNL     1      -1.105  -5.885  -1.006  0.00  0.00    -0.311 N 
ATOM     22  C   UNL     1      -1.523  -6.107   0.256  0.00  0.00    +0.218 C 
ATOM     23  O   UNL     1      -0.777  -5.893   1.188  0.00  0.00    -0.275 OA
ATOM     24  H   UNL     1      -1.702  -6.056  -1.751  0.00  0.00    +0.149 HD
BRANCH  21  25
ATOM     25  C   UNL     1       0.250  -5.386  -1.252  0.00  0.00    +0.139 C 
BRANCH  25  30
ATOM     26  C   UNL     1       1.069  -4.770  -6.939  0.00  0.00    +0.044 C 
ATOM     27  C   UNL     1       0.856  -4.931  -5.456  0.00  0.00    -0.050 A 
ATOM     28  C   UNL     1       1.349  -6.045  -4.803  0.00  0.00    +0.004 A 
ATOM     29  C   UNL     1       1.153  -6.192  -3.443  0.00  0.00    +0.006 A 
ATOM     30  C   UNL     1       0.465  -5.225  -2.735  0.00  0.00    -0.027 A 
ATOM     31  C   UNL     1      -0.028  -4.110  -3.387  0.00  0.00    -0.046 A 
ATOM     32  C   UNL     1       0.172  -3.961  -4.747  0.00  0.00    +0.007 A 
ATOM     33  C   UNL     1      -0.779  -3.056  -2.616  0.00  0.00    +0.044 C 
ENDBRANCH  25  30
ENDBRANCH  21  25
ENDBRANCH   1  22
TORSDOF 4
