REMARK  Name = ZINC31939344
REMARK  6 active torsions:
REMARK  status: ('A' for Active; 'I' for Inactive)
REMARK    1  A    between atoms: C_1  and  C_2
REMARK    2  A    between atoms: C_5  and  C_8
REMARK    3  A    between atoms: N_17  and  N_18
REMARK    4  A    between atoms: N_18  and  C_19
REMARK    5  A    between atoms: C_28  and  S_29
REMARK    6  A    between atoms: C_33  and  C_35
REMARK                            x       y       z     vdW  Elec       q    Type
REMARK                         _______ _______ _______ _____ _____    ______ ____
ROOT
ATOM      1  C   UNL     1       0.002  -4.353  -0.011  0.00  0.00    +0.080 A 
ATOM      2  C   UNL     1      -0.630  -4.953   1.043  0.00  0.00    +0.077 A 
ATOM      3  S   UNL     1      -1.003  -6.553   0.338  0.00  0.00    -0.058 S 
ATOM      4  C   UNL     1      -0.285  -6.260  -1.272  0.00  0.00    +0.189 A 
ATOM      5  N   UNL     1       0.154  -5.022  -1.144  0.00  0.00    -0.223 NA
ATOM      6  N   UNL     1      -0.212  -7.110  -2.372  0.00  0.00    -0.130 N 
ATOM      7  C   UNL     1      -0.703  -8.365  -2.412  0.00  0.00    +0.294 C 
ATOM      8  O   UNL     1      -1.280  -8.956  -1.516  0.00  0.00    -0.266 OA
ATOM      9  C   UNL     1      -0.400  -8.877  -3.759  0.00  0.00    +0.168 C 
ATOM     10  N   UNL     1      -0.693 -10.066  -4.254  0.00  0.00    -0.175 NA
ATOM     11  C   UNL     1       0.301  -7.772  -4.433  0.00  0.00    +0.089 C 
ATOM     12  N   UNL     1       0.375  -6.785  -3.595  0.00  0.00    -0.173 NA
ATOM     13  C   UNL     1       0.830  -7.784  -5.844  0.00  0.00    +0.070 C 
ENDROOT
BRANCH   1  18
ATOM     14  C   UNL     1       1.968   1.039   0.466  0.00  0.00    +0.044 C 
ATOM     15  C   UNL     1       1.454  -0.372   0.342  0.00  0.00    -0.050 A 
ATOM     16  C   UNL     1       1.618  -1.063  -0.846  0.00  0.00    +0.004 A 
ATOM     17  C   UNL     1       1.149  -2.355  -0.966  0.00  0.00    +0.010 A 
ATOM     18  C   UNL     1       0.509  -2.965   0.112  0.00  0.00    +0.001 A 
ATOM     19  C   UNL     1       0.347  -2.264   1.306  0.00  0.00    +0.010 A 
ATOM     20  C   UNL     1       0.825  -0.974   1.417  0.00  0.00    +0.004 A 
ENDBRANCH   1  18
BRANCH  10  21
ATOM     21  N   UNL     1      -0.466 -10.320  -5.498  0.00  0.00    -0.235 N 
ATOM     22  H   UNL     1      -0.166  -9.614  -6.091  0.00  0.00    +0.174 HD
BRANCH  21  23
ATOM     23  C   UNL     1      -0.653 -11.611  -5.990  0.00  0.00    +0.076 A 
ATOM     24  C   UNL     1      -0.965 -12.653  -5.106  0.00  0.00    +0.027 A 
ATOM     25  C   UNL     1      -1.151 -13.920  -5.559  0.00  0.00    +0.010 A 
ATOM     26  C   UNL     1      -1.032 -14.199  -6.932  0.00  0.00    -0.016 A 
ATOM     27  C   UNL     1      -1.220 -15.501  -7.428  0.00  0.00    +0.008 A 
ATOM     28  C   UNL     1      -1.098 -15.738  -8.762  0.00  0.00    +0.001 A 
ATOM     29  C   UNL     1      -0.788 -14.709  -9.649  0.00  0.00    +0.001 A 
ATOM     30  C   UNL     1      -0.599 -13.436  -9.206  0.00  0.00    +0.010 A 
ATOM     31  C   UNL     1      -0.717 -13.152  -7.834  0.00  0.00    +0.011 A 
ATOM     32  C   UNL     1      -0.534 -11.850  -7.343  0.00  0.00    +0.150 A 
BRANCH  32  33
ATOM     33  S   UNL     1      -0.149 -10.531  -8.446  0.00  0.00    +0.142 S 
ATOM     34  O   UNL     1       1.301 -10.469  -8.541  0.00  0.00    -0.140 OA
ATOM     35  O   UNL     1      -0.763 -10.856  -9.724  0.00  0.00    -0.140 OA
ATOM     36  O   UNL     1      -0.708  -9.319  -7.867  0.00  0.00    -0.043 OA
ENDBRANCH  32  33
ENDBRANCH  21  23
ENDBRANCH  10  21
TORSDOF 4
