REMARK  Name = ZINC39709638
REMARK  14 active torsions:
REMARK  status: ('A' for Active; 'I' for Inactive)
REMARK    1  A    between atoms: C_1  and  C_2
REMARK    2  A    between atoms: C_2  and  C_3
REMARK    3  A    between atoms: C_3  and  C_4
REMARK    4  A    between atoms: C_3  and  C_6
REMARK    5  A    between atoms: C_4  and  C_5
REMARK    6  A    between atoms: C_12  and  S_14
REMARK    7  A    between atoms: S_14  and  C_15
REMARK    8  A    between atoms: C_15  and  C_17
REMARK    9  A    between atoms: C_15  and  C_18
REMARK   10  A    between atoms: N_20  and  C_21
REMARK   11  A    between atoms: C_22  and  C_31
REMARK   12  A    between atoms: C_31  and  O_33
REMARK   13  A    between atoms: O_33  and  C_34
REMARK   14  A    between atoms: C_34  and  C_35
REMARK                            x       y       z     vdW  Elec       q    Type
REMARK                         _______ _______ _______ _____ _____    ______ ____
ROOT
ATOM      1  C   UNL     1       3.135 -10.460  -0.273  0.00  0.00    +0.231 C 
ATOM      2  O   UNL     1       4.016 -10.681  -1.077  0.00  0.00    -0.274 OA
ATOM      3  N   UNL     1       2.436 -11.482   0.258  0.00  0.00    -0.278 N 
ATOM      4  H   UNL     1       1.731 -11.306   0.901  0.00  0.00    +0.155 HD
ENDROOT
BRANCH   3   5
ATOM      5  C   UNL     1       2.722 -12.786  -0.115  0.00  0.00    +0.086 A 
ATOM      6  C   UNL     1       2.109 -13.951   0.318  0.00  0.00    +0.091 A 
ATOM      7  C   UNL     1       2.599 -15.209  -0.230  0.00  0.00    -0.021 A 
ATOM      8  C   UNL     1       3.615 -15.065  -1.106  0.00  0.00    -0.004 A 
ATOM      9  S   UNL     1       3.886 -13.317  -1.201  0.00  0.00    -0.077 S 
ATOM     10  C   UNL     1       4.356 -16.144  -1.832  0.00  0.00    +0.043 C 
ATOM     11  C   UNL     1       3.346 -17.106  -2.471  0.00  0.00    +0.005 C 
ATOM     12  C   UNL     1       3.018 -18.206  -1.466  0.00  0.00    +0.001 C 
ATOM     13  C   UNL     1       3.063 -17.651  -0.043  0.00  0.00    +0.005 C 
ATOM     14  C   UNL     1       2.010 -16.562   0.139  0.00  0.00    +0.037 C 
BRANCH   6  15
ATOM     15  C   UNL     1       1.013 -13.919   1.288  0.00  0.00    +0.342 C 
ATOM     16  O   UNL     1      -0.138 -13.833   0.903  0.00  0.00    -0.245 OA
BRANCH  15  17
ATOM     17  O   UNL     1       1.279 -13.984   2.609  0.00  0.00    -0.461 OA
BRANCH  17  18
ATOM     18  C   UNL     1       0.162 -13.948   3.499  0.00  0.00    +0.229 C 
ATOM     19  C   UNL     1       0.657 -14.033   4.944  0.00  0.00    +0.048 C 
ENDBRANCH  17  18
ENDBRANCH  15  17
ENDBRANCH   6  15
ENDBRANCH   3   5
BRANCH   1  20
ATOM     20  C   UNL     1       2.824  -9.043   0.133  0.00  0.00    +0.136 C 
ATOM     21  C   UNL     1       3.582  -8.702   1.418  0.00  0.00    +0.029 C 
BRANCH  20  22
ATOM     22  S   UNL     1       3.334  -7.910  -1.189  0.00  0.00    -0.084 S 
BRANCH  22  29
ATOM     23  C   UNL     1       1.153  -1.977   1.065  0.00  0.00    +0.222 C 
ATOM     24  O   UNL     1       0.817  -2.733   1.952  0.00  0.00    -0.275 OA
ATOM     25  N   UNL     1       1.799  -2.454  -0.018  0.00  0.00    -0.263 N 
ATOM     26  C   UNL     1       2.080  -3.815  -0.118  0.00  0.00    +0.189 A 
ATOM     27  N   UNL     1       1.804  -4.803   0.717  0.00  0.00    -0.125 NA
ATOM     28  N   UNL     1       2.133  -5.996   0.472  0.00  0.00    -0.133 NA
ATOM     29  C   UNL     1       2.776  -6.332  -0.636  0.00  0.00    +0.161 A 
ATOM     30  S   UNL     1       2.911  -4.726  -1.416  0.00  0.00    -0.024 S 
ATOM     31  H   UNL     1       2.068  -1.850  -0.727  0.00  0.00    +0.157 HD
BRANCH  23  32
ATOM     32  C   UNL     1       0.849  -0.505   1.173  0.00  0.00    +0.075 C 
BRANCH  32  34
ATOM     33  C   UNL     1      -0.225   1.438   0.027  0.00  0.00    +0.004 C 
ATOM     34  C   UNL     1      -0.034  -0.079  -0.002  0.00  0.00    +0.009 C 
ENDBRANCH  32  34
BRANCH  32  35
ATOM     35  C   UNL     1       0.116  -0.231   2.488  0.00  0.00    +0.009 C 
ATOM     36  C   UNL     1       1.057  -0.504   3.663  0.00  0.00    +0.004 C 
ENDBRANCH  32  35
ENDBRANCH  23  32
ENDBRANCH  22  29
ENDBRANCH  20  22
ENDBRANCH   1  20
TORSDOF 10
