REMARK  Name = ZINC57801142
REMARK  6 active torsions:
REMARK  status: ('A' for Active; 'I' for Inactive)
REMARK    1  A    between atoms: C_1  and  C_2
REMARK    2  A    between atoms: C_2  and  C_4
REMARK    3  A    between atoms: C_2  and  N_11
REMARK    4  A    between atoms: N_11  and  C_12
REMARK    5  A    between atoms: C_12  and  C_13
REMARK    6  A    between atoms: C_18  and  N_19
REMARK                            x       y       z     vdW  Elec       q    Type
REMARK                         _______ _______ _______ _____ _____    ______ ____
ROOT
ATOM      1  C   UNL     1      -0.040  -0.119   2.398  0.00  0.00    -0.044 C 
ENDROOT
BRANCH   1   2
ATOM      2  C   UNL     1       0.689  -0.618   3.619  0.00  0.00    -0.030 A 
ATOM      3  C   UNL     1       0.281  -1.786   4.237  0.00  0.00    +0.053 A 
ATOM      4  C   UNL     1       0.949  -2.246   5.359  0.00  0.00    +0.167 A 
ATOM      5  C   UNL     1       2.032  -1.530   5.863  0.00  0.00    +0.168 A 
ATOM      6  C   UNL     1       2.436  -0.362   5.238  0.00  0.00    +0.082 A 
ATOM      7  C   UNL     1       1.768   0.089   4.115  0.00  0.00    +0.131 A 
ATOM      8  O   UNL     1       2.514  -2.183   6.961  0.00  0.00    -0.453 OA
ATOM      9  C   UNL     1       1.464  -3.082   7.365  0.00  0.00    +0.466 C 
ATOM     10  O   UNL     1       0.751  -3.347   6.142  0.00  0.00    -0.453 OA
BRANCH   7  11
ATOM     11  N   UNL     1       2.205   1.335   3.446  0.00  0.00    +0.057 N 
ATOM     12  O   UNL     1       3.149   1.954   3.879  0.00  0.00    -0.126 OA
ATOM     13  O   UNL     1       1.619   1.733   2.466  0.00  0.00    -0.126 OA
ENDBRANCH   7  11
ENDBRANCH   1   2
BRANCH   1  14
ATOM     14  N   UNL     1       0.713  -0.491   1.192  0.00  0.00    +0.386 N 
ATOM     15  H   UNL     1       0.798  -1.495   1.145  0.00  0.00    -0.085 HD
ATOM     16  H   UNL     1       1.632  -0.076   1.228  0.00  0.00    -0.085 HD
BRANCH  14  18
ATOM     17  C   UNL     1      -0.019   1.526   0.010  0.00  0.00    -0.009 C 
ATOM     18  C   UNL     1       0.002  -0.004   0.002  0.00  0.00    -0.043 C 
BRANCH  18  19
ATOM     19  C   UNL     1       0.707  -0.490  -1.238  0.00  0.00    -0.048 A 
ATOM     20  C   UNL     1       2.024  -0.904  -1.167  0.00  0.00    +0.003 A 
ATOM     21  C   UNL     1       2.671  -1.351  -2.304  0.00  0.00    +0.000 A 
ATOM     22  C   UNL     1       2.002  -1.383  -3.513  0.00  0.00    +0.001 A 
ATOM     23  C   UNL     1       0.685  -0.969  -3.585  0.00  0.00    +0.015 A 
ATOM     24  C   UNL     1       0.036  -0.527  -2.446  0.00  0.00    +0.019 A 
ATOM     25 BR   UNL     1      -1.768   0.033  -2.543  0.00  0.00    -0.050 Br
ENDBRANCH  18  19
ENDBRANCH  14  18
ENDBRANCH   1  14
TORSDOF 5
