REMARK  Name = ZINC35349189
REMARK  8 active torsions:
REMARK  status: ('A' for Active; 'I' for Inactive)
REMARK    1  A    between atoms: C_4  and  C_7
REMARK    2  A    between atoms: C_7  and  C_8
REMARK    3  A    between atoms: C_8  and  C_10
REMARK    4  A    between atoms: C_8  and  N_28
REMARK    5  A    between atoms: N_12  and  C_13
REMARK    6  A    between atoms: C_17  and  S_19
REMARK    7  A    between atoms: S_19  and  N_22
REMARK    8  A    between atoms: C_29  and  C_31
REMARK                            x       y       z     vdW  Elec       q    Type
REMARK                         _______ _______ _______ _____ _____    ______ ____
ROOT
ATOM      1  C   UNL     1       5.422  -1.804   1.382  0.00  0.00    +0.238 C 
ATOM      2  O   UNL     1       6.448  -1.374   1.865  0.00  0.00    -0.273 OA
ATOM      3  N   UNL     1       5.402  -3.031   0.824  0.00  0.00    -0.284 N 
ATOM      4  H   UNL     1       4.567  -3.402   0.498  0.00  0.00    +0.155 HD
ENDROOT
BRANCH   3   5
ATOM      5  C   UNL     1       6.585  -3.769   0.716  0.00  0.00    +0.035 A 
ATOM      6  C   UNL     1       6.797  -4.586  -0.387  0.00  0.00    +0.023 A 
ATOM      7  C   UNL     1       7.966  -5.314  -0.491  0.00  0.00    +0.004 A 
ATOM      8  C   UNL     1       8.925  -5.230   0.501  0.00  0.00    +0.029 A 
ATOM      9  C   UNL     1       8.717  -4.418   1.601  0.00  0.00    +0.114 A 
ATOM     10  C   UNL     1       7.553  -3.683   1.708  0.00  0.00    +0.052 A 
BRANCH   9  11
ATOM     11  S   UNL     1       9.942  -4.315   2.864  0.00  0.00    +0.100 S 
ATOM     12  O   UNL     1       9.271  -3.909   4.048  0.00  0.00    -0.146 OA
ATOM     13  O   UNL     1      10.702  -5.514   2.791  0.00  0.00    -0.146 OA
BRANCH  11  14
ATOM     14  N   UNL     1      10.966  -3.080   2.453  0.00  0.00    -0.118 NA
ATOM     15  C   UNL     1      11.967  -2.788   3.218  0.00  0.00    +0.117 C 
ATOM     16  N   UNL     1      12.283  -3.431   4.386  0.00  0.00    -0.331 N 
ATOM     17  C   UNL     1      13.695  -3.176   4.712  0.00  0.00    +0.103 C 
ATOM     18  C   UNL     1      13.981  -1.776   4.124  0.00  0.00    +0.026 C 
ATOM     19  C   UNL     1      12.973  -1.688   2.959  0.00  0.00    +0.074 C 
ATOM     20  H   UNL     1      11.672  -3.969   4.914  0.00  0.00    +0.147 HD
ENDBRANCH  11  14
ENDBRANCH   9  11
ENDBRANCH   3   5
BRANCH   1  21
ATOM     21  C   UNL     1       4.170  -0.966   1.405  0.00  0.00    +0.164 C 
BRANCH  21  22
ATOM     22  N   UNL     1       4.450   0.314   2.060  0.00  0.00    -0.299 N 
ATOM     23  C   UNL     1       3.452   1.004   2.646  0.00  0.00    +0.251 C 
ATOM     24  O   UNL     1       2.317   0.563   2.632  0.00  0.00    -0.270 OA
ATOM     25  H   UNL     1       5.354   0.665   2.071  0.00  0.00    +0.150 HD
BRANCH  23  26
ATOM     26  C   UNL     1       3.732   2.284   3.302  0.00  0.00    +0.074 A 
ATOM     27  C   UNL     1       2.861   3.139   3.961  0.00  0.00    +0.021 A 
ATOM     28  C   UNL     1       3.423   4.280   4.480  0.00  0.00    +0.008 A 
ATOM     29  C   UNL     1       4.753   4.492   4.319  0.00  0.00    +0.046 A 
ATOM     30  S   UNL     1       5.284   3.146   3.466  0.00  0.00    -0.092 S 
ENDBRANCH  23  26
ENDBRANCH  21  22
BRANCH  21  31
ATOM     31  C   UNL     1       3.699  -0.713  -0.029  0.00  0.00    +0.067 C 
BRANCH  31  35
ATOM     32  C   UNL     1      -0.034   1.362   0.040  0.00  0.00    +0.000 A 
ATOM     33  C   UNL     1       1.151   2.073   0.024  0.00  0.00    +0.000 A 
ATOM     34  C   UNL     1       2.360   1.401   0.002  0.00  0.00    +0.004 A 
ATOM     35  C   UNL     1       2.382   0.019  -0.004  0.00  0.00    -0.045 A 
ATOM     36  C   UNL     1       1.196  -0.692   0.013  0.00  0.00    +0.004 A 
ATOM     37  C   UNL     1      -0.012  -0.020   0.034  0.00  0.00    +0.000 A 
ENDBRANCH  31  35
ENDBRANCH  21  31
ENDBRANCH   1  21
TORSDOF 8
