REMARK  Name = ZINC29189940
REMARK  9 active torsions:
REMARK  status: ('A' for Active; 'I' for Inactive)
REMARK    1  A    between atoms: C_1  and  C_2
REMARK    2  A    between atoms: N_10  and  N_14
REMARK    3  A    between atoms: C_15  and  C_17
REMARK    4  A    between atoms: C_17  and  N_18
REMARK    5  A    between atoms: N_18  and  C_19
REMARK    6  A    between atoms: C_19  and  C_21
REMARK    7  A    between atoms: C_19  and  C_26
REMARK    8  A    between atoms: C_26  and  C_27
REMARK    9  A    between atoms: C_26  and  C_28
REMARK                            x       y       z     vdW  Elec       q    Type
REMARK                         _______ _______ _______ _____ _____    ______ ____
ROOT
ATOM      1  N   UNL     1       2.312  -4.846   0.318  0.00  0.00    -0.225 N 
ATOM      2  C   UNL     1       1.534  -4.070  -0.462  0.00  0.00    +0.213 C 
ATOM      3  O   UNL     1       0.686  -4.575  -1.166  0.00  0.00    -0.276 OA
ATOM      4  H   UNL     1       3.082  -4.388   0.957  0.00  0.00    +0.173 HD
ENDROOT
BRANCH   1  14
ATOM      5  C   UNL     1       1.830 -12.761  -0.016  0.00  0.00    +0.007 C 
ATOM      6  C   UNL     1       2.433 -11.383  -0.292  0.00  0.00    -0.014 C 
ATOM      7  C   UNL     1       1.423 -10.529  -1.062  0.00  0.00    +0.006 C 
ATOM      8  C   UNL     1       2.032  -9.154  -1.349  0.00  0.00    +0.035 C 
ATOM      9  C   UNL     1       2.400  -8.475  -0.034  0.00  0.00    +0.114 C 
ATOM     10  C   UNL     1       3.388  -9.325   0.756  0.00  0.00    +0.035 C 
ATOM     11  C   UNL     1       2.773 -10.700   1.034  0.00  0.00    +0.006 C 
ATOM     12  C   UNL     1       2.978  -7.102  -0.295  0.00  0.00    +0.263 C 
ATOM     13  O   UNL     1       3.982  -6.836  -0.921  0.00  0.00    -0.271 OA
ATOM     14  N   UNL     1       2.141  -6.237   0.314  0.00  0.00    -0.137 N 
ATOM     15  C   UNL     1       1.131  -6.872   0.920  0.00  0.00    +0.326 C 
ATOM     16  O   UNL     1       0.251  -6.307   1.539  0.00  0.00    -0.251 OA
ATOM     17  N   UNL     1       1.196  -8.208   0.763  0.00  0.00    -0.284 N 
ATOM     18  H   UNL     1       0.563  -9.043   1.098  0.00  0.00    +0.151 HD
ENDBRANCH   1  14
BRANCH   2  19
ATOM     19  C   UNL     1       1.718  -2.574  -0.458  0.00  0.00    +0.017 C 
BRANCH  19  20
ATOM     20  N   UNL     1       0.757  -1.960  -1.384  0.00  0.00    +0.390 N 
ATOM     21  H   UNL     1       0.990  -2.271  -2.413  0.00  0.00    -0.084 HD
ATOM     22  H   UNL     1      -0.262  -2.286  -1.125  0.00  0.00    -0.084 HD
BRANCH  20  23
ATOM     23  C   UNL     1       0.816  -0.494  -1.309  0.00  0.00    -0.031 C 
BRANCH  23  24
ATOM     24  C   UNL     1       0.366   0.094  -2.621  0.00  0.00    -0.024 A 
ATOM     25  C   UNL     1       0.865   1.159  -3.295  0.00  0.00    +0.009 A 
ATOM     26  C   UNL     1       0.289   1.522  -4.498  0.00  0.00    +0.008 A 
ATOM     27  C   UNL     1      -0.765   0.808  -4.963  0.00  0.00    +0.045 A 
ATOM     28  S   UNL     1      -0.968  -0.425  -3.688  0.00  0.00    -0.103 S 
ENDBRANCH  23  24
BRANCH  23  29
ATOM     29  C   UNL     1      -0.102  -0.004  -0.188  0.00  0.00    -0.027 C 
ATOM     30  C   UNL     1      -1.547  -0.400  -0.502  0.00  0.00    +0.006 C 
ATOM     31  C   UNL     1      -0.004   1.519  -0.078  0.00  0.00    +0.006 C 
ENDBRANCH  23  29
ENDBRANCH  20  23
ENDBRANCH  19  20
ENDBRANCH   2  19
TORSDOF 6
