REMARK  Name = ZINC63913274
REMARK  8 active torsions:
REMARK  status: ('A' for Active; 'I' for Inactive)
REMARK    1  A    between atoms: C_1  and  C_2
REMARK    2  A    between atoms: C_7  and  N_8
REMARK    3  A    between atoms: C_9  and  S_14
REMARK    4  A    between atoms: S_14  and  C_15
REMARK    5  A    between atoms: C_15  and  C_17
REMARK    6  A    between atoms: C_15  and  C_18
REMARK    7  A    between atoms: C_18  and  C_20
REMARK    8  A    between atoms: C_28  and  C_30
REMARK                            x       y       z     vdW  Elec       q    Type
REMARK                         _______ _______ _______ _____ _____    ______ ____
ROOT
ATOM      1  C   UNL     1       0.721  -1.689   5.071  0.00  0.00    +0.117 C 
ATOM      2  C   UNL     1       1.624  -1.325   3.891  0.00  0.00    +0.027 C 
ENDROOT
BRANCH   1   3
ATOM      3  C   UNL     1       1.227  -2.951   5.721  0.00  0.00    +0.174 C 
ATOM      4  O   UNL     1       0.769  -4.028   5.394  0.00  0.00    -0.291 OA
BRANCH   3   5
ATOM      5  C   UNL     1       2.233  -2.882   6.708  0.00  0.00    +0.027 C 
ATOM      6  C   UNL     1       2.936  -1.761   7.109  0.00  0.00    +0.006 A 
ATOM      7  C   UNL     1       2.897  -0.405   6.705  0.00  0.00    +0.010 A 
ATOM      8  C   UNL     1       3.718   0.501   7.281  0.00  0.00    +0.001 A 
ATOM      9  C   UNL     1       4.633   0.156   8.289  0.00  0.00    +0.002 A 
ATOM     10  C   UNL     1       4.749  -1.109   8.746  0.00  0.00    +0.026 A 
ATOM     11  C   UNL     1       3.891  -2.159   8.172  0.00  0.00    +0.043 A 
ATOM     12  N   UNL     1       3.794  -3.434   8.418  0.00  0.00    -0.377 N 
ATOM     13  C   UNL     1       2.764  -4.019   7.554  0.00  0.00    +0.111 C 
ATOM     14  C   UNL     1       3.380  -5.097   6.660  0.00  0.00    +0.035 C 
ATOM     15  H   UNL     1       4.318  -3.921   9.073  0.00  0.00    +0.160 HD
ENDBRANCH   3   5
ENDBRANCH   1   3
BRANCH   1  16
ATOM     16  S   UNL     1      -0.973  -1.952   4.478  0.00  0.00    -0.105 S 
BRANCH  16  18
ATOM     17  N   UNL     1      -2.974  -0.255   3.784  0.00  0.00    -0.173 N 
ATOM     18  C   UNL     1      -1.507  -0.306   3.931  0.00  0.00    +0.260 C 
ATOM     19  N   UNL     1      -1.029  -0.027   2.563  0.00  0.00    -0.218 N 
ATOM     20  N   UNL     1      -2.179   0.152   1.785  0.00  0.00    -0.063 NA
ATOM     21  N   UNL     1      -3.214   0.026   2.434  0.00  0.00    -0.056 NA
ATOM     22  H   UNL     1      -0.108   0.023   2.264  0.00  0.00    +0.173 HD
BRANCH  17  29
ATOM     23  C   UNL     1      -4.916   1.781   4.207  0.00  0.00    +0.046 C 
ATOM     24  C   UNL     1      -4.894   0.516   5.026  0.00  0.00    -0.028 A 
ATOM     25  C   UNL     1      -5.838   0.315   6.013  0.00  0.00    +0.005 A 
ATOM     26  C   UNL     1      -5.818  -0.845   6.766  0.00  0.00    +0.000 A 
ATOM     27  C   UNL     1      -4.854  -1.808   6.532  0.00  0.00    +0.002 A 
ATOM     28  C   UNL     1      -3.907  -1.615   5.546  0.00  0.00    +0.025 A 
ATOM     29  C   UNL     1      -3.926  -0.452   4.785  0.00  0.00    +0.059 A 
ENDBRANCH  17  29
ENDBRANCH  16  18
ENDBRANCH   1  16
TORSDOF 5
