REMARK  Name = ZINC36013910
REMARK  17 active torsions:
REMARK  status: ('A' for Active; 'I' for Inactive)
REMARK    1  A    between atoms: C_1  and  C_2
REMARK    2  A    between atoms: C_2  and  O_3
REMARK    3  A    between atoms: O_3  and  C_4
REMARK    4  A    between atoms: C_4  and  C_6
REMARK    5  A    between atoms: C_7  and  C_25
REMARK    6  A    between atoms: N_8  and  C_24
REMARK    7  A    between atoms: C_12  and  C_14
REMARK    8  A    between atoms: C_18  and  O_22
REMARK    9  A    between atoms: C_19  and  O_20
REMARK   10  A    between atoms: O_20  and  C_21
REMARK   11  A    between atoms: O_22  and  C_23
REMARK   12  A    between atoms: C_25  and  N_26
REMARK   13  A    between atoms: C_30  and  C_33
REMARK   14  A    between atoms: N_36  and  C_37
REMARK   15  A    between atoms: C_37  and  C_38
REMARK   16  A    between atoms: C_37  and  C_39
REMARK   17  A    between atoms: C_37  and  C_40
REMARK                            x       y       z     vdW  Elec       q    Type
REMARK                         _______ _______ _______ _____ _____    ______ ____
ROOT
ATOM      1  C   UNL     1      -3.273  -1.970   0.690  0.00  0.00    +0.080 C 
ATOM      2  C   UNL     1      -3.100  -3.300   0.846  0.00  0.00    +0.041 C 
ATOM      3  N   UNL     1      -4.149  -4.167   0.720  0.00  0.00    -0.260 N 
ATOM      4  C   UNL     1      -5.400  -3.782   0.438  0.00  0.00    +0.307 C 
ATOM      5  O   UNL     1      -6.268  -4.628   0.346  0.00  0.00    -0.252 OA
ATOM      6  N   UNL     1      -5.728  -2.488   0.254  0.00  0.00    -0.288 N 
ATOM      7  C   UNL     1      -4.669  -1.472   0.375  0.00  0.00    +0.147 C 
ATOM      8  C   UNL     1      -3.889  -5.597   0.903  0.00  0.00    +0.139 C 
ATOM      9  H   UNL     1      -6.641  -2.231   0.051  0.00  0.00    +0.151 HD
ENDROOT
BRANCH   7  10
ATOM     10  C   UNL     1      -5.070  -0.502   1.456  0.00  0.00    +0.023 A 
ATOM     11  C   UNL     1      -5.765  -0.950   2.565  0.00  0.00    +0.009 A 
ATOM     12  C   UNL     1      -6.134  -0.063   3.558  0.00  0.00    +0.004 A 
ATOM     13  C   UNL     1      -5.812   1.277   3.447  0.00  0.00    +0.049 A 
ATOM     14  C   UNL     1      -5.116   1.733   2.340  0.00  0.00    +0.162 A 
ATOM     15  C   UNL     1      -4.739   0.838   1.342  0.00  0.00    +0.167 A 
BRANCH  15  16
ATOM     16  O   UNL     1      -4.051   1.280   0.255  0.00  0.00    -0.491 OA
ATOM     17  C   UNL     1      -4.821   1.711  -0.869  0.00  0.00    +0.277 C 
ENDBRANCH  15  16
BRANCH  14  18
ATOM     18  O   UNL     1      -4.798   3.051   2.229  0.00  0.00    -0.491 OA
ATOM     19  C   UNL     1      -5.213   3.909   3.293  0.00  0.00    +0.277 C 
ENDBRANCH  14  18
ENDBRANCH   7  10
BRANCH   1  20
ATOM     20  C   UNL     1      -2.188  -1.072   0.820  0.00  0.00    +0.339 C 
ATOM     21  O   UNL     1      -1.635  -0.637  -0.173  0.00  0.00    -0.245 OA
BRANCH  20  22
ATOM     22  O   UNL     1      -1.767  -0.696   2.046  0.00  0.00    -0.462 OA
BRANCH  22  24
ATOM     23  C   UNL     1      -0.334   0.520   3.565  0.00  0.00    +0.048 C 
ATOM     24  C   UNL     1      -0.666   0.213   2.104  0.00  0.00    +0.229 C 
ENDBRANCH  22  24
ENDBRANCH  20  22
ENDBRANCH   1  20
BRANCH   2  25
ATOM     25  C   UNL     1      -1.729  -3.838   1.165  0.00  0.00    +0.136 C 
BRANCH  25  26
ATOM     26  N   UNL     1      -1.743  -4.457   2.497  0.00  0.00    -0.294 NA
ATOM     27  C   UNL     1      -1.984  -3.453   3.541  0.00  0.00    +0.104 C 
ATOM     28  C   UNL     1      -2.171  -4.157   4.889  0.00  0.00    +0.125 C 
ATOM     29  N   UNL     1      -1.013  -5.033   5.123  0.00  0.00    -0.280 N 
ATOM     30  C   UNL     1      -0.625  -5.973   4.061  0.00  0.00    +0.088 C 
ATOM     31  C   UNL     1      -0.499  -5.197   2.746  0.00  0.00    +0.107 C 
ATOM     32  C   UNL     1       0.716  -6.620   4.412  0.00  0.00    +0.029 C 
ATOM     33  C   UNL     1      -0.325  -4.975   6.281  0.00  0.00    +0.303 C 
ATOM     34  O   UNL     1       0.566  -5.773   6.499  0.00  0.00    -0.253 OA
ATOM     35  N   UNL     1      -0.625  -4.032   7.197  0.00  0.00    -0.294 N 
ATOM     36  H   UNL     1      -1.381  -3.443   7.056  0.00  0.00    +0.151 HD
BRANCH  35  37
ATOM     37  C   UNL     1       0.193  -3.899   8.405  0.00  0.00    +0.028 C 
ATOM     38  C   UNL     1       1.638  -3.586   8.011  0.00  0.00    +0.031 C 
ATOM     39  C   UNL     1      -0.358  -2.764   9.270  0.00  0.00    +0.031 C 
ATOM     40  C   UNL     1       0.152  -5.208   9.195  0.00  0.00    +0.031 C 
ENDBRANCH  35  37
ENDBRANCH  25  26
ENDBRANCH   2  25
TORSDOF 9
