REMARK  Name = ZINC18267463
REMARK  3 active torsions:
REMARK  status: ('A' for Active; 'I' for Inactive)
REMARK    1  A    between atoms: N_9  and  C_12
REMARK    2  A    between atoms: C_12  and  C_13
REMARK    3  A    between atoms: N_15  and  C_16
REMARK                            x       y       z     vdW  Elec       q    Type
REMARK                         _______ _______ _______ _____ _____    ______ ____
ROOT
ATOM      1  C   UNL     1      -8.603   2.057   2.739  0.00  0.00    +0.237 C 
ATOM      2  O   UNL     1      -7.936   1.044   2.767  0.00  0.00    -0.274 OA
ATOM      3  N   UNL     1      -8.068   3.203   2.272  0.00  0.00    -0.284 N 
ATOM      4  H   UNL     1      -8.574   4.029   2.321  0.00  0.00    +0.155 HD
ENDROOT
BRANCH   3   5
ATOM      5  C   UNL     1      -6.782   3.200   1.717  0.00  0.00    +0.037 A 
ATOM      6  C   UNL     1      -5.960   4.309   1.865  0.00  0.00    +0.027 A 
ATOM      7  C   UNL     1      -4.691   4.308   1.317  0.00  0.00    +0.051 A 
ATOM      8  C   UNL     1      -4.237   3.202   0.618  0.00  0.00    +0.167 A 
ATOM      9  C   UNL     1      -5.059   2.088   0.468  0.00  0.00    +0.169 A 
ATOM     10  C   UNL     1      -6.330   2.090   1.018  0.00  0.00    +0.073 A 
ATOM     11  O   UNL     1      -4.388   1.142  -0.254  0.00  0.00    -0.447 OA
ATOM     12  C   UNL     1      -3.009   1.535  -0.209  0.00  0.00    +0.254 C 
ATOM     13  O   UNL     1      -3.047   2.955  -0.009  0.00  0.00    -0.448 OA
ATOM     14  C   UNL     1      -2.322   1.204  -1.530  0.00  0.00    +0.093 C 
ATOM     15  C   UNL     1      -0.860   1.655  -1.474  0.00  0.00    +0.008 C 
ATOM     16  C   UNL     1      -0.152   0.943  -0.320  0.00  0.00    +0.000 C 
ATOM     17  C   UNL     1      -0.837   1.303   1.000  0.00  0.00    +0.008 C 
ATOM     18  C   UNL     1      -2.299   0.851   0.954  0.00  0.00    +0.093 C 
ENDBRANCH   3   5
BRANCH   1  19
ATOM     19  C   UNL     1     -10.028   2.035   3.227  0.00  0.00    +0.222 C 
BRANCH  19  28
ATOM     20  C   UNL     1     -10.696  -2.783   6.994  0.00  0.00    +0.001 A 
ATOM     21  C   UNL     1     -11.227  -3.629   6.029  0.00  0.00    +0.002 A 
ATOM     22  C   UNL     1     -11.410  -3.196   4.735  0.00  0.00    +0.028 A 
ATOM     23  C   UNL     1     -11.057  -1.891   4.386  0.00  0.00    +0.078 A 
ATOM     24  C   UNL     1     -10.518  -1.033   5.370  0.00  0.00    +0.065 A 
ATOM     25  C   UNL     1     -10.341  -1.491   6.674  0.00  0.00    +0.015 A 
ATOM     26  C   UNL     1     -10.158   0.335   4.971  0.00  0.00    +0.262 A 
ATOM     27  O   UNL     1      -9.688   1.125   5.770  0.00  0.00    -0.267 OA
ATOM     28  N   UNL     1     -10.369   0.683   3.680  0.00  0.00    -0.290 N 
ATOM     29  C   UNL     1     -10.898  -0.207   2.801  0.00  0.00    +0.203 A 
ATOM     30  N   UNL     1     -11.221  -1.423   3.124  0.00  0.00    -0.237 NA
ENDBRANCH  19  28
ENDBRANCH   1  19
TORSDOF 3
