REMARK  Name = ZINC44295829
REMARK  11 active torsions:
REMARK  status: ('A' for Active; 'I' for Inactive)
REMARK    1  A    between atoms: C_1  and  C_2
REMARK    2  A    between atoms: C_4  and  C_27
REMARK    3  A    between atoms: C_10  and  C_13
REMARK    4  A    between atoms: C_13  and  CA_14
REMARK    5  A    between atoms: CA_14  and  C_16
REMARK    6  A    between atoms: CA_14  and  N_19
REMARK    7  A    between atoms: C_20  and  O_22
REMARK    8  A    between atoms: O_22  and  C_23
REMARK    9  A    between atoms: C_23  and  C_24
REMARK   10  A    between atoms: C_23  and  C_25
REMARK   11  A    between atoms: C_23  and  C_26
REMARK                            x       y       z     vdW  Elec       q    Type
REMARK                         _______ _______ _______ _____ _____    ______ ____
ROOT
ATOM      1  C   UNL     1       1.100  -6.272   1.320  0.00  0.00    +0.076 C 
ENDROOT
BRANCH   1  11
ATOM      2  C   UNL     1      -0.517   1.452   0.038  0.00  0.00    +0.044 C 
ATOM      3  C   UNL     1      -0.236  -0.028   0.015  0.00  0.00    -0.047 A 
ATOM      4  C   UNL     1      -0.232  -0.708  -1.195  0.00  0.00    +0.007 A 
ATOM      5  C   UNL     1       0.024  -2.061  -1.231  0.00  0.00    -0.036 A 
ATOM      6  C   UNL     1       0.280  -2.744  -0.043  0.00  0.00    +0.067 A 
ATOM      7  C   UNL     1       0.277  -2.058   1.182  0.00  0.00    +0.139 A 
ATOM      8  C   UNL     1       0.021  -0.692   1.196  0.00  0.00    +0.050 A 
ATOM      9  O   UNL     1       0.526  -2.729   2.325  0.00  0.00    -0.462 OA
ATOM     10  C   UNL     1       0.779  -4.042   2.343  0.00  0.00    +0.203 A 
ATOM     11  C   UNL     1       0.807  -4.796   1.230  0.00  0.00    +0.037 A 
ATOM     12  C   UNL     1       0.559  -4.193  -0.032  0.00  0.00    +0.196 A 
ATOM     13  O   UNL     1       0.576  -4.845  -1.062  0.00  0.00    -0.287 OA
ATOM     14  C   UNL     1       0.027  -2.798  -2.546  0.00  0.00    +0.044 C 
ENDBRANCH   1  11
BRANCH   1  15
ATOM     15  CA  UNL     1      -0.216  -7.050   1.373  0.00  0.00    +0.194 C 
BRANCH  15  16
ATOM     16  N   UNL     1      -0.929  -6.720   2.609  0.00  0.00    -0.267 N 
ATOM     17  C   UNL     1      -2.269  -6.853   2.669  0.00  0.00    +0.401 C 
ATOM     18  O   UNL     1      -2.885  -7.246   1.699  0.00  0.00    -0.226 OA
ATOM     19  H   UNL     1      -0.438  -6.407   3.384  0.00  0.00    +0.153 HD
BRANCH  17  20
ATOM     20  O   UNL     1      -2.925  -6.550   3.805  0.00  0.00    -0.445 OA
BRANCH  20  21
ATOM     21  C   UNL     1      -4.345  -6.714   3.799  0.00  0.00    +0.107 C 
ATOM     22  C   UNL     1      -4.688  -8.175   3.504  0.00  0.00    +0.055 C 
ATOM     23  C   UNL     1      -4.910  -6.323   5.166  0.00  0.00    +0.055 C 
ATOM     24  C   UNL     1      -4.956  -5.818   2.719  0.00  0.00    +0.055 C 
ENDBRANCH  20  21
ENDBRANCH  17  20
ENDBRANCH  15  16
BRANCH  15  25
ATOM     25  C   UNL     1       0.074  -8.529   1.339  0.00  0.00    +0.376 C 
ATOM     26  O   UNL     1      -0.116  -9.210   2.333  0.00  0.00    -0.244 OA
ATOM     27  OXT UNL     1       0.497  -9.044   0.319  0.00  0.00    -0.244 OA
ENDBRANCH  15  25
ENDBRANCH   1  15
TORSDOF 6
