REMARK  Name = ZINC02995145
REMARK  5 active torsions:
REMARK  status: ('A' for Active; 'I' for Inactive)
REMARK    1  A    between atoms: C_3  and  N_18
REMARK    2  A    between atoms: C_5  and  O_7
REMARK    3  A    between atoms: O_7  and  C_8
REMARK    4  A    between atoms: C_8  and  C_9
REMARK    5  A    between atoms: C_9  and  C_11
REMARK                            x       y       z     vdW  Elec       q    Type
REMARK                         _______ _______ _______ _____ _____    ______ ____
ROOT
ATOM      1  C   UNL     1       1.173   1.782  -0.047  0.00  0.00    +0.005 A 
ATOM      2  C   UNL     1       1.159   3.164  -0.039  0.00  0.00    +0.024 A 
ATOM      3  C   UNL     1      -0.049   3.846   0.023  0.00  0.00    +0.047 A 
ATOM      4  C   UNL     1      -1.242   3.138   0.078  0.00  0.00    +0.069 A 
ATOM      5  C   UNL     1      -1.223   1.752   0.065  0.00  0.00    +0.123 A 
ATOM      6  C   UNL     1      -0.013   1.076   0.008  0.00  0.00    +0.046 A 
ENDROOT
BRANCH   3   7
ATOM      7  N   UNL     1      -0.064   5.248   0.031  0.00  0.00    -0.210 N 
ATOM      8  C   UNL     1      -0.557   5.973  -0.980  0.00  0.00    +0.231 C 
ATOM      9  O   UNL     1      -1.038   5.524  -1.998  0.00  0.00    -0.274 OA
ATOM     10  C   UNL     1      -0.419   7.444  -0.650  0.00  0.00    +0.095 C 
ATOM     11  C   UNL     1      -1.814   8.081  -0.591  0.00  0.00    +0.027 C 
ATOM     12  C   UNL     1      -2.589   7.349   0.498  0.00  0.00    -0.026 C 
ATOM     13  C   UNL     1      -2.019   7.346   1.697  0.00  0.00    -0.026 C 
ATOM     14  C   UNL     1      -0.683   8.076   1.786  0.00  0.00    +0.027 C 
ATOM     15  C   UNL     1       0.242   7.443   0.739  0.00  0.00    +0.095 C 
ATOM     16  C   UNL     1       0.408   5.972   1.054  0.00  0.00    +0.231 C 
ATOM     17  O   UNL     1       0.894   5.521   2.069  0.00  0.00    -0.274 OA
ATOM     18  C   UNL     1      -0.960   9.532   1.323  0.00  0.00    +0.001 C 
ATOM     19  C   UNL     1      -1.627   9.534  -0.080  0.00  0.00    +0.001 C 
ATOM     20  C   UNL     1      -2.431   9.929   1.189  0.00  0.00    +0.009 C 
ENDBRANCH   3   7
BRANCH   5  21
ATOM     21  O   UNL     1      -2.389   1.056   0.113  0.00  0.00    -0.484 OA
BRANCH  21  22
ATOM     22  C   UNL     1      -2.295  -0.369   0.101  0.00  0.00    +0.308 C 
BRANCH  22  23
ATOM     23  C   UNL     1      -3.678  -0.965   0.160  0.00  0.00    +0.200 C 
ATOM     24  O   UNL     1      -4.649  -0.240   0.206  0.00  0.00    -0.288 OA
BRANCH  23  25
ATOM     25  C   UNL     1      -3.850  -2.426   0.160  0.00  0.00    +0.021 A 
ATOM     26  C   UNL     1      -2.733  -3.265   0.101  0.00  0.00    +0.012 A 
ATOM     27  C   UNL     1      -2.902  -4.633   0.108  0.00  0.00    +0.016 A 
ATOM     28  C   UNL     1      -4.175  -5.177   0.161  0.00  0.00    +0.018 A 
ATOM     29  C   UNL     1      -5.287  -4.352   0.214  0.00  0.00    +0.016 A 
ATOM     30  C   UNL     1      -5.133  -2.982   0.214  0.00  0.00    +0.012 A 
ATOM     31 BR   UNL     1      -4.397  -7.055   0.162  0.00  0.00    -0.050 Br
ENDBRANCH  23  25
ENDBRANCH  22  23
ENDBRANCH  21  22
ENDBRANCH   5  21
TORSDOF 5
