REMARK  Name = ZINC35485808
REMARK  7 active torsions:
REMARK  status: ('A' for Active; 'I' for Inactive)
REMARK    1  A    between atoms: C_1  and  C_2
REMARK    2  A    between atoms: C_7  and  C_8
REMARK    3  A    between atoms: C_14  and  C_25
REMARK    4  A    between atoms: C_22  and  C_24
REMARK    5  A    between atoms: C_28  and  O_33
REMARK    6  A    between atoms: C_29  and  O_31
REMARK    7  A    between atoms: O_31  and  C_32
REMARK                            x       y       z     vdW  Elec       q    Type
REMARK                         _______ _______ _______ _____ _____    ______ ____
ROOT
ATOM      1  C   UNL     1      -0.018   1.503   0.010  0.00  0.00    +0.044 C 
ATOM      2  C   UNL     1       0.002  -0.004   0.002  0.00  0.00    -0.047 A 
ATOM      3  C   UNL     1       0.006  -0.685  -1.195  0.00  0.00    +0.019 A 
ATOM      4  C   UNL     1       0.024  -2.080  -1.194  0.00  0.00    +0.065 A 
ATOM      5  C   UNL     1       0.033  -2.793   0.015  0.00  0.00    +0.140 A 
ATOM      6  C   UNL     1       0.033  -2.080   1.214  0.00  0.00    +0.050 A 
ATOM      7  C   UNL     1       0.023  -0.703   1.200  0.00  0.00    -0.044 A 
ATOM      8  C   UNL     1       0.029   0.053   2.503  0.00  0.00    +0.044 C 
ATOM      9  O   UNL     1       0.037  -4.145   0.057  0.00  0.00    -0.450 OA
ATOM     10  C   UNL     1       0.273  -4.846  -1.070  0.00  0.00    +0.199 A 
ATOM     11  C   UNL     1       0.280  -4.268  -2.309  0.00  0.00    +0.072 A 
ATOM     12  C   UNL     1       0.036  -2.832  -2.475  0.00  0.00    +0.199 A 
ATOM     13  O   UNL     1      -0.140  -2.306  -3.559  0.00  0.00    -0.287 OA
ATOM     14  C   UNL     1       0.566  -5.340  -3.309  0.00  0.00    +0.152 C 
ATOM     15  N   UNL     1       0.729  -6.580  -2.533  0.00  0.00    -0.230 N 
ATOM     16  C   UNL     1       0.557  -6.282  -1.229  0.00  0.00    +0.289 C 
ATOM     17  O   UNL     1       0.626  -7.082  -0.317  0.00  0.00    -0.266 OA
ATOM     18  C   UNL     1       1.009  -7.837  -3.052  0.00  0.00    +0.191 A 
ATOM     19  N   UNL     1       1.198  -8.219  -4.308  0.00  0.00    -0.125 NA
ATOM     20  N   UNL     1       1.447  -9.418  -4.609  0.00  0.00    -0.145 NA
ATOM     21  C   UNL     1       1.537 -10.366  -3.697  0.00  0.00    +0.101 A 
ATOM     22  S   UNL     1       1.228  -9.406  -2.217  0.00  0.00    -0.035 S 
ATOM     23  C   UNL     1       1.823 -11.837  -3.855  0.00  0.00    +0.075 C 
ENDROOT
BRANCH  14  24
ATOM     24  C   UNL     1      -0.586  -5.474  -4.271  0.00  0.00    -0.018 A 
ATOM     25  C   UNL     1      -1.717  -6.176  -3.899  0.00  0.00    +0.009 A 
ATOM     26  C   UNL     1      -2.777  -6.302  -4.778  0.00  0.00    +0.049 A 
ATOM     27  C   UNL     1      -2.707  -5.724  -6.035  0.00  0.00    +0.158 A 
ATOM     28  C   UNL     1      -1.568  -5.017  -6.410  0.00  0.00    +0.162 A 
ATOM     29  C   UNL     1      -0.511  -4.890  -5.522  0.00  0.00    +0.055 A 
BRANCH  28  30
ATOM     30  O   UNL     1      -1.494  -4.448  -7.643  0.00  0.00    -0.491 OA
ATOM     31  C   UNL     1      -0.295  -3.738  -7.959  0.00  0.00    +0.277 C 
ENDBRANCH  28  30
BRANCH  27  32
ATOM     32  O   UNL     1      -3.748  -5.847  -6.901  0.00  0.00    -0.503 OA
ATOM     33  H   UNL     1      -4.404  -5.140  -6.830  0.00  0.00    +0.292 HD
ENDBRANCH  27  32
ENDBRANCH  14  24
TORSDOF 3
