REMARK  Name = ZINC63611393
REMARK  8 active torsions:
REMARK  status: ('A' for Active; 'I' for Inactive)
REMARK    1  A    between atoms: C_1  and  C_2
REMARK    2  A    between atoms: C_5  and  C_33
REMARK    3  A    between atoms: C_7  and  N_13
REMARK    4  A    between atoms: C_11  and  C_12
REMARK    5  A    between atoms: N_13  and  C_14
REMARK    6  A    between atoms: C_16  and  O_32
REMARK    7  A    between atoms: C_21  and  S_22
REMARK    8  A    between atoms: S_22  and  C_23
REMARK                            x       y       z     vdW  Elec       q    Type
REMARK                         _______ _______ _______ _____ _____    ______ ____
ROOT
ATOM      1  C   UNL     1       0.086  -6.841  -2.323  0.00  0.00    +0.209 C 
ATOM      2  N   UNL     1       0.077  -6.179  -3.432  0.00  0.00    -0.223 NA
ATOM      3  C   UNL     1       0.041  -6.778  -4.759  0.00  0.00    +0.240 C 
ATOM      4  C   UNL     1       0.563  -8.218  -4.721  0.00  0.00    +0.107 C 
ATOM      5  C   UNL     1      -0.060  -8.898  -3.514  0.00  0.00    +0.021 C 
ATOM      6  N   UNL     1       0.106  -8.217  -2.284  0.00  0.00    -0.289 N 
ATOM      7  C   UNL     1      -0.709 -10.050  -3.607  0.00  0.00    +0.063 C 
ATOM      8  H   UNL     1       0.224  -8.699  -1.451  0.00  0.00    +0.155 HD
ENDROOT
BRANCH   3   9
ATOM      9  O   UNL     1      -1.305  -6.779  -5.238  0.00  0.00    -0.370 OA
ATOM     10  H   UNL     1      -1.698  -5.898  -5.309  0.00  0.00    +0.212 HD
ENDBRANCH   3   9
BRANCH   1  11
ATOM     11  N   UNL     1       0.083  -6.143  -1.134  0.00  0.00    -0.145 NA
BRANCH  11  18
ATOM     12  C   UNL     1      -0.018   1.503   0.010  0.00  0.00    +0.044 C 
ATOM     13  C   UNL     1       0.002  -0.004   0.002  0.00  0.00    -0.047 A 
ATOM     14  C   UNL     1       0.005  -0.669  -1.188  0.00  0.00    +0.015 A 
ATOM     15  C   UNL     1       0.025  -2.071  -1.195  0.00  0.00    +0.022 A 
ATOM     16  C   UNL     1       0.030  -2.812  -2.392  0.00  0.00    +0.051 A 
ATOM     17  N   UNL     1       0.049  -4.126  -2.316  0.00  0.00    -0.217 NA
ATOM     18  C   UNL     1       0.063  -4.757  -1.143  0.00  0.00    +0.243 A 
ATOM     19  N   UNL     1       0.060  -4.116   0.009  0.00  0.00    -0.213 NA
ATOM     20  C   UNL     1       0.041  -2.778   0.035  0.00  0.00    +0.077 A 
ATOM     21  C   UNL     1       0.036  -2.059   1.240  0.00  0.00    +0.032 A 
ATOM     22  C   UNL     1       0.023  -0.697   1.210  0.00  0.00    -0.045 A 
ATOM     23  C   UNL     1       0.024   0.073   2.506  0.00  0.00    +0.044 C 
ATOM     24  C   UNL     1       0.013  -2.117  -3.729  0.00  0.00    +0.066 C 
ENDBRANCH  11  18
ENDBRANCH   1  11
BRANCH   7  25
ATOM     25  S   UNL     1      -1.408 -10.786  -2.167  0.00  0.00    -0.085 S 
BRANCH  25  26
ATOM     26  C   UNL     1      -2.174 -12.311  -2.780  0.00  0.00    +0.240 C 
ATOM     27  N   UNL     1      -1.171 -13.140  -3.461  0.00  0.00    -0.355 N 
ATOM     28  C   UNL     1      -1.557 -13.286  -4.695  0.00  0.00    +0.061 A 
ATOM     29  C   UNL     1      -0.981 -13.998  -5.845  0.00  0.00    +0.027 A 
ATOM     30  C   UNL     1      -1.621 -13.973  -7.031  0.00  0.00    +0.002 A 
ATOM     31  C   UNL     1      -2.833 -13.287  -7.224  0.00  0.00    +0.002 A 
ATOM     32  C   UNL     1      -3.447 -12.603  -6.237  0.00  0.00    +0.027 A 
ATOM     33  C   UNL     1      -2.840 -12.560  -4.900  0.00  0.00    +0.061 A 
ATOM     34  N   UNL     1      -3.197 -11.993  -3.784  0.00  0.00    -0.355 N 
ATOM     35  H   UNL     1      -0.367 -13.511  -3.063  0.00  0.00    +0.162 HD
ATOM     36  H   UNL     1      -3.994 -11.458  -3.641  0.00  0.00    +0.162 HD
ENDBRANCH  25  26
ENDBRANCH   7  25
TORSDOF 5
