REMARK  Name = ZINC39873878
REMARK  8 active torsions:
REMARK  status: ('A' for Active; 'I' for Inactive)
REMARK    1  A    between atoms: C_1  and  C_2
REMARK    2  A    between atoms: C_2  and  O_3
REMARK    3  A    between atoms: O_3  and  C_4
REMARK    4  A    between atoms: C_6  and  C_11
REMARK    5  A    between atoms: C_9  and  O_10
REMARK    6  A    between atoms: N_26  and  C_27
REMARK    7  A    between atoms: C_31  and  O_33
REMARK    8  A    between atoms: O_33  and  C_34
REMARK                            x       y       z     vdW  Elec       q    Type
REMARK                         _______ _______ _______ _____ _____    ______ ____
ROOT
ATOM      1  C   UNL     1      -0.217  -4.963  -0.535  0.00  0.00    +0.150 C 
ATOM      2  C   UNL     1      -1.504  -5.538  -0.042  0.00  0.00    +0.072 A 
ATOM      3  C   UNL     1      -2.759  -4.895   0.359  0.00  0.00    +0.199 A 
ATOM      4  O   UNL     1      -2.992  -3.714   0.174  0.00  0.00    -0.287 OA
ATOM      5  C   UNL     1      -3.720  -5.821   1.010  0.00  0.00    +0.066 A 
ATOM      6  C   UNL     1      -4.870  -5.327   1.625  0.00  0.00    +0.035 A 
ATOM      7  C   UNL     1      -5.748  -6.200   2.229  0.00  0.00    +0.042 A 
ATOM      8  C   UNL     1      -5.486  -7.564   2.225  0.00  0.00    +0.023 A 
ATOM      9  C   UNL     1      -4.354  -8.063   1.621  0.00  0.00    +0.048 A 
ATOM     10  C   UNL     1      -3.452  -7.199   1.000  0.00  0.00    +0.140 A 
ATOM     11  O   UNL     1      -2.353  -7.718   0.405  0.00  0.00    -0.450 OA
ATOM     12  C   UNL     1      -1.362  -6.896   0.005  0.00  0.00    +0.199 A 
ATOM     13  C   UNL     1      -0.000  -7.234  -0.443  0.00  0.00    +0.287 C 
ATOM     14  O   UNL     1       0.449  -8.361  -0.515  0.00  0.00    -0.266 OA
ATOM     15  N   UNL     1       0.677  -6.111  -0.762  0.00  0.00    -0.253 N 
ATOM     16 CL   UNL     1      -7.183  -5.595   2.996  0.00  0.00    -0.084 Cl
ENDROOT
BRANCH   1  19
ATOM     17  C   UNL     1       0.802  -1.825   1.306  0.00  0.00    +0.162 A 
ATOM     18  C   UNL     1       0.261  -2.673   0.353  0.00  0.00    +0.055 A 
ATOM     19  C   UNL     1       0.372  -4.043   0.502  0.00  0.00    -0.018 A 
ATOM     20  C   UNL     1       1.024  -4.570   1.602  0.00  0.00    +0.009 A 
ATOM     21  C   UNL     1       1.566  -3.730   2.557  0.00  0.00    +0.049 A 
ATOM     22  C   UNL     1       1.462  -2.356   2.410  0.00  0.00    +0.158 A 
BRANCH  22  23
ATOM     23  O   UNL     1       2.000  -1.528   3.345  0.00  0.00    -0.503 OA
ATOM     24  H   UNL     1       1.395  -1.301   4.064  0.00  0.00    +0.292 HD
ENDBRANCH  22  23
BRANCH  17  25
ATOM     25  O   UNL     1       0.693  -0.477   1.160  0.00  0.00    -0.489 OA
BRANCH  25  27
ATOM     26  C   UNL     1      -0.019   1.526   0.010  0.00  0.00    +0.048 C 
ATOM     27  C   UNL     1       0.002  -0.004   0.002  0.00  0.00    +0.226 C 
ENDBRANCH  25  27
ENDBRANCH  17  25
ENDBRANCH   1  19
BRANCH  15  28
ATOM     28  C   UNL     1       1.993  -6.047  -1.227  0.00  0.00    +0.041 A 
ATOM     29  C   UNL     1       2.571  -4.816  -1.514  0.00  0.00    +0.024 A 
ATOM     30  C   UNL     1       3.872  -4.753  -1.974  0.00  0.00    +0.005 A 
ATOM     31  C   UNL     1       4.602  -5.914  -2.149  0.00  0.00    +0.046 A 
ATOM     32  C   UNL     1       4.031  -7.146  -1.864  0.00  0.00    +0.122 A 
ATOM     33  C   UNL     1       2.727  -7.213  -1.397  0.00  0.00    +0.069 A 
BRANCH  32  34
ATOM     34  O   UNL     1       4.750  -8.285  -2.037  0.00  0.00    -0.495 OA
ATOM     35  C   UNL     1       6.089  -8.141  -2.516  0.00  0.00    +0.277 C 
ENDBRANCH  32  34
ENDBRANCH  15  28
TORSDOF 6
