REMARK  Name = ZINC64197301
REMARK  6 active torsions:
REMARK  status: ('A' for Active; 'I' for Inactive)
REMARK    1  A    between atoms: C_1  and  C_2
REMARK    2  A    between atoms: C_2  and  C_4
REMARK    3  A    between atoms: C_2  and  N_10
REMARK    4  A    between atoms: C_11  and  O_35
REMARK    5  A    between atoms: C_14  and  O_34
REMARK    6  A    between atoms: C_15  and  C_19
REMARK                            x       y       z     vdW  Elec       q    Type
REMARK                         _______ _______ _______ _____ _____    ______ ____
ROOT
ATOM      1  N   UNL     1       0.672  -0.542  -1.185  0.00  0.00    -0.250 N 
ATOM      2  C   UNL     1       2.099  -0.305  -1.349  0.00  0.00    +0.335 C 
ATOM      3  N   UNL     1       2.709  -1.253  -2.267  0.00  0.00    -0.204 NA
ATOM      4  C   UNL     1       2.062  -1.931  -3.133  0.00  0.00    +0.200 C 
ATOM      5  C   UNL     1       0.575  -1.829  -3.303  0.00  0.00    +0.179 C 
ATOM      6  C   UNL     1      -0.051  -1.237  -2.072  0.00  0.00    +0.233 C 
ATOM      7  O   UNL     1      -1.239  -1.387  -1.880  0.00  0.00    -0.275 OA
ENDROOT
BRANCH   5   8
ATOM      8  C   UNL     1       0.263  -0.940  -4.508  0.00  0.00    +0.101 C 
ATOM      9  C   UNL     1       0.782  -1.603  -5.786  0.00  0.00    +0.124 C 
ATOM     10  C   UNL     1       0.587  -0.586  -6.904  0.00  0.00    -0.036 C 
ATOM     11  C   UNL     1      -0.107  -1.199  -7.853  0.00  0.00    -0.001 A 
ATOM     12  C   UNL     1      -0.526  -0.768  -9.196  0.00  0.00    +0.010 A 
ATOM     13  C   UNL     1      -1.255  -1.664  -9.913  0.00  0.00    +0.001 A 
ATOM     14  C   UNL     1      -1.605  -2.930  -9.433  0.00  0.00    +0.002 A 
ATOM     15  C   UNL     1      -1.258  -3.411  -8.213  0.00  0.00    +0.026 A 
ATOM     16  C   UNL     1      -0.484  -2.562  -7.369  0.00  0.00    +0.043 A 
ATOM     17  N   UNL     1       0.005  -2.783  -6.164  0.00  0.00    -0.376 N 
ATOM     18  C   UNL     1       1.061   0.841  -6.768  0.00  0.00    +0.048 C 
ATOM     19  C   UNL     1       0.570   1.327  -5.392  0.00  0.00    +0.085 C 
ATOM     20  N   UNL     1       0.935   0.359  -4.354  0.00  0.00    -0.310 NA
ATOM     21  H   UNL     1       0.779   0.740  -3.433  0.00  0.00    +0.122 HD
ATOM     22  H   UNL     1      -0.124  -3.575  -5.620  0.00  0.00    +0.160 HD
ENDBRANCH   5   8
BRANCH   1  24
ATOM     23  C   UNL     1       0.243   1.505   0.084  0.00  0.00    +0.033 C 
ATOM     24  C   UNL     1       0.002  -0.004   0.002  0.00  0.00    +0.107 C 
BRANCH  24  25
ATOM     25  C   UNL     1       0.555  -0.669   1.236  0.00  0.00    -0.027 A 
ATOM     26  C   UNL     1       0.734   0.063   2.395  0.00  0.00    +0.005 A 
ATOM     27  C   UNL     1       1.241  -0.547   3.527  0.00  0.00    +0.000 A 
ATOM     28  C   UNL     1       1.569  -1.889   3.500  0.00  0.00    +0.000 A 
ATOM     29  C   UNL     1       1.390  -2.622   2.342  0.00  0.00    +0.000 A 
ATOM     30  C   UNL     1       0.878  -2.013   1.211  0.00  0.00    +0.005 A 
ENDBRANCH  24  25
ENDBRANCH   1  24
BRANCH   4  31
ATOM     31  O   UNL     1       2.745  -2.777  -3.931  0.00  0.00    -0.495 OA
ATOM     32  H   UNL     1       3.698  -2.791  -3.766  0.00  0.00    +0.293 HD
ENDBRANCH   4  31
BRANCH   2  33
ATOM     33  O   UNL     1       2.295   1.018  -1.852  0.00  0.00    -0.356 OA
ATOM     34  H   UNL     1       3.223   1.253  -1.990  0.00  0.00    +0.214 HD
ENDBRANCH   2  33
TORSDOF 5
