REMARK  Name = ZINC39687195
REMARK  7 active torsions:
REMARK  status: ('A' for Active; 'I' for Inactive)
REMARK    1  A    between atoms: C_1  and  C_2
REMARK    2  A    between atoms: C_6  and  C_7
REMARK    3  A    between atoms: C_11  and  C_20
REMARK    4  A    between atoms: N_22  and  C_23
REMARK    5  A    between atoms: C_23  and  C_25
REMARK    6  A    between atoms: C_23  and  C_26
REMARK    7  A    between atoms: C_26  and  C_27
REMARK                            x       y       z     vdW  Elec       q    Type
REMARK                         _______ _______ _______ _____ _____    ______ ____
ROOT
ATOM      1  C   UNL     1       1.196   0.311   1.910  0.00  0.00    +0.254 C 
ATOM      2  O   UNL     1       1.375   1.458   2.276  0.00  0.00    -0.269 OA
ATOM      3  N   UNL     1       0.803  -0.626   2.795  0.00  0.00    -0.296 N 
ATOM      4  C   UNL     1       0.660  -2.084   2.571  0.00  0.00    +0.121 C 
ATOM      5  C   UNL     1       1.181  -2.732   3.873  0.00  0.00    +0.100 C 
ATOM      6  C   UNL     1       1.016  -1.643   4.947  0.00  0.00    -0.004 C 
ATOM      7  C   UNL     1       0.420  -0.432   4.214  0.00  0.00    +0.115 C 
ATOM      8  C   UNL     1       2.372  -1.277   5.542  0.00  0.00    -0.010 C 
ATOM      9  C   UNL     1       2.175  -0.235   6.646  0.00  0.00    -0.082 C 
ATOM     10  N   UNL     1       1.293  -0.780   7.685  0.00  0.00    +0.379 N 
ATOM     11  C   UNL     1      -0.038  -1.042   7.125  0.00  0.00    -0.082 C 
ATOM     12  C   UNL     1       0.065  -2.119   6.041  0.00  0.00    -0.010 C 
ATOM     13  H   UNL     1       1.684  -1.641   8.038  0.00  0.00    -0.086 HD
ATOM     14  H   UNL     1       1.214  -0.115   8.440  0.00  0.00    -0.086 HD
ENDROOT
BRANCH   1  20
ATOM     15  C   UNL     1       2.365   2.145  -0.321  0.00  0.00    +0.045 C 
ATOM     16  C   UNL     1       1.923   0.719  -0.527  0.00  0.00    -0.031 A 
ATOM     17  C   UNL     1       2.010   0.096  -1.749  0.00  0.00    +0.011 A 
ATOM     18  C   UNL     1       1.595  -1.189  -1.865  0.00  0.00    +0.046 A 
ATOM     19  S   UNL     1       1.075  -1.595  -0.320  0.00  0.00    -0.092 S 
ATOM     20  C   UNL     1       1.410  -0.051   0.506  0.00  0.00    +0.077 A 
ENDBRANCH   1  20
BRANCH   5  21
ATOM     21  C   UNL     1       2.632  -3.111   3.727  0.00  0.00    +0.218 C 
ATOM     22  O   UNL     1       3.357  -2.466   3.000  0.00  0.00    -0.275 OA
ATOM     23  N   UNL     1       3.124  -4.168   4.403  0.00  0.00    -0.312 N 
ATOM     24  H   UNL     1       2.567  -4.634   5.046  0.00  0.00    +0.149 HD
BRANCH  23  25
ATOM     25  C   UNL     1       4.500  -4.612   4.168  0.00  0.00    +0.074 C 
ATOM     26  C   UNL     1       5.455  -3.797   5.043  0.00  0.00    +0.028 C 
BRANCH  25  27
ATOM     27  C   UNL     1       4.625  -6.095   4.521  0.00  0.00    +0.060 C 
BRANCH  27  28
ATOM     28  C   UNL     1       3.791  -6.910   3.566  0.00  0.00    -0.010 A 
ATOM     29  C   UNL     1       2.538  -7.352   3.947  0.00  0.00    +0.006 A 
ATOM     30  C   UNL     1       1.773  -8.100   3.071  0.00  0.00    +0.000 A 
ATOM     31  C   UNL     1       2.260  -8.406   1.814  0.00  0.00    +0.003 A 
ATOM     32  C   UNL     1       3.512  -7.965   1.431  0.00  0.00    +0.038 A 
ATOM     33  C   UNL     1       4.277  -7.211   2.305  0.00  0.00    +0.127 A 
ATOM     34  F   UNL     1       5.500  -6.775   1.930  0.00  0.00    -0.205 F 
ENDBRANCH  27  28
ENDBRANCH  25  27
ENDBRANCH  23  25
ENDBRANCH   5  21
TORSDOF 5
