REMARK  Name = ZINC23749250
REMARK  7 active torsions:
REMARK  status: ('A' for Active; 'I' for Inactive)
REMARK    1  A    between atoms: C_1  and  C_2
REMARK    2  A    between atoms: C_7  and  O_26
REMARK    3  A    between atoms: C_8  and  C_10
REMARK    4  A    between atoms: C_10  and  C_12
REMARK    5  A    between atoms: C_10  and  N_20
REMARK    6  A    between atoms: C_17  and  O_18
REMARK    7  A    between atoms: O_18  and  C_19
REMARK                            x       y       z     vdW  Elec       q    Type
REMARK                         _______ _______ _______ _____ _____    ______ ____
ROOT
ATOM      1  C   UNL     1       5.247   2.833  -0.033  0.00  0.00    +0.133 C 
ENDROOT
BRANCH   1   9
ATOM      2  C   UNL     1      -1.003  -1.234   0.161  0.00  0.00    +0.090 C 
ATOM      3  C   UNL     1       0.164  -0.281   0.121  0.00  0.00    +0.150 A 
ATOM      4  N   UNL     1       0.074   1.047   0.095  0.00  0.00    -0.205 NA
ATOM      5  C   UNL     1       1.273   1.560   0.064  0.00  0.00    +0.199 A 
ATOM      6  N   UNL     1       2.198   0.561   0.068  0.00  0.00    -0.173 N 
ATOM      7  N   UNL     1       1.423  -0.627   0.106  0.00  0.00    -0.147 NA
ATOM      8  C   UNL     1       3.522   0.928   0.037  0.00  0.00    +0.228 A 
ATOM      9  C   UNL     1       3.870   2.220   0.004  0.00  0.00    +0.076 A 
ATOM     10  S   UNL     1       2.276   3.026   0.016  0.00  0.00    -0.047 S 
BRANCH   8  11
ATOM     11  O   UNL     1       4.487  -0.030   0.039  0.00  0.00    -0.492 OA
ATOM     12  H   UNL     1       5.548   0.258   0.014  0.00  0.00    +0.294 HD
ENDBRANCH   8  11
ENDBRANCH   1   9
BRANCH   1  13
ATOM     13  C   UNL     1       5.548   3.471   1.299  0.00  0.00    +0.016 A 
ATOM     14  C   UNL     1       5.276   4.810   1.501  0.00  0.00    +0.009 A 
ATOM     15  C   UNL     1       5.553   5.396   2.722  0.00  0.00    +0.001 A 
ATOM     16  C   UNL     1       6.101   4.643   3.745  0.00  0.00    +0.004 A 
ATOM     17  C   UNL     1       6.375   3.304   3.547  0.00  0.00    +0.046 A 
ATOM     18  C   UNL     1       6.094   2.712   2.324  0.00  0.00    +0.125 A 
BRANCH  18  19
ATOM     19  O   UNL     1       6.357   1.393   2.129  0.00  0.00    -0.495 OA
ATOM     20  C   UNL     1       6.918   0.675   3.229  0.00  0.00    +0.277 C 
ENDBRANCH  18  19
ENDBRANCH   1  13
BRANCH   1  21
ATOM     21  N   UNL     1       5.300   3.853  -1.088  0.00  0.00    -0.287 NA
ATOM     22  C   UNL     1       4.804   3.318  -2.364  0.00  0.00    +0.113 C 
ATOM     23  C   UNL     1       4.821   4.428  -3.418  0.00  0.00    +0.175 C 
ATOM     24  O   UNL     1       6.147   4.953  -3.530  0.00  0.00    -0.377 OA
ATOM     25  C   UNL     1       6.661   5.484  -2.305  0.00  0.00    +0.175 C 
ATOM     26  C   UNL     1       6.662   4.384  -1.240  0.00  0.00    +0.113 C 
ENDBRANCH   1  21
TORSDOF 5
