REMARK  Name = ZINC11591974
REMARK  7 active torsions:
REMARK  status: ('A' for Active; 'I' for Inactive)
REMARK    1  A    between atoms: C_1  and  C_2
REMARK    2  A    between atoms: C_2  and  C_4
REMARK    3  A    between atoms: C_2  and  S_16
REMARK    4  A    between atoms: N_6  and  C_7
REMARK    5  A    between atoms: S_16  and  C_17
REMARK    6  A    between atoms: C_20  and  C_23
REMARK    7  A    between atoms: N_21  and  N_22
REMARK                            x       y       z     vdW  Elec       q    Type
REMARK                         _______ _______ _______ _____ _____    ______ ____
ROOT
ATOM      1  C   UNL     1       0.475  10.989   0.144  0.00  0.00    +0.029 C 
ATOM      2  C   UNL     1       1.768  10.590  -0.569  0.00  0.00    +0.137 C 
ENDROOT
BRANCH   2   3
ATOM      3  C   UNL     1       2.766  11.715  -0.467  0.00  0.00    +0.230 C 
ATOM      4  O   UNL     1       2.862  12.524  -1.365  0.00  0.00    -0.274 OA
ATOM      5  N   UNL     1       3.552  11.821   0.623  0.00  0.00    -0.282 N 
ATOM      6  H   UNL     1       3.426  11.219   1.373  0.00  0.00    +0.155 HD
BRANCH   5   7
ATOM      7  C   UNL     1       4.552  12.802   0.673  0.00  0.00    +0.071 A 
ATOM      8  C   UNL     1       5.824  12.523   0.191  0.00  0.00    +0.065 A 
ATOM      9  C   UNL     1       6.807  13.494   0.237  0.00  0.00    +0.042 A 
ATOM     10  C   UNL     1       6.527  14.739   0.773  0.00  0.00    +0.044 A 
ATOM     11  C   UNL     1       5.262  15.018   1.258  0.00  0.00    +0.042 A 
ATOM     12  C   UNL     1       4.273  14.052   1.210  0.00  0.00    +0.065 A 
ATOM     13 CL   UNL     1       2.686  14.403   1.819  0.00  0.00    -0.082 Cl
ATOM     14 CL   UNL     1       7.766  15.953   0.836  0.00  0.00    -0.083 Cl
ATOM     15 CL   UNL     1       6.178  10.960  -0.475  0.00  0.00    -0.082 Cl
ENDBRANCH   5   7
ENDBRANCH   2   3
BRANCH   2  16
ATOM     16  S   UNL     1       1.417  10.253  -2.313  0.00  0.00    -0.072 S 
BRANCH  16  17
ATOM     17  C   UNL     1       0.375   8.841  -2.147  0.00  0.00    +0.209 A 
ATOM     18  N   UNL     1       0.013   8.268  -1.022  0.00  0.00    -0.121 NA
ATOM     19  N   UNL     1      -0.750   7.263  -1.263  0.00  0.00    -0.126 NA
ATOM     20  C   UNL     1      -0.922   7.131  -2.559  0.00  0.00    +0.188 A 
ATOM     21  N   UNL     1      -0.202   8.136  -3.166  0.00  0.00    -0.223 N 
BRANCH  20  22
ATOM     22  C   UNL     1      -1.728   6.101  -3.235  0.00  0.00    +0.058 A 
ATOM     23  C   UNL     1      -2.671   5.256  -2.706  0.00  0.00    +0.019 A 
ATOM     24  C   UNL     1      -3.307   4.369  -3.545  0.00  0.00    +0.008 A 
ATOM     25  C   UNL     1      -2.976   4.348  -4.862  0.00  0.00    +0.046 A 
ATOM     26  S   UNL     1      -1.733   5.625  -4.956  0.00  0.00    -0.093 S 
ENDBRANCH  20  22
BRANCH  21  27
ATOM     27  N   UNL     1      -0.089   8.378  -4.506  0.00  0.00    -0.295 N 
ATOM     28  H   UNL     1      -0.813   9.007  -4.821  0.00  0.00    +0.163 HD
ATOM     29  H   UNL     1       0.826   8.738  -4.732  0.00  0.00    +0.163 HD
ENDBRANCH  21  27
ENDBRANCH  16  17
ENDBRANCH   2  16
TORSDOF 6
