REMARK  Name = ZINC02120328
REMARK  12 active torsions:
REMARK  status: ('A' for Active; 'I' for Inactive)
REMARK    1  A    between atoms: C_1  and  C_2
REMARK    2  A    between atoms: C_3  and  O_21
REMARK    3  A    between atoms: C_12  and  C_13
REMARK    4  A    between atoms: C_16  and  O_19
REMARK    5  A    between atoms: O_19  and  C_20
REMARK    6  A    between atoms: O_21  and  C_22
REMARK    7  A    between atoms: C_22  and  C_23
REMARK    8  A    between atoms: N_25  and  CA_26
REMARK    9  A    between atoms: CA_26  and  CB_28
REMARK   10  A    between atoms: CA_26  and  C_36
REMARK   11  A    between atoms: CB_28  and  CG_29
REMARK   12  A    between atoms: CZ_32  and  OH_35
REMARK                            x       y       z     vdW  Elec       q    Type
REMARK                         _______ _______ _______ _____ _____    ______ ____
ROOT
ATOM      1  C   UNK A   0      -0.018   1.503   0.010  0.00  0.00    +0.051 C 
ATOM      2  C   UNK A   0       0.002  -0.004   0.002  0.00  0.00    +0.034 A 
ATOM      3  C   UNK A   0       0.006  -0.692  -1.200  0.00  0.00    +0.128 A 
ATOM      4  C   UNK A   0       0.025  -2.085  -1.218  0.00  0.00    +0.047 A 
ATOM      5  C   UNK A   0       0.040  -2.790  -0.048  0.00  0.00    +0.016 A 
ATOM      6  C   UNK A   0       0.037  -2.111   1.172  0.00  0.00    +0.026 A 
ATOM      7  C   UNK A   0       0.023  -0.706   1.198  0.00  0.00    +0.146 A 
ATOM      8  O   UNK A   0       0.024  -0.052   2.380  0.00  0.00    -0.422 OA
ATOM      9  C   UNK A   0       0.044  -0.706   3.552  0.00  0.00    +0.338 A 
ATOM     10  O   UNK A   0       0.044  -0.063   4.588  0.00  0.00    -0.245 OA
ATOM     11  C   UNK A   0       0.064  -2.108   3.619  0.00  0.00    +0.101 A 
ATOM     12  C   UNK A   0       0.052  -2.846   2.449  0.00  0.00    -0.000 A 
ENDROOT
BRANCH  12  13
ATOM     13  C   UNK A   0       0.071  -4.323   2.478  0.00  0.00    -0.017 A 
ATOM     14  C   UNK A   0       1.176  -5.019   1.982  0.00  0.00    +0.012 A 
ATOM     15  C   UNK A   0       1.190  -6.396   2.011  0.00  0.00    +0.046 A 
ATOM     16  C   UNK A   0       0.107  -7.093   2.534  0.00  0.00    +0.120 A 
ATOM     17  C   UNK A   0      -0.994  -6.404   3.029  0.00  0.00    +0.046 A 
ATOM     18  C   UNK A   0      -1.013  -5.027   3.008  0.00  0.00    +0.012 A 
BRANCH  16  19
ATOM     19  O   UNK A   0       0.125  -8.450   2.561  0.00  0.00    -0.495 OA
ATOM     20  C   UNK A   0      -1.020  -9.103   3.112  0.00  0.00    +0.277 C 
ENDBRANCH  16  19
ENDBRANCH  12  13
BRANCH   3  21
ATOM     21  O   UNK A   0      -0.009  -0.004  -2.371  0.00  0.00    -0.482 OA
BRANCH  21  22
ATOM     22  C   UNK A   0      -0.004  -0.773  -3.575  0.00  0.00    +0.324 C 
BRANCH  22  23
ATOM     23  C   UNK A   0      -0.023   0.155  -4.763  0.00  0.00    +0.251 C 
ATOM     24  O   UNK A   0      -0.039   1.356  -4.594  0.00  0.00    -0.272 OA
ATOM     25  N   TYR A   1      -0.022  -0.350  -6.013  0.00  0.00    -0.299 N 
ATOM     26  H   TYR A   1      -0.009  -1.311  -6.147  0.00  0.00    +0.150 HD
BRANCH  25  27
ATOM     27  CA  TYR A   1      -0.040   0.551  -7.167  0.00  0.00    +0.191 C 
BRANCH  27  28
ATOM     28  C   TYR A   1      -1.463   0.939  -7.480  0.00  0.00    +0.376 C 
ATOM     29  O   TYR A   1      -1.703   2.024  -7.980  0.00  0.00    -0.244 OA
ATOM     30  OXT TYR A   1      -2.373   0.166  -7.233  0.00  0.00    -0.244 OA
ENDBRANCH  27  28
BRANCH  27  31
ATOM     31  CB  TYR A   1       0.573  -0.156  -8.377  0.00  0.00    +0.069 C 
BRANCH  31  32
ATOM     32  CG  TYR A   1       2.030  -0.434  -8.110  0.00  0.00    -0.045 A 
ATOM     33  CD2 TYR A   1       2.986   0.503  -8.458  0.00  0.00    +0.007 A 
ATOM     34  CE2 TYR A   1       4.322   0.251  -8.215  0.00  0.00    +0.045 A 
ATOM     35  CZ  TYR A   1       4.705  -0.943  -7.622  0.00  0.00    +0.117 A 
ATOM     36  CE1 TYR A   1       3.744  -1.882  -7.274  0.00  0.00    +0.045 A 
ATOM     37  CD1 TYR A   1       2.409  -1.622  -7.514  0.00  0.00    +0.007 A 
BRANCH  35  38
ATOM     38  OH  TYR A   1       6.019  -1.194  -7.383  0.00  0.00    -0.507 OA
ATOM     39  HH  TYR A   1       6.325  -0.894  -6.516  0.00  0.00    +0.292 HD
ENDBRANCH  35  38
ENDBRANCH  31  32
ENDBRANCH  27  31
ENDBRANCH  25  27
ENDBRANCH  22  23
ENDBRANCH  21  22
ENDBRANCH   3  21
TORSDOF 10
