REMARK  Name = ZINC07553265
REMARK  5 active torsions:
REMARK  status: ('A' for Active; 'I' for Inactive)
REMARK    1  A    between atoms: C_1  and  C_2
REMARK    2  A    between atoms: C_3  and  C_20
REMARK    3  A    between atoms: C_4  and  C_10
REMARK    4  A    between atoms: C_20  and  O_22
REMARK    5  A    between atoms: O_22  and  C_23
REMARK                            x       y       z     vdW  Elec       q    Type
REMARK                         _______ _______ _______ _____ _____    ______ ____
ROOT
ATOM      1  C   UNL     1       2.467   0.836  -0.017  0.00  0.00    +0.061 C 
ATOM      2  C   UNL     1       1.183   1.626  -0.001  0.00  0.00    +0.019 C 
ATOM      3  C   UNL     1       1.234   2.976   0.006  0.00  0.00    +0.078 C 
ATOM      4  C   UNL     1      -0.080   3.731   0.022  0.00  0.00    +0.141 C 
ATOM      5  N   UNL     1      -1.312   2.924   0.029  0.00  0.00    -0.315 N 
ATOM      6  C   UNL     1      -1.200   1.581   0.017  0.00  0.00    +0.135 C 
ATOM      7  S   UNL     1      -2.624   0.631   0.019  0.00  0.00    -0.019 S 
ATOM      8  N   UNL     1      -0.011   0.966   0.007  0.00  0.00    -0.300 N 
ATOM      9  H   UNL     1      -2.184   3.350   0.040  0.00  0.00    +0.149 HD
ATOM     10  H   UNL     1       0.002  -0.004   0.002  0.00  0.00    +0.154 HD
ENDROOT
BRANCH   4  11
ATOM     11  C   UNL     1      -0.094   4.613   1.244  0.00  0.00    -0.018 A 
ATOM     12  C   UNL     1       0.203   5.958   1.127  0.00  0.00    +0.055 A 
ATOM     13  C   UNL     1       0.191   6.771   2.249  0.00  0.00    +0.168 A 
ATOM     14  C   UNL     1      -0.123   6.230   3.493  0.00  0.00    +0.180 A 
ATOM     15  C   UNL     1      -0.421   4.881   3.603  0.00  0.00    +0.064 A 
ATOM     16  C   UNL     1      -0.411   4.076   2.478  0.00  0.00    +0.025 A 
ATOM     17 BR   UNL     1      -0.848   4.141   5.290  0.00  0.00    -0.046 Br
ATOM     18  O   UNL     1      -0.068   7.224   4.428  0.00  0.00    -0.451 OA
ATOM     19  C   UNL     1      -0.119   8.455   3.682  0.00  0.00    +0.466 C 
ATOM     20  O   UNL     1       0.441   8.104   2.403  0.00  0.00    -0.453 OA
ENDBRANCH   4  11
BRANCH   3  21
ATOM     21  C   UNL     1       2.471   3.661  -0.003  0.00  0.00    +0.338 C 
ATOM     22  O   UNL     1       3.514   3.034  -0.016  0.00  0.00    -0.245 OA
BRANCH  21  23
ATOM     23  O   UNL     1       2.494   5.011   0.004  0.00  0.00    -0.465 OA
ATOM     24  C   UNL     1       3.779   5.637  -0.006  0.00  0.00    +0.280 C 
ENDBRANCH  21  23
ENDBRANCH   3  21
TORSDOF 3
