REMARK  Name = ZINC60017201
REMARK  9 active torsions:
REMARK  status: ('A' for Active; 'I' for Inactive)
REMARK    1  A    between atoms: C_1  and  C_2
REMARK    2  A    between atoms: C_2  and  C_3
REMARK    3  A    between atoms: C_3  and  C_11
REMARK    4  A    between atoms: C_14  and  N_17
REMARK    5  A    between atoms: C_18  and  C_20
REMARK    6  A    between atoms: C_20  and  C_22
REMARK    7  A    between atoms: C_20  and  N_29
REMARK    8  A    between atoms: C_22  and  C_23
REMARK    9  A    between atoms: C_30  and  C_32
REMARK                            x       y       z     vdW  Elec       q    Type
REMARK                         _______ _______ _______ _____ _____    ______ ____
ROOT
ATOM      1  N   UNL     1      -4.558   1.519  -4.387  0.00  0.00    -0.284 N 
ATOM      2  C   UNL     1      -4.647   2.851  -4.567  0.00  0.00    +0.238 C 
ATOM      3  O   UNL     1      -4.008   3.603  -3.861  0.00  0.00    -0.273 OA
ATOM      4  H   UNL     1      -5.017   0.916  -4.992  0.00  0.00    +0.155 HD
ENDROOT
BRANCH   1   8
ATOM      5  C   UNL     1      -2.309  -0.010  -1.230  0.00  0.00    -0.032 A 
ATOM      6  C   UNL     1      -1.894   1.137  -1.881  0.00  0.00    +0.006 A 
ATOM      7  C   UNL     1      -2.637   1.647  -2.928  0.00  0.00    +0.023 A 
ATOM      8  C   UNL     1      -3.802   1.005  -3.327  0.00  0.00    +0.033 A 
ATOM      9  C   UNL     1      -4.216  -0.147  -2.672  0.00  0.00    +0.023 A 
ATOM     10  C   UNL     1      -3.466  -0.654  -1.629  0.00  0.00    +0.006 A 
BRANCH   5  11
ATOM     11  C   UNL     1      -1.496  -0.563  -0.089  0.00  0.00    +0.072 C 
ATOM     12  C   UNL     1      -0.344   0.396   0.233  0.00  0.00    +0.030 C 
ATOM     13  C   UNL     1       0.531  -0.240   1.318  0.00  0.00    +0.097 C 
ATOM     14  C   UNL     1       0.987  -1.598   0.854  0.00  0.00    +0.219 C 
ATOM     15  O   UNL     1       2.045  -2.037   1.250  0.00  0.00    -0.275 OA
ATOM     16  N   UNL     1       0.245  -2.330   0.010  0.00  0.00    -0.256 N 
ATOM     17  C   UNL     1      -0.930  -1.903  -0.477  0.00  0.00    +0.230 C 
ATOM     18  O   UNL     1      -1.548  -2.610  -1.244  0.00  0.00    -0.274 OA
ATOM     19  H   UNL     1       0.571  -3.204  -0.259  0.00  0.00    +0.157 HD
BRANCH  11  21
ATOM     20  C   UNL     1      -3.056   0.617   1.466  0.00  0.00    +0.005 C 
ATOM     21  C   UNL     1      -2.388  -0.722   1.144  0.00  0.00    +0.017 C 
ENDBRANCH  11  21
ENDBRANCH   5  11
ENDBRANCH   1   8
BRANCH   2  22
ATOM     22  C   UNL     1      -5.542   3.408  -5.645  0.00  0.00    +0.164 C 
BRANCH  22  23
ATOM     23  N   UNL     1      -5.128   4.776  -5.965  0.00  0.00    -0.297 N 
ATOM     24  C   UNL     1      -5.141   5.725  -5.008  0.00  0.00    +0.280 C 
ATOM     25  O   UNL     1      -5.498   5.446  -3.879  0.00  0.00    -0.267 OA
ATOM     26  H   UNL     1      -4.844   4.999  -6.865  0.00  0.00    +0.150 HD
BRANCH  24  27
ATOM     27  C   UNL     1      -4.727   7.095  -5.329  0.00  0.00    +0.189 A 
ATOM     28  C   UNL     1      -4.689   8.146  -4.458  0.00  0.00    +0.054 A 
ATOM     29  C   UNL     1      -4.234   9.257  -5.186  0.00  0.00    +0.042 A 
ATOM     30  C   UNL     1      -4.018   8.841  -6.453  0.00  0.00    +0.196 A 
ATOM     31  O   UNL     1      -4.311   7.537  -6.534  0.00  0.00    -0.458 OA
ENDBRANCH  24  27
ENDBRANCH  22  23
BRANCH  22  32
ATOM     32  C   UNL     1      -6.990   3.415  -5.152  0.00  0.00    +0.067 C 
BRANCH  32  33
ATOM     33  C   UNL     1      -7.899   3.855  -6.271  0.00  0.00    -0.045 A 
ATOM     34  C   UNL     1      -8.187   5.197  -6.440  0.00  0.00    +0.004 A 
ATOM     35  C   UNL     1      -9.021   5.600  -7.466  0.00  0.00    +0.000 A 
ATOM     36  C   UNL     1      -9.566   4.663  -8.324  0.00  0.00    +0.000 A 
ATOM     37  C   UNL     1      -9.277   3.322  -8.155  0.00  0.00    +0.000 A 
ATOM     38  C   UNL     1      -8.440   2.918  -7.132  0.00  0.00    +0.004 A 
ENDBRANCH  32  33
ENDBRANCH  22  32
ENDBRANCH   2  22
TORSDOF 8
