REMARK  Name = ZINC67239383
REMARK  12 active torsions:
REMARK  status: ('A' for Active; 'I' for Inactive)
REMARK    1  A    between atoms: C_1  and  C_2
REMARK    2  A    between atoms: C_2  and  O_3
REMARK    3  A    between atoms: O_3  and  C_4
REMARK    4  A    between atoms: C_9  and  N_12
REMARK    5  A    between atoms: C_13  and  C_15
REMARK    6  A    between atoms: C_15  and  S_16
REMARK    7  A    between atoms: S_16  and  C_17
REMARK    8  A    between atoms: C_21  and  C_32
REMARK    9  A    between atoms: N_27  and  C_28
REMARK   10  A    between atoms: C_28  and  C_29
REMARK   11  A    between atoms: C_29  and  C_30
REMARK   12  A    between atoms: C_29  and  C_31
REMARK                            x       y       z     vdW  Elec       q    Type
REMARK                         _______ _______ _______ _____ _____    ______ ____
ROOT
ATOM      1  S   UNL     1       6.883  -6.539   6.173  0.00  0.00    -0.078 S 
ENDROOT
BRANCH   1   2
ATOM      2  C   UNL     1       8.613  -6.827   6.336  0.00  0.00    +0.173 A 
ATOM      3  N   UNL     1       9.454  -6.018   5.734  0.00  0.00    -0.222 NA
ATOM      4  C   UNL     1      10.785  -6.203   5.834  0.00  0.00    +0.097 A 
ATOM      5  C   UNL     1      11.909  -5.522   5.317  0.00  0.00    +0.051 A 
ATOM      6  C   UNL     1      13.015  -6.160   5.748  0.00  0.00    +0.016 A 
ATOM      7  N   UNL     1      12.655  -7.223   6.520  0.00  0.00    -0.353 N 
ATOM      8  H   UNL     1      13.266  -7.842   6.949  0.00  0.00    +0.166 HD
ATOM      9  C   UNL     1      11.279  -7.273   6.590  0.00  0.00    +0.131 A 
ATOM     10  C   UNL     1      10.363  -8.130   7.228  0.00  0.00    +0.279 A 
ATOM     11  O   UNL     1      10.753  -9.074   7.895  0.00  0.00    -0.265 OA
ATOM     12  N   UNL     1       9.043  -7.881   7.089  0.00  0.00    -0.286 N 
ATOM     13  C   UNL     1      14.432  -5.761   5.425  0.00  0.00    +0.063 C 
BRANCH  12  14
ATOM     14  C   UNL     1       8.065  -8.752   7.747  0.00  0.00    +0.130 C 
BRANCH  14  15
ATOM     15  C   UNL     1       7.694  -9.902   6.808  0.00  0.00    +0.003 C 
ATOM     16  C   UNL     1       6.769 -10.878   7.538  0.00  0.00    +0.009 C 
ATOM     17  C   UNL     1       6.976  -9.344   5.577  0.00  0.00    +0.009 C 
ENDBRANCH  14  15
ENDBRANCH  12  14
ENDBRANCH   1   2
BRANCH   1  18
ATOM     18  C   UNL     1       6.780  -5.071   5.112  0.00  0.00    +0.173 C 
BRANCH  18  20
ATOM     19  N   UNL     1       5.013  -3.648   4.126  0.00  0.00    -0.312 N 
ATOM     20  C   UNL     1       5.333  -4.712   4.889  0.00  0.00    +0.224 C 
ATOM     21  O   UNL     1       4.458  -5.381   5.396  0.00  0.00    -0.275 OA
ATOM     22  H   UNL     1       5.713  -3.114   3.721  0.00  0.00    +0.149 HD
BRANCH  19  28
ATOM     23  C   UNL     1       0.801  -1.812   1.304  0.00  0.00    +0.403 C 
ATOM     24  O   UNL     1       0.321  -2.554   0.470  0.00  0.00    -0.226 OA
ATOM     25  N   UNL     1       1.441  -2.324   2.374  0.00  0.00    -0.267 N 
ATOM     26  C   UNL     1       2.021  -1.440   3.394  0.00  0.00    +0.113 C 
ATOM     27  C   UNL     1       3.495  -1.808   3.585  0.00  0.00    +0.041 C 
ATOM     28  C   UNL     1       3.607  -3.299   3.910  0.00  0.00    +0.076 C 
ATOM     29  C   UNL     1       3.051  -4.120   2.744  0.00  0.00    +0.041 C 
ATOM     30  C   UNL     1       1.567  -3.778   2.546  0.00  0.00    +0.113 C 
BRANCH  23  31
ATOM     31  O   UNL     1       0.693  -0.477   1.160  0.00  0.00    -0.451 OA
BRANCH  31  33
ATOM     32  C   UNL     1      -0.019   1.526   0.010  0.00  0.00    +0.048 C 
ATOM     33  C   UNL     1       0.002  -0.004   0.002  0.00  0.00    +0.230 C 
ENDBRANCH  31  33
ENDBRANCH  23  31
ENDBRANCH  19  28
ENDBRANCH  18  20
ENDBRANCH   1  18
TORSDOF 8
