REMARK  Name = ZINC00903937
REMARK  10 active torsions:
REMARK  status: ('A' for Active; 'I' for Inactive)
REMARK    1  A    between atoms: C_1  and  C_2
REMARK    2  A    between atoms: C_5  and  N_8
REMARK    3  A    between atoms: N_8  and  C_9
REMARK    4  A    between atoms: C_9  and  C_11
REMARK    5  A    between atoms: C_9  and  C_16
REMARK    6  A    between atoms: N_18  and  C_19
REMARK    7  A    between atoms: C_19  and  C_20
REMARK    8  A    between atoms: C_26  and  C_28
REMARK    9  A    between atoms: C_28  and  N_29
REMARK   10  A    between atoms: C_31  and  C_34
REMARK                            x       y       z     vdW  Elec       q    Type
REMARK                         _______ _______ _______ _____ _____    ______ ____
ROOT
ATOM      1  N   UNL     1      -0.936  -4.117   0.086  0.00  0.00    -0.253 N 
ATOM      2  C   UNL     1      -0.476  -4.508  -1.119  0.00  0.00    +0.244 C 
ATOM      3  O   UNL     1       0.137  -5.549  -1.227  0.00  0.00    -0.273 OA
ENDROOT
BRANCH   1   8
ATOM      4  C   UNL     1      -4.263   0.458   0.507  0.00  0.00    +0.044 C 
ATOM      5  C   UNL     1      -3.379  -0.757   0.395  0.00  0.00    -0.050 A 
ATOM      6  C   UNL     1      -2.271  -0.731  -0.432  0.00  0.00    +0.005 A 
ATOM      7  C   UNL     1      -1.459  -1.843  -0.536  0.00  0.00    +0.024 A 
ATOM      8  C   UNL     1      -1.756  -2.989   0.190  0.00  0.00    +0.038 A 
ATOM      9  C   UNL     1      -2.869  -3.012   1.020  0.00  0.00    +0.024 A 
ATOM     10  C   UNL     1      -3.675  -1.895   1.125  0.00  0.00    +0.005 A 
ENDBRANCH   1   8
BRANCH   1  11
ATOM     11  C   UNL     1      -0.576  -4.875   1.288  0.00  0.00    +0.204 C 
BRANCH  11  12
ATOM     12  C   UNL     1      -0.102  -3.925   2.357  0.00  0.00    +0.019 A 
ATOM     13  C   UNL     1       0.731  -4.161   3.400  0.00  0.00    +0.013 A 
ATOM     14  C   UNL     1       1.031  -3.126   4.266  0.00  0.00    +0.008 A 
ATOM     15  C   UNL     1       0.483  -1.905   4.046  0.00  0.00    +0.045 A 
ATOM     16  S   UNL     1      -0.486  -2.195   2.575  0.00  0.00    -0.099 S 
ENDBRANCH  11  12
BRANCH  11  17
ATOM     17  C   UNL     1      -1.781  -5.630   1.785  0.00  0.00    +0.239 C 
ATOM     18  O   UNL     1      -2.837  -5.545   1.194  0.00  0.00    -0.273 OA
ATOM     19  N   UNL     1      -1.686  -6.401   2.886  0.00  0.00    -0.311 N 
ATOM     20  H   UNL     1      -0.841  -6.470   3.359  0.00  0.00    +0.149 HD
BRANCH  19  21
ATOM     21  C   UNL     1      -2.857  -7.136   3.370  0.00  0.00    +0.135 C 
BRANCH  21  22
ATOM     22  C   UNL     1      -2.482  -7.927   4.624  0.00  0.00    +0.135 C 
ATOM     23  C   UNL     1      -3.675  -8.798   5.071  0.00  0.00    +0.035 C 
ATOM     24  C   UNL     1      -3.613  -8.674   6.618  0.00  0.00    +0.031 C 
ATOM     25  C   UNL     1      -3.105  -7.218   6.776  0.00  0.00    +0.160 C 
ATOM     26  O   UNL     1      -2.177  -7.025   5.694  0.00  0.00    -0.375 OA
ENDBRANCH  21  22
ENDBRANCH  19  21
ENDBRANCH  11  17
ENDBRANCH   1  11
BRANCH   2  27
ATOM     27  C   UNL     1      -0.725  -3.651  -2.334  0.00  0.00    +0.264 C 
BRANCH  27  28
ATOM     28  N   UNL     1      -1.134  -4.500  -3.455  0.00  0.00    -0.154 N 
ATOM     29  N   UNL     1      -0.336  -5.047  -4.306  0.00  0.00    -0.130 NA
ATOM     30  C   UNL     1      -1.067  -5.733  -5.162  0.00  0.00    +0.205 A 
ATOM     31  N   UNL     1      -2.345  -5.575  -4.789  0.00  0.00    -0.108 NA
ATOM     32  N   UNL     1      -2.348  -4.822  -3.741  0.00  0.00    -0.045 NA
BRANCH  30  33
ATOM     33  C   UNL     1      -0.572  -6.525  -6.316  0.00  0.00    +0.023 A 
ATOM     34  C   UNL     1       0.794  -6.600  -6.577  0.00  0.00    +0.013 A 
ATOM     35  C   UNL     1       1.249  -7.338  -7.651  0.00  0.00    +0.021 A 
ATOM     36  C   UNL     1       0.351  -8.003  -8.467  0.00  0.00    +0.041 A 
ATOM     37  C   UNL     1      -1.008  -7.932  -8.211  0.00  0.00    +0.021 A 
ATOM     38  C   UNL     1      -1.472  -7.201  -7.137  0.00  0.00    +0.013 A 
ATOM     39 CL   UNL     1       0.930  -8.930  -9.817  0.00  0.00    -0.084 Cl
ENDBRANCH  30  33
ENDBRANCH  27  28
ENDBRANCH   2  27
TORSDOF 9
