REMARK  Name = ZINC40569259
REMARK  12 active torsions:
REMARK  status: ('A' for Active; 'I' for Inactive)
REMARK    1  A    between atoms: C_1  and  C_2
REMARK    2  A    between atoms: C_2  and  C_3
REMARK    3  A    between atoms: C_3  and  C_4
REMARK    4  A    between atoms: C_11  and  C_19
REMARK    5  A    between atoms: C_13  and  C_17
REMARK    6  A    between atoms: C_14  and  N_16
REMARK    7  A    between atoms: C_22  and  O_29
REMARK    8  A    between atoms: C_23  and  O_27
REMARK    9  A    between atoms: C_24  and  O_25
REMARK   10  A    between atoms: O_25  and  C_26
REMARK   11  A    between atoms: O_27  and  C_28
REMARK   12  A    between atoms: O_29  and  C_30
REMARK                            x       y       z     vdW  Elec       q    Type
REMARK                         _______ _______ _______ _____ _____    ______ ____
ROOT
ATOM      1  C   UNL     1       1.140  -2.109   1.105  0.00  0.00    +0.113 A 
ATOM      2  C   UNL     1       2.161  -2.845   0.625  0.00  0.00    +0.088 A 
ATOM      3  C   UNL     1       2.079  -4.255   0.652  0.00  0.00    +0.144 A 
ATOM      4  C   UNL     1       0.947  -4.844   1.173  0.00  0.00    +0.092 A 
ATOM      5  C   UNL     1      -0.082  -4.027   1.659  0.00  0.00    +0.345 A 
ATOM      6  O   UNL     1      -1.092  -4.529   2.124  0.00  0.00    -0.245 OA
ATOM      7  O   UNL     1       0.045  -2.689   1.616  0.00  0.00    -0.427 OA
ATOM      8  C   UNL     1       0.811  -6.341   1.223  0.00  0.00    +0.109 C 
ATOM      9  C   UNL     1       2.154  -6.988   1.028  0.00  0.00    +0.098 C 
ATOM     10  C   UNL     1       3.202  -6.295   0.523  0.00  0.00    +0.199 C 
ATOM     11  O   UNL     1       3.097  -5.001   0.174  0.00  0.00    -0.441 OA
ENDROOT
BRANCH   8  12
ATOM     12  C   UNL     1      -0.123  -6.795   0.131  0.00  0.00    +0.011 A 
ATOM     13  C   UNL     1       0.090  -6.387  -1.173  0.00  0.00    +0.012 A 
ATOM     14  C   UNL     1      -0.764  -6.801  -2.178  0.00  0.00    +0.050 A 
ATOM     15  C   UNL     1      -1.838  -7.627  -1.882  0.00  0.00    +0.165 A 
ATOM     16  C   UNL     1      -2.055  -8.039  -0.572  0.00  0.00    +0.204 A 
ATOM     17  C   UNL     1      -1.191  -7.625   0.435  0.00  0.00    +0.169 A 
BRANCH  17  18
ATOM     18  O   UNL     1      -1.396  -8.030   1.717  0.00  0.00    -0.491 OA
ATOM     19  C   UNL     1      -2.351  -7.294   2.484  0.00  0.00    +0.277 C 
ENDBRANCH  17  18
BRANCH  16  20
ATOM     20  O   UNL     1      -3.108  -8.849  -0.278  0.00  0.00    -0.488 OA
ATOM     21  C   UNL     1      -2.878 -10.258  -0.338  0.00  0.00    +0.277 C 
ENDBRANCH  16  20
BRANCH  15  22
ATOM     22  O   UNL     1      -2.678  -8.032  -2.871  0.00  0.00    -0.491 OA
ATOM     23  C   UNL     1      -2.394  -7.569  -4.193  0.00  0.00    +0.277 C 
ENDBRANCH  15  22
ENDBRANCH   8  12
BRANCH  10  24
ATOM     24  N   UNL     1       4.407  -6.932   0.364  0.00  0.00    -0.328 N 
ATOM     25  H   UNL     1       4.499  -7.865   0.612  0.00  0.00    +0.145 HD
ATOM     26  H   UNL     1       5.167  -6.449   0.004  0.00  0.00    +0.145 HD
ENDBRANCH  10  24
BRANCH   9  27
ATOM     27  C   UNL     1       2.329  -8.365   1.384  0.00  0.00    +0.101 C 
ATOM     28  N   UNL     1       2.467  -9.456   1.666  0.00  0.00    -0.191 NA
ENDBRANCH   9  27
BRANCH   1  29
ATOM     29  C   UNL     1       1.234  -0.605   1.073  0.00  0.00    +0.074 C 
BRANCH  29  31
ATOM     30  C   UNL     1       0.634   1.449  -0.217  0.00  0.00    +0.004 C 
ATOM     31  C   UNL     1       0.540  -0.077  -0.184  0.00  0.00    +0.004 C 
ENDBRANCH  29  31
ENDBRANCH   1  29
TORSDOF 8
