REMARK  Name = ZINC39530490
REMARK  5 active torsions:
REMARK  status: ('A' for Active; 'I' for Inactive)
REMARK    1  A    between atoms: C_4  and  O_7
REMARK    2  A    between atoms: O_7  and  S_8
REMARK    3  A    between atoms: S_8  and  C_11
REMARK    4  A    between atoms: C_13  and  O_25
REMARK    5  A    between atoms: C_16  and  N_17
REMARK                            x       y       z     vdW  Elec       q    Type
REMARK                         _______ _______ _______ _____ _____    ______ ____
ROOT
ATOM      1  C   UNL     1       3.171  -2.273   1.974  0.00  0.00    +0.152 A 
ATOM      2  C   UNL     1       2.089  -2.014   2.793  0.00  0.00    +0.077 A 
ATOM      3  C   UNL     1       1.365  -3.063   3.338  0.00  0.00    +0.119 A 
ATOM      4  C   UNL     1       1.725  -4.374   3.061  0.00  0.00    +0.047 A 
ATOM      5  C   UNL     1       2.805  -4.634   2.241  0.00  0.00    +0.029 A 
ATOM      6  C   UNL     1       3.528  -3.584   1.690  0.00  0.00    +0.059 A 
ENDROOT
BRANCH   6   7
ATOM      7  N   UNL     1       4.620  -3.847   0.855  0.00  0.00    -0.324 N 
ATOM      8  C   UNL     1       4.470  -3.837  -0.608  0.00  0.00    +0.120 C 
ATOM      9  C   UNL     1       5.051  -5.140  -1.166  0.00  0.00    +0.101 C 
ATOM     10  N   UNL     1       6.429  -5.305  -0.683  0.00  0.00    -0.298 NA
ATOM     11  C   UNL     1       6.469  -5.434   0.779  0.00  0.00    +0.164 C 
ATOM     12  C   UNL     1       5.948  -4.136   1.417  0.00  0.00    +0.140 C 
ATOM     13 CL   UNL     1       8.167  -5.724   1.311  0.00  0.00    -0.103 Cl
ATOM     14  H   UNL     1       6.876  -6.092  -1.128  0.00  0.00    +0.123 HD
ENDBRANCH   6   7
BRANCH   1  15
ATOM     15  S   UNL     1       4.091  -0.939   1.281  0.00  0.00    +0.153 S 
ATOM     16  O   UNL     1       5.422  -1.408   1.115  0.00  0.00    -0.131 OA
ATOM     17  O   UNL     1       3.779   0.213   2.052  0.00  0.00    -0.131 OA
BRANCH  15  18
ATOM     18  O   UNL     1       3.540  -0.690  -0.116  0.00  0.00    -0.342 OA
BRANCH  18  22
ATOM     19  C   UNL     1      -0.111   1.230  -0.164  0.00  0.00    +0.000 A 
ATOM     20  C   UNL     1       1.058   1.969  -0.185  0.00  0.00    +0.004 A 
ATOM     21  C   UNL     1       2.282   1.328  -0.169  0.00  0.00    +0.048 A 
ATOM     22  C   UNL     1       2.338  -0.057  -0.131  0.00  0.00    +0.157 A 
ATOM     23  C   UNL     1       1.164  -0.796  -0.109  0.00  0.00    +0.048 A 
ATOM     24  C   UNL     1      -0.058  -0.151  -0.125  0.00  0.00    +0.004 A 
ENDBRANCH  18  22
ENDBRANCH  15  18
ENDBRANCH   1  15
BRANCH   3  25
ATOM     25  O   UNL     1       0.301  -2.807   4.146  0.00  0.00    -0.507 OA
ATOM     26  H   UNL     1      -0.540  -2.730   3.676  0.00  0.00    +0.292 HD
ENDBRANCH   3  25
TORSDOF 5
