REMARK  Name = ZINC61499414
REMARK  7 active torsions:
REMARK  status: ('A' for Active; 'I' for Inactive)
REMARK    1  A    between atoms: C_1  and  C_2
REMARK    2  A    between atoms: C_7  and  C_8
REMARK    3  A    between atoms: N_10  and  N_11
REMARK    4  A    between atoms: C_12  and  C_14
REMARK    5  A    between atoms: C_14  and  N_22
REMARK    6  A    between atoms: C_15  and  C_16
REMARK    7  A    between atoms: C_23  and  C_25
REMARK                            x       y       z     vdW  Elec       q    Type
REMARK                         _______ _______ _______ _____ _____    ______ ____
ROOT
ATOM      1  N   UNL     1      -0.486   0.090   5.072  0.00  0.00    -0.229 N 
ATOM      2  C   UNL     1      -0.080  -0.613   6.148  0.00  0.00    +0.274 C 
ATOM      3  O   UNL     1      -0.305  -1.806   6.216  0.00  0.00    -0.267 OA
ATOM      4  H   UNL     1      -0.307   1.041   5.018  0.00  0.00    +0.173 HD
ENDROOT
BRANCH   1   7
ATOM      5  C   UNL     1      -1.575   0.147   2.956  0.00  0.00    +0.260 C 
ATOM      6  O   UNL     1      -1.350   1.340   2.888  0.00  0.00    -0.269 OA
ATOM      7  N   UNL     1      -1.169  -0.555   4.032  0.00  0.00    -0.230 N 
ATOM      8  H   UNL     1      -1.348  -1.506   4.086  0.00  0.00    +0.173 HD
BRANCH   5  15
ATOM      9  C   UNL     1      -2.290   1.632   0.577  0.00  0.00    +0.044 C 
ATOM     10  C   UNL     1      -2.645   0.173   0.706  0.00  0.00    -0.038 A 
ATOM     11  C   UNL     1      -3.312  -0.469  -0.317  0.00  0.00    +0.004 A 
ATOM     12  C   UNL     1      -3.639  -1.808  -0.200  0.00  0.00    +0.000 A 
ATOM     13  C   UNL     1      -3.300  -2.513   0.942  0.00  0.00    +0.001 A 
ATOM     14  C   UNL     1      -2.633  -1.883   1.972  0.00  0.00    +0.013 A 
ATOM     15  C   UNL     1      -2.295  -0.533   1.858  0.00  0.00    +0.041 A 
ENDBRANCH   5  15
ENDBRANCH   1   7
BRANCH   2  16
ATOM     16  C   UNL     1       0.636   0.064   7.239  0.00  0.00    +0.098 C 
ATOM     17  C   UNL     1       1.172  -0.661   8.248  0.00  0.00    +0.036 C 
BRANCH  17  18
ATOM     18  C   UNL     1       1.243  -2.127   8.144  0.00  0.00    -0.023 A 
ATOM     19  C   UNL     1       1.720  -2.726   6.974  0.00  0.00    +0.008 A 
ATOM     20  C   UNL     1       1.784  -4.100   6.884  0.00  0.00    +0.001 A 
ATOM     21  C   UNL     1       1.376  -4.886   7.947  0.00  0.00    +0.000 A 
ATOM     22  C   UNL     1       0.903  -4.301   9.109  0.00  0.00    +0.001 A 
ATOM     23  C   UNL     1       0.838  -2.928   9.216  0.00  0.00    +0.008 A 
ENDBRANCH  17  18
BRANCH  16  24
ATOM     24  N   UNL     1       0.763   1.457   7.235  0.00  0.00    -0.282 N 
ATOM     25  C   UNL     1      -0.338   2.234   7.231  0.00  0.00    +0.214 C 
ATOM     26  O   UNL     1      -1.437   1.729   7.325  0.00  0.00    -0.276 OA
ATOM     27  C   UNL     1      -0.204   3.730   7.111  0.00  0.00    +0.109 C 
ATOM     28  H   UNL     1       1.644   1.864   7.235  0.00  0.00    +0.155 HD
ENDBRANCH  16  24
ENDBRANCH   2  16
TORSDOF 5
