REMARK  Name = ZINC36342157
REMARK  13 active torsions:
REMARK  status: ('A' for Active; 'I' for Inactive)
REMARK    1  A    between atoms: C_1  and  C_2
REMARK    2  A    between atoms: C_3  and  C_20
REMARK    3  A    between atoms: C_4  and  O_13
REMARK    4  A    between atoms: N_5  and  C_7
REMARK    5  A    between atoms: O_13  and  C_14
REMARK    6  A    between atoms: C_20  and  N_21
REMARK    7  A    between atoms: N_21  and  C_22
REMARK    8  A    between atoms: N_21  and  C_29
REMARK    9  A    between atoms: C_22  and  C_23
REMARK   10  A    between atoms: C_29  and  C_30
REMARK   11  A    between atoms: C_30  and  C_32
REMARK   12  A    between atoms: C_30  and  O_39
REMARK   13  A    between atoms: C_32  and  N_33
REMARK                            x       y       z     vdW  Elec       q    Type
REMARK                         _______ _______ _______ _____ _____    ______ ____
ROOT
ATOM      1  C   UNL     1       0.839  -0.758  -0.626  0.00  0.00    -0.035 C 
ENDROOT
BRANCH   1   4
ATOM      2  C   UNL     1       2.131   1.296   1.408  0.00  0.00    +0.068 C 
ATOM      3  C   UNL     1       2.420  -0.182   1.342  0.00  0.00    +0.065 A 
ATOM      4  C   UNL     1       1.849  -1.087   0.443  0.00  0.00    +0.021 A 
ATOM      5  C   UNL     1       2.365  -2.318   0.704  0.00  0.00    +0.225 A 
ATOM      6  N   UNL     1       3.237  -2.183   1.740  0.00  0.00    -0.200 N 
ATOM      7  N   UNL     1       3.253  -0.833   2.113  0.00  0.00    -0.168 NA
BRANCH   6   8
ATOM      8  C   UNL     1       3.988  -3.211   2.325  0.00  0.00    +0.069 A 
ATOM      9  C   UNL     1       3.397  -4.438   2.597  0.00  0.00    +0.028 A 
ATOM     10  C   UNL     1       4.140  -5.449   3.174  0.00  0.00    +0.002 A 
ATOM     11  C   UNL     1       5.472  -5.240   3.481  0.00  0.00    +0.000 A 
ATOM     12  C   UNL     1       6.064  -4.020   3.212  0.00  0.00    +0.002 A 
ATOM     13  C   UNL     1       5.328  -3.007   2.629  0.00  0.00    +0.028 A 
ENDBRANCH   6   8
BRANCH   5  14
ATOM     14  O   UNL     1       2.065  -3.469   0.051  0.00  0.00    -0.438 OA
BRANCH  14  15
ATOM     15  C   UNL     1       1.008  -4.198   0.496  0.00  0.00    +0.130 A 
ATOM     16  C   UNL     1       0.271  -3.759   1.586  0.00  0.00    +0.046 A 
ATOM     17  C   UNL     1      -0.803  -4.502   2.037  0.00  0.00    +0.004 A 
ATOM     18  C   UNL     1      -1.143  -5.682   1.402  0.00  0.00    +0.000 A 
ATOM     19  C   UNL     1      -0.410  -6.122   0.316  0.00  0.00    +0.004 A 
ATOM     20  C   UNL     1       0.661  -5.380  -0.143  0.00  0.00    +0.046 A 
ENDBRANCH  14  15
ENDBRANCH   5  14
ENDBRANCH   1   4
BRANCH   1  21
ATOM     21  N   UNL     1       1.527  -0.183  -1.790  0.00  0.00    +0.387 N 
ATOM     22  H   UNL     1       2.197   0.504  -1.478  0.00  0.00    -0.081 HD
BRANCH  21  23
ATOM     23  C   UNL     1       2.222  -1.248  -2.524  0.00  0.00    -0.042 C 
BRANCH  23  24
ATOM     24  C   UNL     1       1.260  -1.912  -3.475  0.00  0.00    -0.064 A 
ATOM     25  C   UNL     1       0.190  -2.636  -2.984  0.00  0.00    +0.002 A 
ATOM     26  C   UNL     1      -0.692  -3.245  -3.857  0.00  0.00    +0.000 A 
ATOM     27  C   UNL     1      -0.504  -3.130  -5.221  0.00  0.00    +0.000 A 
ATOM     28  C   UNL     1       0.566  -2.406  -5.713  0.00  0.00    +0.000 A 
ATOM     29  C   UNL     1       1.445  -1.793  -4.840  0.00  0.00    +0.002 A 
ENDBRANCH  23  24
ENDBRANCH  21  23
BRANCH  21  30
ATOM     30  C   UNL     1       0.543   0.459  -2.672  0.00  0.00    -0.045 C 
BRANCH  30  31
ATOM     31  C   UNL     1       1.234   1.542  -3.503  0.00  0.00    +0.112 C 
BRANCH  31  32
ATOM     32  O   UNL     1       2.304   0.960  -4.250  0.00  0.00    -0.392 OA
ATOM     33  H   UNL     1       2.015   0.327  -4.922  0.00  0.00    +0.210 HD
ENDBRANCH  31  32
BRANCH  31  34
ATOM     34  C   UNL     1       0.223   2.171  -4.464  0.00  0.00    +0.114 C 
BRANCH  34  35
ATOM     35  N   UNL     1       0.886   3.211  -5.262  0.00  0.00    -0.296 NA
ATOM     36  C   UNL     1       1.302   4.339  -4.415  0.00  0.00    +0.112 C 
ATOM     37  C   UNL     1       2.039   5.369  -5.274  0.00  0.00    +0.175 C 
ATOM     38  O   UNL     1       1.190   5.782  -6.348  0.00  0.00    -0.377 OA
ATOM     39  C   UNL     1       0.767   4.709  -7.193  0.00  0.00    +0.175 C 
ATOM     40  C   UNL     1       0.017   3.671  -6.354  0.00  0.00    +0.112 C 
ENDBRANCH  34  35
ENDBRANCH  31  34
ENDBRANCH  30  31
ENDBRANCH  21  30
ENDBRANCH   1  21
TORSDOF 12
