REMARK  Name = ZINC67286453
REMARK  14 active torsions:
REMARK  status: ('A' for Active; 'I' for Inactive)
REMARK    1  A    between atoms: C_1  and  C_2
REMARK    2  A    between atoms: C_2  and  O_3
REMARK    3  A    between atoms: O_3  and  C_4
REMARK    4  A    between atoms: C_4  and  C_6
REMARK    5  A    between atoms: C_7  and  C_26
REMARK    6  A    between atoms: C_12  and  C_14
REMARK    7  A    between atoms: C_17  and  O_24
REMARK    8  A    between atoms: C_18  and  O_22
REMARK    9  A    between atoms: C_19  and  O_20
REMARK   10  A    between atoms: O_20  and  C_21
REMARK   11  A    between atoms: O_22  and  C_23
REMARK   12  A    between atoms: O_24  and  C_25
REMARK   13  A    between atoms: C_26  and  N_27
REMARK   14  A    between atoms: C_30  and  C_33
REMARK                            x       y       z     vdW  Elec       q    Type
REMARK                         _______ _______ _______ _____ _____    ______ ____
ROOT
ATOM      1  C   UNL     1       1.171  -2.509  -2.330  0.00  0.00    +0.079 C 
ATOM      2  C   UNL     1       1.343  -3.848  -2.359  0.00  0.00    +0.038 C 
ATOM      3  N   UNL     1       2.088  -4.443  -3.337  0.00  0.00    -0.271 N 
ATOM      4  C   UNL     1       2.695  -3.768  -4.321  0.00  0.00    +0.304 C 
ATOM      5  O   UNL     1       3.338  -4.386  -5.147  0.00  0.00    -0.252 OA
ATOM      6  N   UNL     1       2.616  -2.427  -4.426  0.00  0.00    -0.288 N 
ATOM      7  C   UNL     1       1.829  -1.690  -3.423  0.00  0.00    +0.147 C 
ATOM      8  H   UNL     1       2.183  -5.408  -3.317  0.00  0.00    +0.156 HD
ATOM      9  H   UNL     1       3.064  -1.958  -5.147  0.00  0.00    +0.151 HD
ENDROOT
BRANCH   7  10
ATOM     10  C   UNL     1       0.750  -0.924  -4.143  0.00  0.00    +0.023 A 
ATOM     11  C   UNL     1       0.160  -1.460  -5.273  0.00  0.00    +0.013 A 
ATOM     12  C   UNL     1      -0.831  -0.761  -5.937  0.00  0.00    +0.050 A 
ATOM     13  C   UNL     1      -1.236   0.481  -5.472  0.00  0.00    +0.165 A 
ATOM     14  C   UNL     1      -0.646   1.023  -4.337  0.00  0.00    +0.204 A 
ATOM     15  C   UNL     1       0.346   0.315  -3.669  0.00  0.00    +0.170 A 
BRANCH  15  16
ATOM     16  O   UNL     1       0.923   0.838  -2.554  0.00  0.00    -0.491 OA
ATOM     17  C   UNL     1       2.082   1.652  -2.745  0.00  0.00    +0.277 C 
ENDBRANCH  15  16
BRANCH  14  18
ATOM     18  O   UNL     1      -1.041   2.242  -3.877  0.00  0.00    -0.488 OA
ATOM     19  C   UNL     1      -2.038   2.257  -2.854  0.00  0.00    +0.277 C 
ENDBRANCH  14  18
BRANCH  13  20
ATOM     20  O   UNL     1      -2.210   1.169  -6.127  0.00  0.00    -0.491 OA
ATOM     21  C   UNL     1      -2.772   0.551  -7.287  0.00  0.00    +0.277 C 
ENDBRANCH  13  20
ENDBRANCH   7  10
BRANCH   1  22
ATOM     22  C   UNL     1       0.399  -1.892  -1.319  0.00  0.00    +0.339 C 
ATOM     23  O   UNL     1       0.949  -1.362  -0.372  0.00  0.00    -0.245 OA
BRANCH  22  24
ATOM     24  O   UNL     1      -0.948  -1.892  -1.404  0.00  0.00    -0.462 OA
BRANCH  24  26
ATOM     25  C   UNL     1      -3.164  -1.371  -0.592  0.00  0.00    +0.048 C 
ATOM     26  C   UNL     1      -1.660  -1.156  -0.407  0.00  0.00    +0.229 C 
ENDBRANCH  24  26
ENDBRANCH  22  24
ENDBRANCH   1  22
BRANCH   2  27
ATOM     27  C   UNL     1       0.701  -4.700  -1.294  0.00  0.00    +0.135 C 
BRANCH  27  28
ATOM     28  N   UNL     1       1.746  -5.357  -0.498  0.00  0.00    -0.297 NA
ATOM     29  C   UNL     1       2.442  -4.389   0.359  0.00  0.00    +0.085 C 
ATOM     30  C   UNL     1       3.614  -5.077   1.063  0.00  0.00    +0.018 C 
ATOM     31  C   UNL     1       3.084  -6.243   1.903  0.00  0.00    -0.012 C 
ATOM     32  C   UNL     1       2.323  -7.212   0.995  0.00  0.00    +0.018 C 
ATOM     33  C   UNL     1       1.188  -6.462   0.293  0.00  0.00    +0.085 C 
ATOM     34  C   UNL     1       4.257  -6.973   2.561  0.00  0.00    +0.007 C 
ENDBRANCH  27  28
ENDBRANCH   2  27
TORSDOF 9
