REMARK  Name = ZINC38980006
REMARK  3 active torsions:
REMARK  status: ('A' for Active; 'I' for Inactive)
REMARK    1  A    between atoms: C_4  and  C_8
REMARK    2  A    between atoms: N_9  and  N_10
REMARK    3  A    between atoms: C_11  and  C_17
REMARK                            x       y       z     vdW  Elec       q    Type
REMARK                         _______ _______ _______ _____ _____    ______ ____
ROOT
ATOM      1  N   UNL     1       4.934  -2.663  -0.166  0.00  0.00    -0.175 N 
ATOM      2  C   UNL     1       5.120  -4.117  -0.299  0.00  0.00    +0.230 C 
ATOM      3  N   UNL     1       6.581  -4.280  -0.391  0.00  0.00    -0.242 N 
ATOM      4  N   UNL     1       7.122  -2.991  -0.310  0.00  0.00    -0.160 NA
ATOM      5  C   UNL     1       6.198  -2.098  -0.190  0.00  0.00    +0.206 C 
ATOM      6  S   UNL     1       6.509  -0.368  -0.069  0.00  0.00    -0.011 SA
ATOM      7  H   UNL     1       7.070  -5.113  -0.487  0.00  0.00    +0.170 HD
ENDROOT
BRANCH   2   8
ATOM      8  C   UNL     1       4.439  -4.632  -1.569  0.00  0.00    +0.197 C 
ATOM      9  C   UNL     1       4.575  -6.137  -1.680  0.00  0.00    -0.017 C 
ATOM     10  C   UNL     1       3.324  -6.593  -1.657  0.00  0.00    +0.065 C 
ATOM     11  C   UNL     1       3.327  -8.107  -1.760  0.00  0.00    +0.057 C 
ATOM     12  C   UNL     1       4.734  -8.473  -2.281  0.00  0.00    +0.011 C 
ATOM     13  C   UNL     1       5.568  -7.263  -1.802  0.00  0.00    +0.035 C 
ATOM     14  N   UNL     1       2.454  -5.553  -1.548  0.00  0.00    -0.158 NA
ATOM     15  N   UNL     1       2.981  -4.436  -1.496  0.00  0.00    -0.176 NA
ENDBRANCH   2   8
BRANCH   1  17
ATOM     16  C   UNL     1       3.705  -0.704   0.181  0.00  0.00    +0.142 C 
ATOM     17  N   UNL     1       3.715  -1.982  -0.045  0.00  0.00    -0.184 NA
BRANCH  16  21
ATOM     18  C   UNL     1       0.036   1.433   0.127  0.00  0.00    +0.004 A 
ATOM     19  C   UNL     1       1.218   2.104   0.386  0.00  0.00    +0.039 A 
ATOM     20  C   UNL     1       2.416   1.416   0.405  0.00  0.00    +0.133 A 
ATOM     21  C   UNL     1       2.431   0.038   0.163  0.00  0.00    +0.048 A 
ATOM     22  C   UNL     1       1.232  -0.631  -0.098  0.00  0.00    +0.052 A 
ATOM     23  C   UNL     1       0.043   0.071  -0.113  0.00  0.00    +0.021 A 
ATOM     24 CL   UNL     1       1.238  -2.341  -0.401  0.00  0.00    -0.083 Cl
ATOM     25  F   UNL     1       3.570   2.072   0.658  0.00  0.00    -0.205 F 
ENDBRANCH  16  21
ENDBRANCH   1  17
TORSDOF 3
