REMARK  Name = ZINC40124534
REMARK  6 active torsions:
REMARK  status: ('A' for Active; 'I' for Inactive)
REMARK    1  A    between atoms: C_4  and  C_7
REMARK    2  A    between atoms: C_7  and  O_8
REMARK    3  A    between atoms: O_8  and  C_9
REMARK    4  A    between atoms: C_12  and  C_15
REMARK    5  A    between atoms: C_17  and  C_23
REMARK    6  A    between atoms: C_23  and  C_25
REMARK                            x       y       z     vdW  Elec       q    Type
REMARK                         _______ _______ _______ _____ _____    ______ ____
ROOT
ATOM      1  C   UNL     1       8.983  -3.659   1.971  0.00  0.00    +0.142 C 
ATOM      2  C   UNL     1       8.758  -5.086   2.412  0.00  0.00    +0.076 C 
ATOM      3  C   UNL     1       9.368  -5.226   3.612  0.00  0.00    +0.249 C 
ATOM      4  C   UNL     1       9.995  -3.941   3.990  0.00  0.00    +0.285 C 
ATOM      5  O   UNL     1      10.620  -3.745   5.013  0.00  0.00    -0.267 OA
ATOM      6  N   UNL     1       9.772  -3.021   3.031  0.00  0.00    -0.298 N 
ATOM      7  O   UNL     1       9.400  -6.360   4.348  0.00  0.00    -0.282 OA
ATOM      8  H   UNL     1      10.078  -2.101   3.040  0.00  0.00    +0.150 HD
ENDROOT
BRANCH   1  12
ATOM      9  C   UNL     1       5.237  -1.653   1.520  0.00  0.00    +0.121 A 
ATOM     10  C   UNL     1       5.959  -2.036   0.399  0.00  0.00    +0.046 A 
ATOM     11  C   UNL     1       7.170  -2.684   0.548  0.00  0.00    +0.009 A 
ATOM     12  C   UNL     1       7.662  -2.951   1.812  0.00  0.00    -0.022 A 
ATOM     13  C   UNL     1       6.943  -2.571   2.930  0.00  0.00    +0.009 A 
ATOM     14  C   UNL     1       5.735  -1.917   2.787  0.00  0.00    +0.046 A 
BRANCH   9  15
ATOM     15  O   UNL     1       4.045  -1.015   1.376  0.00  0.00    -0.487 OA
BRANCH  15  16
ATOM     16  C   UNL     1       3.594  -0.776   0.042  0.00  0.00    +0.264 C 
BRANCH  16  20
ATOM     17  C   UNL     1      -0.170   1.242   0.149  0.00  0.00    +0.000 A 
ATOM     18  C   UNL     1       1.005   1.971   0.130  0.00  0.00    +0.000 A 
ATOM     19  C   UNL     1       2.223   1.318   0.096  0.00  0.00    +0.007 A 
ATOM     20  C   UNL     1       2.266  -0.064   0.080  0.00  0.00    -0.010 A 
ATOM     21  C   UNL     1       1.092  -0.792   0.100  0.00  0.00    +0.007 A 
ATOM     22  C   UNL     1      -0.126  -0.140   0.133  0.00  0.00    +0.000 A 
ENDBRANCH  16  20
ENDBRANCH  15  16
ENDBRANCH   9  15
ENDBRANCH   1  12
BRANCH   2  23
ATOM     23  C   UNL     1       8.019  -6.121   1.682  0.00  0.00    +0.195 C 
ATOM     24  O   UNL     1       6.983  -6.567   2.139  0.00  0.00    -0.287 OA
BRANCH  23  25
ATOM     25  C   UNL     1       8.532  -6.623   0.392  0.00  0.00    +0.026 A 
ATOM     26  C   UNL     1       9.782  -6.205  -0.076  0.00  0.00    +0.015 A 
ATOM     27  C   UNL     1      10.257  -6.674  -1.280  0.00  0.00    +0.050 A 
ATOM     28  C   UNL     1       9.499  -7.563  -2.035  0.00  0.00    +0.162 A 
ATOM     29  C   UNL     1       8.254  -7.984  -1.573  0.00  0.00    +0.163 A 
ATOM     30  C   UNL     1       7.772  -7.521  -0.363  0.00  0.00    +0.061 A 
ATOM     31  O   UNL     1       7.503  -8.860  -2.297  0.00  0.00    -0.485 OA
ATOM     32  C   UNL     1       7.853  -9.020  -3.676  0.00  0.00    +0.270 C 
ATOM     33  C   UNL     1       9.376  -9.183  -3.769  0.00  0.00    +0.270 C 
ATOM     34  O   UNL     1       9.987  -8.009  -3.222  0.00  0.00    -0.485 OA
ENDBRANCH  23  25
ENDBRANCH   2  23
TORSDOF 6
