REMARK  Name = ZINC08328783
REMARK  5 active torsions:
REMARK  status: ('A' for Active; 'I' for Inactive)
REMARK    1  A    between atoms: C_1  and  C_2
REMARK    2  A    between atoms: C_11  and  C_12
REMARK    3  A    between atoms: C_11  and  N_47
REMARK    4  A    between atoms: N_14  and  C_15
REMARK    5  A    between atoms: C_16  and  C_23
REMARK                            x       y       z     vdW  Elec       q    Type
REMARK                         _______ _______ _______ _____ _____    ______ ____
ROOT
ATOM      1  C   UNL     1       1.152   2.089  -0.213  0.00  0.00    +0.201 C 
ATOM      2  O   UNL     1       2.212   1.523  -0.377  0.00  0.00    -0.278 OA
ATOM      3  N   UNL     1       0.003   1.386  -0.232  0.00  0.00    -0.281 N 
ATOM      4  H   UNL     1      -0.846   1.839  -0.105  0.00  0.00    +0.155 HD
ENDROOT
BRANCH   3   5
ATOM      5  C   UNL     1       0.032   0.015  -0.438  0.00  0.00    +0.084 A 
ATOM      6  C   UNL     1      -1.032  -0.870  -0.490  0.00  0.00    +0.068 A 
ATOM      7  C   UNL     1      -0.728  -2.281  -0.723  0.00  0.00    -0.023 A 
ATOM      8  C   UNL     1       0.579  -2.568  -0.865  0.00  0.00    -0.004 A 
ATOM      9  S   UNL     1       1.405  -1.004  -0.700  0.00  0.00    -0.077 S 
ATOM     10  C   UNL     1       0.812  -4.035  -1.105  0.00  0.00    +0.043 C 
ATOM     11  C   UNL     1      -0.570  -4.585  -1.524  0.00  0.00    +0.010 C 
ATOM     12  C   UNL     1      -1.525  -3.580  -0.851  0.00  0.00    +0.037 C 
BRANCH   6  13
ATOM     13  C   UNL     1      -2.413  -0.409  -0.319  0.00  0.00    +0.244 C 
ATOM     14  O   UNL     1      -3.064  -0.062  -1.287  0.00  0.00    -0.270 OA
ATOM     15  N   UNL     1      -2.962  -0.368   0.911  0.00  0.00    -0.325 N 
ATOM     16  H   UNL     1      -2.444  -0.644   1.683  0.00  0.00    +0.145 HD
ATOM     17  H   UNL     1      -3.876  -0.063   1.025  0.00  0.00    +0.145 HD
ENDBRANCH   6  13
ENDBRANCH   3   5
BRANCH   1  18
ATOM     18  C   UNL     1       1.121   3.579   0.011  0.00  0.00    +0.020 C 
BRANCH  18  28
ATOM     19  C   UNL     1       2.580   4.852  -2.212  0.00  0.00    -0.007 C 
ATOM     20  C   UNL     1       3.215   3.944  -1.157  0.00  0.00    -0.023 C 
ATOM     21  C   UNL     1       4.651   4.349  -0.931  0.00  0.00    +0.005 A 
ATOM     22  C   UNL     1       5.582   4.647  -1.849  0.00  0.00    +0.021 A 
ATOM     23  C   UNL     1       6.769   4.968  -1.155  0.00  0.00    +0.019 A 
ATOM     24  C   UNL     1       6.511   4.851   0.166  0.00  0.00    +0.086 A 
ATOM     25  N   UNL     1       5.216   4.470   0.312  0.00  0.00    -0.354 N 
ATOM     26  C   UNL     1       4.484   4.212   1.558  0.00  0.00    +0.103 C 
ATOM     27  C   UNL     1       3.216   3.420   1.214  0.00  0.00    -0.055 C 
ATOM     28  N   UNL     1       2.493   4.116   0.127  0.00  0.00    +0.392 N 
ATOM     29  H   UNL     1       2.441   5.117   0.349  0.00  0.00    -0.080 HD
ENDBRANCH  18  28
ENDBRANCH   1  18
TORSDOF 4
