REMARK  Name = ZINC21735052
REMARK  7 active torsions:
REMARK  status: ('A' for Active; 'I' for Inactive)
REMARK    1  A    between atoms: C_1  and  C_2
REMARK    2  A    between atoms: C_2  and  C_4
REMARK    3  A    between atoms: C_2  and  O_18
REMARK    4  A    between atoms: N_6  and  C_7
REMARK    5  A    between atoms: C_8  and  C_15
REMARK    6  A    between atoms: O_18  and  C_19
REMARK    7  A    between atoms: C_19  and  C_21
REMARK                            x       y       z     vdW  Elec       q    Type
REMARK                         _______ _______ _______ _____ _____    ______ ____
ROOT
ATOM      1  C   UNL     1       1.401   1.607  -0.003  0.00  0.00    +0.258 C 
ATOM      2  O   UNL     1       1.797   2.305   0.907  0.00  0.00    -0.271 OA
ATOM      3  N   UNL     1       2.226   1.299  -1.023  0.00  0.00    -0.276 N 
ATOM      4  H   UNL     1       1.867   0.666  -1.848  0.00  0.00    +0.155 HD
ENDROOT
BRANCH   3   5
ATOM      5  C   UNL     1       3.526   1.779  -1.033  0.00  0.00    +0.084 A 
ATOM      6  C   UNL     1       4.514   1.568  -1.980  0.00  0.00    +0.068 A 
ATOM      7  C   UNL     1       5.815   2.197  -1.754  0.00  0.00    -0.023 A 
ATOM      8  C   UNL     1       5.911   2.918  -0.622  0.00  0.00    -0.004 A 
ATOM      9  S   UNL     1       4.312   2.780   0.140  0.00  0.00    -0.077 S 
ATOM     10  C   UNL     1       7.276   3.530  -0.458  0.00  0.00    +0.043 C 
ATOM     11  C   UNL     1       7.908   3.454  -1.865  0.00  0.00    +0.010 C 
ATOM     12  C   UNL     1       7.158   2.257  -2.482  0.00  0.00    +0.037 C 
BRANCH   6  13
ATOM     13  C   UNL     1       4.264   0.747  -3.169  0.00  0.00    +0.244 C 
ATOM     14  O   UNL     1       3.840   1.263  -4.187  0.00  0.00    -0.270 OA
ATOM     15  N   UNL     1       4.503  -0.579  -3.135  0.00  0.00    -0.325 N 
ATOM     16  H   UNL     1       4.315  -1.194  -4.027  0.00  0.00    +0.145 HD
ATOM     17  H   UNL     1       4.885  -1.045  -2.215  0.00  0.00    +0.145 HD
ENDBRANCH   6  13
ENDBRANCH   3   5
BRANCH   1  19
ATOM     18  C   UNL     1      -0.753   1.593  -1.232  0.00  0.00    +0.062 C 
ATOM     19  C   UNL     1      -0.013   1.086   0.008  0.00  0.00    +0.259 C 
BRANCH  19  20
ATOM     20  O   UNL     1      -0.682   1.547   1.184  0.00  0.00    -0.449 OA
BRANCH  20  21
ATOM     21  C   UNL     1      -1.649   0.753   1.689  0.00  0.00    +0.339 C 
ATOM     22  O   UNL     1      -1.917  -0.301   1.145  0.00  0.00    -0.245 OA
BRANCH  21  23
ATOM     23  C   UNL     1      -2.354   1.149   2.854  0.00  0.00    +0.074 C 
ATOM     24  C   UNL     1      -3.326   0.353   3.362  0.00  0.00    +0.025 C 
ATOM     25  C   UNL     1      -4.066   0.828   4.540  0.00  0.00    +0.019 A 
ATOM     26  C   UNL     1      -4.897  -0.022   5.270  0.00  0.00    +0.031 A 
ATOM     27  C   UNL     1      -5.563   0.464   6.378  0.00  0.00    +0.042 A 
ATOM     28  C   UNL     1      -5.413   1.788   6.759  0.00  0.00    +0.023 A 
ATOM     29  C   UNL     1      -4.609   2.644   6.030  0.00  0.00    +0.048 A 
ATOM     30  C   UNL     1      -3.942   2.178   4.911  0.00  0.00    +0.128 A 
ATOM     31  O   UNL     1      -3.184   3.006   4.150  0.00  0.00    -0.487 OA
ATOM     32  C   UNL     1      -2.019   2.451   3.532  0.00  0.00    +0.271 C 
ATOM     33 CL   UNL     1      -6.591  -0.590   7.298  0.00  0.00    -0.084 Cl
ENDBRANCH  21  23
ENDBRANCH  20  21
ENDBRANCH  19  20
ENDBRANCH   1  19
TORSDOF 6
