REMARK  Name = ZINC01913274
REMARK  11 active torsions:
REMARK  status: ('A' for Active; 'I' for Inactive)
REMARK    1  A    between atoms: C_1  and  C_2
REMARK    2  A    between atoms: C_2  and  N_59
REMARK    3  A    between atoms: C_3  and  C_4
REMARK    4  A    between atoms: C_3  and  N_59
REMARK    5  A    between atoms: C_10  and  C_11
REMARK    6  A    between atoms: C_10  and  N_59
REMARK    7  A    between atoms: C_12  and  O_34
REMARK    8  A    between atoms: C_18  and  C_30
REMARK    9  A    between atoms: C_19  and  O_22
REMARK   10  A    between atoms: O_22  and  C_23
REMARK   11  A    between atoms: C_27  and  C_29
REMARK                            x       y       z     vdW  Elec       q    Type
REMARK                         _______ _______ _______ _____ _____    ______ ____
ROOT
ATOM      1  C   UNL     1      -6.944   0.871   0.282  0.00  0.00    +0.020 A 
ATOM      2  C   UNL     1      -7.550   0.485  -0.902  0.00  0.00    +0.122 A 
ATOM      3  C   UNL     1      -7.023   0.882  -2.129  0.00  0.00    +0.046 A 
ATOM      4  C   UNL     1      -5.901   1.659  -2.181  0.00  0.00    +0.019 A 
ATOM      5  C   UNL     1      -5.279   2.055  -0.997  0.00  0.00    +0.068 A 
ATOM      6  C   UNL     1      -5.802   1.659   0.247  0.00  0.00    +0.144 A 
ATOM      7  O   UNL     1      -5.193   2.049   1.385  0.00  0.00    -0.447 OA
ATOM      8  C   UNL     1      -4.090   2.810   1.384  0.00  0.00    +0.254 A 
ATOM      9  C   UNL     1      -3.505   3.245   0.251  0.00  0.00    +0.222 A 
ATOM     10  C   UNL     1      -4.070   2.897  -1.009  0.00  0.00    +0.235 A 
ATOM     11  O   UNL     1      -3.571   3.277  -2.055  0.00  0.00    -0.283 OA
ENDROOT
BRANCH   8  12
ATOM     12  C   UNL     1      -3.478   3.195   2.707  0.00  0.00    +0.454 C 
ATOM     13  F   UNL     1      -4.038   4.400   3.146  0.00  0.00    -0.163 F 
ATOM     14  F   UNL     1      -3.733   2.192   3.648  0.00  0.00    -0.163 F 
ATOM     15  F   UNL     1      -2.097   3.351   2.553  0.00  0.00    -0.163 F 
ENDBRANCH   8  12
BRANCH   2  16
ATOM     16  O   UNL     1      -8.666  -0.286  -0.866  0.00  0.00    -0.506 OA
ATOM     17  H   UNL     1      -9.492   0.214  -0.922  0.00  0.00    +0.292 HD
ENDBRANCH   2  16
BRANCH   1  18
ATOM     18  C   UNL     1      -7.522   0.436   1.605  0.00  0.00    -0.035 C 
BRANCH  18  19
ATOM     19  N   UNL     1      -8.348   1.536   2.145  0.00  0.00    +0.385 N 
ATOM     20  H   UNL     1      -7.857   2.425   1.998  0.00  0.00    -0.081 HD
BRANCH  19  22
ATOM     21  C   UNL     1     -10.447   0.305   1.707  0.00  0.00    -0.017 C 
ATOM     22  C   UNL     1      -9.648   1.583   1.443  0.00  0.00    -0.081 C 
ENDBRANCH  19  22
BRANCH  19  23
ATOM     23  C   UNL     1      -8.563   1.341   3.594  0.00  0.00    -0.043 C 
BRANCH  23  24
ATOM     24  C   UNL     1      -9.079   2.628   4.185  0.00  0.00    -0.064 A 
ATOM     25  C   UNL     1      -8.194   3.627   4.545  0.00  0.00    +0.002 A 
ATOM     26  C   UNL     1      -8.667   4.809   5.082  0.00  0.00    +0.000 A 
ATOM     27  C   UNL     1     -10.025   4.989   5.268  0.00  0.00    +0.000 A 
ATOM     28  C   UNL     1     -10.910   3.988   4.913  0.00  0.00    +0.000 A 
ATOM     29  C   UNL     1     -10.437   2.807   4.371  0.00  0.00    +0.002 A 
ENDBRANCH  23  24
ENDBRANCH  19  23
ENDBRANCH  18  19
ENDBRANCH   1  18
BRANCH   9  30
ATOM     30  O   UNL     1      -2.385   4.016   0.310  0.00  0.00    -0.448 OA
BRANCH  30  31
ATOM     31  C   UNL     1      -1.179   3.391   0.311  0.00  0.00    +0.129 A 
ATOM     32  C   UNL     1      -1.114   2.006   0.247  0.00  0.00    +0.046 A 
ATOM     33  C   UNL     1       0.113   1.373   0.253  0.00  0.00    +0.004 A 
ATOM     34  C   UNL     1       1.277   2.118   0.313  0.00  0.00    +0.003 A 
ATOM     35  C   UNL     1       1.215   3.497   0.371  0.00  0.00    -0.047 A 
ATOM     36  C   UNL     1      -0.010   4.136   0.370  0.00  0.00    +0.049 A 
ATOM     37  C   UNL     1       2.485   4.306   0.436  0.00  0.00    +0.044 C 
ENDBRANCH  30  31
ENDBRANCH   9  30
TORSDOF 9
