REMARK  Name = ZINC08991698
REMARK  6 active torsions:
REMARK  status: ('A' for Active; 'I' for Inactive)
REMARK    1  A    between atoms: C_6  and  C_7
REMARK    2  A    between atoms: C_7  and  N_8
REMARK    3  A    between atoms: C_11  and  C_16
REMARK    4  A    between atoms: C_14  and  O_15
REMARK    5  A    between atoms: C_16  and  C_17
REMARK    6  A    between atoms: C_17  and  C_18
REMARK                            x       y       z     vdW  Elec       q    Type
REMARK                         _______ _______ _______ _____ _____    ______ ____
ROOT
ATOM      1  N   UNL     1      -1.727  -1.016  -1.368  0.00  0.00    -0.220 N 
ATOM      2  C   UNL     1      -2.516  -0.185  -2.082  0.00  0.00    +0.248 C 
ATOM      3  O   UNL     1      -2.991   0.871  -1.724  0.00  0.00    -0.273 OA
ATOM      4  C   UNL     1      -2.680  -0.861  -3.430  0.00  0.00    +0.197 C 
ATOM      5  N   UNL     1      -1.894  -2.098  -3.302  0.00  0.00    -0.224 NA
ATOM      6  C   UNL     1      -1.381  -2.114  -2.113  0.00  0.00    +0.285 C 
ENDROOT
BRANCH   6   7
ATOM      7  O   UNL     1      -0.592  -3.110  -1.654  0.00  0.00    -0.481 OA
ATOM      8  H   UNL     1      -0.437  -3.817  -2.295  0.00  0.00    +0.295 HD
ENDBRANCH   6   7
BRANCH   1   9
ATOM      9  C   UNL     1      -1.294  -0.774   0.010  0.00  0.00    +0.153 C 
BRANCH   9  15
ATOM     10  C   UNL     1      -0.017   1.378   0.010  0.00  0.00    +0.009 A 
ATOM     11  C   UNL     1       1.170   2.088   0.002  0.00  0.00    +0.050 A 
ATOM     12  C   UNL     1       2.380   1.416  -0.013  0.00  0.00    +0.166 A 
ATOM     13  C   UNL     1       2.399   0.023  -0.021  0.00  0.00    +0.167 A 
ATOM     14  C   UNL     1       1.207  -0.682  -0.014  0.00  0.00    +0.054 A 
ATOM     15  C   UNL     1       0.002  -0.004   0.002  0.00  0.00    -0.026 A 
ATOM     16  O   UNL     1       3.698  -0.395  -0.036  0.00  0.00    -0.453 OA
ATOM     17  C   UNL     1       4.466   0.750  -0.450  0.00  0.00    +0.466 C 
ATOM     18  O   UNL     1       3.668   1.870  -0.024  0.00  0.00    -0.453 OA
ENDBRANCH   9  15
ENDBRANCH   1   9
BRANCH   4  19
ATOM     19  C   UNL     1      -4.152  -1.180  -3.695  0.00  0.00    +0.045 C 
BRANCH  19  20
ATOM     20  C   UNL     1      -4.305  -1.746  -5.108  0.00  0.00    +0.098 C 
BRANCH  20  21
ATOM     21  C   UNL     1      -5.756  -2.061  -5.369  0.00  0.00    +0.216 C 
ATOM     22  O   UNL     1      -6.585  -1.854  -4.509  0.00  0.00    -0.276 OA
ATOM     23  N   UNL     1      -6.131  -2.572  -6.558  0.00  0.00    -0.301 N 
ATOM     24  C   UNL     1      -5.117  -2.813  -7.560  0.00  0.00    +0.108 C 
ATOM     25  C   UNL     1      -4.933  -1.544  -8.428  0.00  0.00    +0.019 C 
ATOM     26  C   UNL     1      -6.100  -1.349  -9.302  0.00  0.00    +0.002 C 
ATOM     27  C   UNL     1      -7.410  -1.110  -8.556  0.00  0.00    +0.002 C 
ATOM     28  C   UNL     1      -8.025  -2.438  -8.188  0.00  0.00    +0.019 C 
ATOM     29  C   UNL     1      -7.559  -2.870  -6.781  0.00  0.00    +0.108 C 
ENDBRANCH  20  21
ENDBRANCH  19  20
ENDBRANCH   4  19
TORSDOF 6
