REMARK  Name = ZINC14476951
REMARK  2 active torsions:
REMARK  status: ('A' for Active; 'I' for Inactive)
REMARK    1  A    between atoms: C_5  and  O_7
REMARK    2  A    between atoms: C_9  and  C_18
REMARK                            x       y       z     vdW  Elec       q    Type
REMARK                         _______ _______ _______ _____ _____    ______ ____
ROOT
ATOM      1  C   UNL     1      -4.478   4.952  -1.359  0.00  0.00    +0.004 A 
ATOM      2  C   UNL     1      -3.241   4.565  -0.885  0.00  0.00    +0.006 A 
ATOM      3  C   UNL     1      -2.707   3.326  -1.221  0.00  0.00    -0.016 A 
ATOM      4  C   UNL     1      -3.427   2.477  -2.040  0.00  0.00    +0.073 A 
ATOM      5  C   UNL     1      -4.681   2.870  -2.518  0.00  0.00    +0.138 A 
ATOM      6  C   UNL     1      -5.202   4.105  -2.177  0.00  0.00    +0.047 A 
ATOM      7  N   UNL     1      -2.945   1.222  -2.419  0.00  0.00    -0.334 N 
ATOM      8  C   UNL     1      -1.984   0.667  -1.460  0.00  0.00    +0.106 C 
ATOM      9  C   UNL     1      -0.828   1.653  -1.276  0.00  0.00    +0.029 C 
ATOM     10  C   UNL     1      -1.359   2.969  -0.669  0.00  0.00    +0.049 C 
ATOM     11  C   UNL     1      -1.448   2.683   0.813  0.00  0.00    -0.023 C 
ATOM     12  C   UNL     1      -0.673   1.674   1.134  0.00  0.00    -0.030 C 
ATOM     13  C   UNL     1       0.045   1.148  -0.093  0.00  0.00    +0.033 C 
ATOM     14  H   UNL     1      -2.539   1.254  -3.342  0.00  0.00    +0.147 HD
ENDROOT
BRANCH   8  15
ATOM     15  C   UNL     1      -1.447  -0.649  -1.961  0.00  0.00    -0.007 A 
ATOM     16  C   UNL     1      -0.179  -0.715  -2.509  0.00  0.00    +0.007 A 
ATOM     17  C   UNL     1       0.316  -1.923  -2.963  0.00  0.00    +0.002 A 
ATOM     18  C   UNL     1      -0.460  -3.064  -2.881  0.00  0.00    +0.021 A 
ATOM     19  C   UNL     1      -1.731  -2.998  -2.338  0.00  0.00    +0.060 A 
ATOM     20  C   UNL     1      -2.225  -1.789  -1.878  0.00  0.00    +0.064 A 
ATOM     21 CL   UNL     1      -3.820  -1.705  -1.197  0.00  0.00    -0.082 Cl
ATOM     22 CL   UNL     1      -2.706  -4.431  -2.234  0.00  0.00    -0.082 Cl
ENDBRANCH   8  15
BRANCH   5  23
ATOM     23  O   UNL     1      -5.391   2.035  -3.324  0.00  0.00    -0.505 OA
ATOM     24  H   UNL     1      -5.212   2.152  -4.267  0.00  0.00    +0.292 HD
ENDBRANCH   5  23
TORSDOF 2
