REMARK  Name = ZINC39960580
REMARK  9 active torsions:
REMARK  status: ('A' for Active; 'I' for Inactive)
REMARK    1  A    between atoms: C_1  and  C_2
REMARK    2  A    between atoms: C_2  and  O_3
REMARK    3  A    between atoms: O_3  and  C_4
REMARK    4  A    between atoms: C_4  and  C_6
REMARK    5  A    between atoms: C_8  and  N_18
REMARK    6  A    between atoms: N_15  and  C_17
REMARK    7  A    between atoms: C_19  and  C_21
REMARK    8  A    between atoms: C_21  and  S_22
REMARK    9  A    between atoms: S_22  and  C_23
REMARK                            x       y       z     vdW  Elec       q    Type
REMARK                         _______ _______ _______ _____ _____    ______ ____
ROOT
ATOM      1  N   UNL     1       3.078  -0.681  -3.456  0.00  0.00    -0.301 N 
ATOM      2  C   UNL     1       3.789   0.387  -3.045  0.00  0.00    +0.224 C 
ATOM      3  O   UNL     1       4.307   0.385  -1.948  0.00  0.00    -0.275 OA
ATOM      4  H   UNL     1       2.663  -0.679  -4.333  0.00  0.00    +0.150 HD
ENDROOT
BRANCH   1   6
ATOM      5  C   UNL     1       1.468  -2.353  -2.550  0.00  0.00    +0.155 C 
ATOM      6  C   UNL     1       2.930  -1.845  -2.578  0.00  0.00    +0.153 C 
ATOM      7  S   UNL     1       3.735  -3.340  -3.295  0.00  0.00    -0.108 S 
ATOM      8  C   UNL     1       2.491  -4.533  -2.865  0.00  0.00    -0.029 C 
ATOM      9  C   UNL     1       1.408  -3.857  -2.501  0.00  0.00    -0.047 C 
ATOM     10  C   UNL     1       0.156  -4.611  -2.057  0.00  0.00    +0.014 C 
ATOM     11  C   UNL     1       0.270  -6.059  -2.538  0.00  0.00    -0.074 C 
ATOM     12  N   UNL     1       1.555  -6.626  -2.106  0.00  0.00    +0.381 N 
ATOM     13  C   UNL     1       2.635  -6.027  -2.901  0.00  0.00    -0.036 C 
ATOM     14  C   UNL     1       1.543  -8.081  -2.313  0.00  0.00    -0.096 C 
ATOM     15  H   UNL     1       1.700  -6.426  -1.128  0.00  0.00    -0.082 HD
BRANCH   5  16
ATOM     16  C   UNL     1       0.775  -1.794  -1.334  0.00  0.00    +0.317 C 
ATOM     17  O   UNL     1       0.314  -2.540  -0.504  0.00  0.00    -0.250 OA
BRANCH  16  18
ATOM     18  O   UNL     1       0.671  -0.465  -1.174  0.00  0.00    -0.464 OA
BRANCH  18  20
ATOM     19  C   UNL     1      -0.019   1.526   0.010  0.00  0.00    +0.048 C 
ATOM     20  C   UNL     1       0.002  -0.004   0.002  0.00  0.00    +0.229 C 
ENDBRANCH  18  20
ENDBRANCH  16  18
ENDBRANCH   5  16
ENDBRANCH   1   6
BRANCH   2  21
ATOM     21  C   UNL     1       3.941   1.584  -3.947  0.00  0.00    +0.173 C 
BRANCH  21  22
ATOM     22  S   UNL     1       4.944   2.846  -3.115  0.00  0.00    -0.075 S 
BRANCH  22  23
ATOM     23  C   UNL     1       5.028   4.162  -4.283  0.00  0.00    +0.208 C 
ATOM     24  N   UNL     1       4.407   4.013  -5.428  0.00  0.00    -0.227 NA
ATOM     25  C   UNL     1       4.547   5.076  -6.421  0.00  0.00    +0.252 C 
ATOM     26  C   UNL     1       4.781   6.362  -5.642  0.00  0.00    +0.117 C 
ATOM     27  C   UNL     1       3.908   7.268  -6.162  0.00  0.00    +0.025 A 
ATOM     28  C   UNL     1       3.724   8.654  -5.931  0.00  0.00    +0.012 A 
ATOM     29  C   UNL     1       2.730   9.277  -6.618  0.00  0.00    +0.001 A 
ATOM     30  C   UNL     1       1.886   8.638  -7.532  0.00  0.00    +0.002 A 
ATOM     31  C   UNL     1       1.975   7.316  -7.837  0.00  0.00    +0.026 A 
ATOM     32  C   UNL     1       3.031   6.559  -7.144  0.00  0.00    +0.046 A 
ATOM     33  N   UNL     1       3.366   5.309  -7.241  0.00  0.00    -0.358 N 
ATOM     34  N   UNL     1       5.601   6.393  -4.587  0.00  0.00    -0.147 NA
ATOM     35  N   UNL     1       5.726   5.274  -3.944  0.00  0.00    -0.122 NA
ATOM     36  H   UNL     1       2.907   4.640  -7.772  0.00  0.00    +0.162 HD
ENDBRANCH  22  23
ENDBRANCH  21  22
ENDBRANCH   2  21
TORSDOF 7
