REMARK  Name = ZINC12495694
REMARK  10 active torsions:
REMARK  status: ('A' for Active; 'I' for Inactive)
REMARK    1  A    between atoms: C_1  and  C_2
REMARK    2  A    between atoms: C_2  and  O_3
REMARK    3  A    between atoms: O_3  and  C_4
REMARK    4  A    between atoms: C_4  and  C_6
REMARK    5  A    between atoms: C_6  and  C_28
REMARK    6  A    between atoms: C_11  and  C_13
REMARK    7  A    between atoms: C_16  and  O_21
REMARK    8  A    between atoms: C_17  and  O_19
REMARK    9  A    between atoms: O_19  and  C_20
REMARK   10  A    between atoms: N_24  and  C_27
REMARK                            x       y       z     vdW  Elec       q    Type
REMARK                         _______ _______ _______ _____ _____    ______ ____
ROOT
ATOM      1  C   UNL     1      -1.100   1.841   0.995  0.00  0.00    +0.070 C 
ATOM      2  C   UNL     1      -0.019   1.576   0.011  0.00  0.00    +0.090 C 
ATOM      3  C   UNL     1       0.002  -0.004   0.002  0.00  0.00    +0.077 C 
ATOM      4  C   UNL     1      -1.477  -0.230  -0.200  0.00  0.00    -0.026 C 
ATOM      5  C   UNL     1       1.066  -0.179  -1.012  0.00  0.00    +0.224 C 
ATOM      6  O   UNL     1       1.140  -1.043  -1.858  0.00  0.00    -0.275 OA
ATOM      7  N   UNL     1       1.948   0.846  -0.790  0.00  0.00    -0.245 N 
ATOM      8  C   UNL     1       1.418   1.836  -0.002  0.00  0.00    +0.225 C 
ATOM      9  O   UNL     1       2.012   2.731   0.560  0.00  0.00    -0.275 OA
ATOM     10  C   UNL     1       3.308   0.880  -1.334  0.00  0.00    +0.141 C 
ATOM     11  N   UNL     1      -2.074   0.734   0.773  0.00  0.00    +0.398 N 
ATOM     12  H   UNL     1      -2.949   1.113   0.393  0.00  0.00    -0.083 HD
ATOM     13  H   UNL     1      -2.265   0.257   1.662  0.00  0.00    -0.083 HD
ENDROOT
BRANCH   4  14
ATOM     14  C   UNL     1      -1.853  -1.649   0.140  0.00  0.00    -0.057 A 
ATOM     15  C   UNL     1      -2.023  -2.021   1.461  0.00  0.00    +0.006 A 
ATOM     16  C   UNL     1      -2.373  -3.320   1.778  0.00  0.00    +0.049 A 
ATOM     17  C   UNL     1      -2.545  -4.256   0.771  0.00  0.00    +0.158 A 
ATOM     18  C   UNL     1      -2.368  -3.884  -0.559  0.00  0.00    +0.161 A 
ATOM     19  C   UNL     1      -2.022  -2.578  -0.869  0.00  0.00    +0.051 A 
BRANCH  18  20
ATOM     20  O   UNL     1      -2.535  -4.799  -1.550  0.00  0.00    -0.491 OA
ATOM     21  C   UNL     1      -2.337  -4.346  -2.891  0.00  0.00    +0.277 C 
ENDBRANCH  18  20
BRANCH  17  22
ATOM     22  O   UNL     1      -2.884  -5.536   1.081  0.00  0.00    -0.503 OA
ATOM     23  H   UNL     1      -2.126  -6.120   1.224  0.00  0.00    +0.292 HD
ENDBRANCH  17  22
ENDBRANCH   4  14
BRANCH   1  24
ATOM     24  C   UNL     1      -1.742   3.177   0.724  0.00  0.00    -0.047 A 
ATOM     25  C   UNL     1      -0.999   4.200   0.166  0.00  0.00    +0.003 A 
ATOM     26  C   UNL     1      -1.589   5.425  -0.086  0.00  0.00    +0.000 A 
ATOM     27  C   UNL     1      -2.919   5.629   0.228  0.00  0.00    +0.000 A 
ATOM     28  C   UNL     1      -3.661   4.607   0.791  0.00  0.00    +0.000 A 
ATOM     29  C   UNL     1      -3.072   3.381   1.039  0.00  0.00    +0.003 A 
ENDBRANCH   1  24
BRANCH   1  30
ATOM     30  C   UNL     1      -0.555   1.793   2.399  0.00  0.00    +0.301 C 
ATOM     31  O   UNL     1       0.616   2.015   2.601  0.00  0.00    -0.252 OA
BRANCH  30  32
ATOM     32  O   UNL     1      -1.369   1.504   3.426  0.00  0.00    -0.466 OA
BRANCH  32  34
ATOM     33  C   UNL     1      -1.850   1.131   5.784  0.00  0.00    +0.048 C 
ATOM     34  C   UNL     1      -0.776   1.475   4.751  0.00  0.00    +0.228 C 
ENDBRANCH  32  34
ENDBRANCH  30  32
ENDBRANCH   1  30
TORSDOF 7
