REMARK  Name = ZINC09821822
REMARK  6 active torsions:
REMARK  status: ('A' for Active; 'I' for Inactive)
REMARK    1  A    between atoms: C_1  and  C_2
REMARK    2  A    between atoms: C_2  and  N_3
REMARK    3  A    between atoms: C_4  and  C_6
REMARK    4  A    between atoms: C_16  and  C_18
REMARK    5  A    between atoms: C_22  and  N_25
REMARK    6  A    between atoms: C_23  and  C_24
REMARK                            x       y       z     vdW  Elec       q    Type
REMARK                         _______ _______ _______ _____ _____    ______ ____
ROOT
ATOM      1  C   UNL     1       2.778   0.586  -0.252  0.00  0.00    +0.172 C 
ATOM      2  C   UNL     1       2.146  -0.812  -0.342  0.00  0.00    +0.069 C 
ATOM      3  C   UNL     1       0.672  -0.551  -0.557  0.00  0.00    -0.024 A 
ATOM      4  C   UNL     1      -0.390  -1.421  -0.711  0.00  0.00    +0.005 A 
ATOM      5  C   UNL     1      -1.669  -0.930  -0.898  0.00  0.00    +0.000 A 
ATOM      6  C   UNL     1      -1.883   0.436  -0.931  0.00  0.00    +0.002 A 
ATOM      7  C   UNL     1      -0.828   1.308  -0.773  0.00  0.00    +0.024 A 
ATOM      8  C   UNL     1       0.468   0.820  -0.589  0.00  0.00    +0.041 A 
ATOM      9  N   UNL     1       1.663   1.523  -0.415  0.00  0.00    -0.255 N 
ATOM     10  C   UNL     1       1.774   2.866  -0.401  0.00  0.00    +0.252 C 
ATOM     11  O   UNL     1       0.804   3.559  -0.642  0.00  0.00    -0.270 OA
ENDROOT
BRANCH  10  12
ATOM     12  C   UNL     1       3.075   3.497  -0.091  0.00  0.00    +0.042 A 
ATOM     13  C   UNL     1       3.825   3.057   1.000  0.00  0.00    +0.013 A 
ATOM     14  C   UNL     1       5.038   3.650   1.283  0.00  0.00    +0.003 A 
ATOM     15  C   UNL     1       5.511   4.678   0.487  0.00  0.00    +0.033 A 
ATOM     16  C   UNL     1       4.772   5.119  -0.596  0.00  0.00    +0.130 A 
ATOM     17  C   UNL     1       3.560   4.531  -0.893  0.00  0.00    -0.008 A 
ATOM     18  C   UNL     1       2.759   5.008  -2.077  0.00  0.00    +0.047 C 
BRANCH  16  19
ATOM     19  N   UNL     1       5.286   6.220  -1.441  0.00  0.00    +0.057 N 
ATOM     20  O   UNL     1       6.406   6.660  -1.254  0.00  0.00    -0.126 OA
ATOM     21  O   UNL     1       4.588   6.686  -2.324  0.00  0.00    -0.126 OA
ENDBRANCH  16  19
ENDBRANCH  10  12
BRANCH   1  23
ATOM     22  N   UNL     1       4.867  -0.026  -1.425  0.00  0.00    -0.314 N 
ATOM     23  C   UNL     1       3.787   0.776  -1.355  0.00  0.00    +0.234 C 
ATOM     24  O   UNL     1       3.626   1.651  -2.179  0.00  0.00    -0.274 OA
ATOM     25  H   UNL     1       4.996  -0.725  -0.766  0.00  0.00    +0.149 HD
BRANCH  22  27
ATOM     26  C   UNL     1       6.968  -0.873  -2.348  0.00  0.00    +0.024 C 
ATOM     27  C   UNL     1       5.848   0.159  -2.498  0.00  0.00    +0.101 C 
ENDBRANCH  22  27
ENDBRANCH   1  23
TORSDOF 4
