REMARK  Name = ZINC52569908
REMARK  9 active torsions:
REMARK  status: ('A' for Active; 'I' for Inactive)
REMARK    1  A    between atoms: C_1  and  C_2
REMARK    2  A    between atoms: C_7  and  C_9
REMARK    3  A    between atoms: C_11  and  O_20
REMARK    4  A    between atoms: C_14  and  C_15
REMARK    5  A    between atoms: O_20  and  C_21
REMARK    6  A    between atoms: C_21  and  C_22
REMARK    7  A    between atoms: C_22  and  C_24
REMARK    8  A    between atoms: C_22  and  N_34
REMARK    9  A    between atoms: C_24  and  C_25
REMARK                            x       y       z     vdW  Elec       q    Type
REMARK                         _______ _______ _______ _____ _____    ______ ____
ROOT
ATOM      1  C   UNL     1       2.736   2.114  -4.693  0.00  0.00    +0.049 A 
ATOM      2  C   UNL     1       3.783   1.776  -3.834  0.00  0.00    +0.061 A 
ATOM      3  C   UNL     1       5.062   1.665  -4.364  0.00  0.00    +0.139 A 
ATOM      4  C   UNL     1       5.261   1.892  -5.720  0.00  0.00    +0.157 A 
ATOM      5  N   UNL     1       4.256   2.209  -6.510  0.00  0.00    -0.251 NA
ATOM      6  C   UNL     1       3.016   2.322  -6.054  0.00  0.00    +0.085 A 
ENDROOT
BRANCH   1  13
ATOM      7  C   UNL     1       0.110   4.646  -0.526  0.00  0.00    +0.070 C 
ATOM      8  C   UNL     1      -0.655   3.808  -1.517  0.00  0.00    +0.086 A 
ATOM      9  C   UNL     1      -0.097   3.117  -2.616  0.00  0.00    +0.115 A 
ATOM     10  C   UNL     1      -1.163   2.466  -3.273  0.00  0.00    +0.102 A 
ATOM     11  C   UNL     1      -0.882   1.704  -4.405  0.00  0.00    +0.142 A 
ATOM     12  N   UNL     1       0.368   1.620  -4.820  0.00  0.00    -0.233 NA
ATOM     13  C   UNL     1       1.353   2.245  -4.180  0.00  0.00    +0.163 A 
ATOM     14  N   UNL     1       1.138   2.979  -3.102  0.00  0.00    -0.224 NA
ATOM     15  N   UNL     1      -2.300   2.772  -2.574  0.00  0.00    -0.274 N 
ATOM     16  N   UNL     1      -1.940   3.596  -1.499  0.00  0.00    -0.176 NA
ATOM     17  H   UNL     1      -3.197   2.470  -2.784  0.00  0.00    +0.189 HD
ENDBRANCH   1  13
BRANCH   6  18
ATOM     18  C   UNL     1       1.919   2.675  -6.985  0.00  0.00    +0.039 A 
ATOM     19  C   UNL     1       0.832   3.633  -6.750  0.00  0.00    +0.051 A 
ATOM     20  C   UNL     1       0.082   3.623  -7.865  0.00  0.00    +0.195 A 
ATOM     21  O   UNL     1       0.613   2.757  -8.741  0.00  0.00    -0.470 OA
ATOM     22  C   UNL     1       1.714   2.184  -8.236  0.00  0.00    +0.204 A 
ENDBRANCH   6  18
BRANCH   3  23
ATOM     23  O   UNL     1       6.111   1.339  -3.562  0.00  0.00    -0.492 OA
BRANCH  23  24
ATOM     24  C   UNL     1       7.395   1.244  -4.181  0.00  0.00    +0.213 C 
BRANCH  24  25
ATOM     25  C   UNL     1       8.441   0.870  -3.129  0.00  0.00    -0.033 C 
BRANCH  25  26
ATOM     26  N   UNL     1       8.158  -0.476  -2.614  0.00  0.00    +0.382 N 
ATOM     27  H   UNL     1       8.848  -0.723  -1.920  0.00  0.00    -0.089 HD
ATOM     28  H   UNL     1       7.240  -0.490  -2.195  0.00  0.00    -0.089 HD
ATOM     29  H   UNL     1       8.191  -1.141  -3.372  0.00  0.00    -0.089 HD
ENDBRANCH  25  26
BRANCH  25  30
ATOM     30  C   UNL     1       9.833   0.890  -3.764  0.00  0.00    +0.020 C 
BRANCH  30  31
ATOM     31  C   UNL     1      10.874   0.643  -2.703  0.00  0.00    -0.043 C 
ATOM     32  C   UNL     1      11.440  -0.542  -2.380  0.00  0.00    -0.001 A 
ATOM     33  C   UNL     1      11.262  -1.904  -2.899  0.00  0.00    +0.010 A 
ATOM     34  C   UNL     1      11.987  -2.911  -2.361  0.00  0.00    +0.001 A 
ATOM     35  C   UNL     1      12.901  -2.688  -1.322  0.00  0.00    +0.002 A 
ATOM     36  C   UNL     1      13.119  -1.465  -0.792  0.00  0.00    +0.026 A 
ATOM     37  C   UNL     1      12.411  -0.333  -1.282  0.00  0.00    +0.043 A 
ATOM     38  N   UNL     1      12.445   0.932  -0.941  0.00  0.00    -0.380 N 
ATOM     39  C   UNL     1      11.501   1.670  -1.787  0.00  0.00    +0.144 C 
ATOM     40  H   UNL     1      13.003   1.316  -0.246  0.00  0.00    +0.160 HD
ENDBRANCH  30  31
ENDBRANCH  25  30
ENDBRANCH  24  25
ENDBRANCH  23  24
ENDBRANCH   3  23
TORSDOF 8
