REMARK  Name = ZINC20706751
REMARK  2 active torsions:
REMARK  status: ('A' for Active; 'I' for Inactive)
REMARK    1  A    between atoms: C_4  and  O_24
REMARK    2  A    between atoms: C_5  and  C_7
REMARK                            x       y       z     vdW  Elec       q    Type
REMARK                         _______ _______ _______ _____ _____    ______ ____
ROOT
ATOM      1  C   UNL     1      -0.018   1.475   0.010  0.00  0.00    +0.108 C 
ATOM      2  C   UNL     1       1.438   1.905  -0.001  0.00  0.00    +0.029 C 
ATOM      3  C   UNL     1       1.722   3.403  -0.182  0.00  0.00    +0.033 C 
ATOM      4  C   UNL     1       3.085   3.376  -0.876  0.00  0.00    -0.030 C 
ATOM      5  C   UNL     1       3.237   2.233  -1.535  0.00  0.00    -0.023 C 
ATOM      6  C   UNL     1       2.002   1.425  -1.372  0.00  0.00    +0.049 C 
ATOM      7  C   UNL     1       2.028  -0.053  -1.362  0.00  0.00    -0.018 A 
ATOM      8  C   UNL     1       3.005  -0.781  -2.005  0.00  0.00    +0.020 A 
ATOM      9  C   UNL     1       2.964  -2.164  -2.000  0.00  0.00    +0.014 A 
ATOM     10  C   UNL     1       1.938  -2.822  -1.345  0.00  0.00    +0.016 A 
ATOM     11  C   UNL     1       0.960  -2.102  -0.690  0.00  0.00    +0.024 A 
ATOM     12  C   UNL     1       0.996  -0.713  -0.684  0.00  0.00    +0.031 A 
ATOM     13  N   UNL     1       0.002  -0.004   0.002  0.00  0.00    -0.336 N 
ATOM     14  I   UNL     1       4.455  -3.261  -2.981  0.00  0.00    -0.044 I 
ATOM     15  H   UNL     1      -0.773  -0.568   0.541  0.00  0.00    +0.147 HD
ENDROOT
BRANCH   1  20
ATOM     16  C   UNL     1      -1.359   1.655   3.535  0.00  0.00    +0.001 A 
ATOM     17  C   UNL     1      -1.952   2.904   3.545  0.00  0.00    +0.004 A 
ATOM     18  C   UNL     1      -1.921   3.694   2.412  0.00  0.00    +0.046 A 
ATOM     19  C   UNL     1      -1.294   3.232   1.263  0.00  0.00    +0.122 A 
ATOM     20  C   UNL     1      -0.700   1.979   1.256  0.00  0.00    +0.014 A 
ATOM     21  C   UNL     1      -0.738   1.191   2.390  0.00  0.00    +0.009 A 
BRANCH  19  22
ATOM     22  O   UNL     1      -1.263   4.007   0.147  0.00  0.00    -0.506 OA
ATOM     23  H   UNL     1      -0.765   3.640  -0.763  0.00  0.00    +0.292 HD
ENDBRANCH  19  22
ENDBRANCH   1  20
TORSDOF 2
