REMARK  Name = ZINC14740412
REMARK  10 active torsions:
REMARK  status: ('A' for Active; 'I' for Inactive)
REMARK    1  A    between atoms: C_1  and  C_2
REMARK    2  A    between atoms: C_2  and  N_3
REMARK    3  A    between atoms: N_6  and  C_25
REMARK    4  A    between atoms: C_14  and  C_15
REMARK    5  A    between atoms: C_14  and  N_62
REMARK    6  A    between atoms: N_17  and  C_24
REMARK    7  A    between atoms: C_25  and  C_26
REMARK    8  A    between atoms: C_26  and  N_64
REMARK    9  A    between atoms: C_27  and  N_64
REMARK   10  A    between atoms: C_28  and  N_64
REMARK                            x       y       z     vdW  Elec       q    Type
REMARK                         _______ _______ _______ _____ _____    ______ ____
ROOT
ATOM      1  N   UNL     1       1.095   1.977   0.003  0.00  0.00    -0.271 N 
ATOM      2  C   UNL     1      -0.015   1.214  -0.021  0.00  0.00    +0.312 C 
ATOM      3  O   UNL     1       0.001  -0.001  -0.061  0.00  0.00    -0.252 OA
ATOM      4  N   UNL     1      -1.137   1.944  -0.002  0.00  0.00    -0.226 N 
ATOM      5  C   UNL     1      -0.869   3.266   0.045  0.00  0.00    +0.247 C 
ATOM      6  O   UNL     1      -1.668   4.176   0.075  0.00  0.00    -0.273 OA
ATOM      7  C   UNL     1       0.639   3.371   0.048  0.00  0.00    +0.112 C 
ATOM      8  C   UNL     1       1.123   4.133  -1.181  0.00  0.00    +0.017 C 
ATOM      9  C   UNL     1       2.649   4.248  -1.138  0.00  0.00    -0.076 C 
ATOM     10  C   UNL     1       2.651   4.170   1.286  0.00  0.00    -0.076 C 
ATOM     11  C   UNL     1       1.124   4.052   1.324  0.00  0.00    +0.017 C 
ATOM     12  N   UNL     1       3.040   4.960   0.098  0.00  0.00    +0.383 N 
ATOM     13  H   UNL     1       2.556   5.866   0.128  0.00  0.00    -0.081 HD
ENDROOT
BRANCH   1  15
ATOM     14  C   UNL     1       2.784   0.760   1.287  0.00  0.00    +0.024 C 
ATOM     15  C   UNL     1       2.483   1.508  -0.014  0.00  0.00    +0.107 C 
ENDBRANCH   1  15
BRANCH  12  16
ATOM     16  C   UNL     1       4.498   5.195   0.105  0.00  0.00    -0.041 C 
BRANCH  16  17
ATOM     17  C   UNL     1       4.836   6.178  -0.986  0.00  0.00    -0.039 A 
ATOM     18  C   UNL     1       5.345   5.887  -2.194  0.00  0.00    +0.088 A 
ATOM     19  N   UNL     1       5.519   7.036  -2.916  0.00  0.00    -0.349 N 
ATOM     20  C   UNL     1       5.117   8.123  -2.172  0.00  0.00    +0.049 A 
ATOM     21  C   UNL     1       4.665   7.632  -0.933  0.00  0.00    +0.001 A 
ATOM     22  C   UNL     1       4.197   8.519   0.038  0.00  0.00    +0.010 A 
ATOM     23  C   UNL     1       4.169   9.860  -0.224  0.00  0.00    +0.001 A 
ATOM     24  C   UNL     1       4.608  10.348  -1.448  0.00  0.00    +0.002 A 
ATOM     25  C   UNL     1       5.079   9.491  -2.418  0.00  0.00    +0.026 A 
ATOM     26  C   UNL     1       6.055   7.101  -4.278  0.00  0.00    +0.149 C 
ENDBRANCH  16  17
ENDBRANCH  12  16
BRANCH   4  27
ATOM     27  C   UNL     1      -2.488   1.379  -0.027  0.00  0.00    +0.099 C 
BRANCH  27  28
ATOM     28  C   UNL     1      -2.965   1.135   1.406  0.00  0.00    -0.060 C 
BRANCH  28  31
ATOM     29  C   UNL     1      -4.319  -0.773   0.781  0.00  0.00    -0.097 C 
ATOM     30  C   UNL     1      -4.904   0.540   2.729  0.00  0.00    -0.097 C 
ATOM     31  N   UNL     1      -4.336   0.585   1.365  0.00  0.00    +0.377 N 
ATOM     32  H   UNL     1      -4.922   1.192   0.780  0.00  0.00    -0.083 HD
ENDBRANCH  28  31
ENDBRANCH  27  28
ENDBRANCH   4  27
TORSDOF 6
