REMARK  Name = ZINC39359131
REMARK  5 active torsions:
REMARK  status: ('A' for Active; 'I' for Inactive)
REMARK    1  A    between atoms: C_3  and  C_6
REMARK    2  A    between atoms: C_11  and  C_21
REMARK    3  A    between atoms: C_14  and  O_20
REMARK    4  A    between atoms: C_24  and  O_28
REMARK    5  A    between atoms: C_25  and  O_27
REMARK                            x       y       z     vdW  Elec       q    Type
REMARK                         _______ _______ _______ _____ _____    ______ ____
ROOT
ATOM      1  C   UNL     1       3.761   1.845  -0.024  0.00  0.00    +0.039 C 
ATOM      2  C   UNL     1       4.505   1.325   1.205  0.00  0.00    +0.060 C 
ATOM      3  C   UNL     1       5.940   1.813   1.182  0.00  0.00    +0.014 C 
ATOM      4  C   UNL     1       6.569   2.011   0.004  0.00  0.00    +0.023 C 
ATOM      5  C   UNL     1       8.008   2.498  -0.077  0.00  0.00    +0.089 C 
ATOM      6  C   UNL     1       8.565   2.448   1.314  0.00  0.00    +0.048 C 
ATOM      7  C   UNL     1       9.719   2.090   1.833  0.00  0.00    +0.235 C 
ATOM      8  N   UNL     1       9.652   2.117   3.192  0.00  0.00    -0.114 NA
ATOM      9  N   UNL     1       8.567   2.505   3.643  0.00  0.00    -0.157 NA
ATOM     10  C   UNL     1       7.708   2.865   2.513  0.00  0.00    +0.245 C 
ATOM     11  N   UNL     1       6.519   2.016   2.409  0.00  0.00    -0.321 N 
ATOM     12  C   UNL     1       5.917   1.785  -1.221  0.00  0.00    +0.162 C 
ATOM     13  O   UNL     1       6.526   1.958  -2.258  0.00  0.00    -0.292 OA
ATOM     14  C   UNL     1       4.483   1.336  -1.277  0.00  0.00    +0.088 C 
ATOM     15  H   UNL     1       6.144   1.602   3.202  0.00  0.00    +0.148 HD
ENDROOT
BRANCH   5  16
ATOM     16  C   UNL     1       8.805   1.599  -0.985  0.00  0.00    -0.032 A 
ATOM     17  C   UNL     1       8.926   0.253  -0.691  0.00  0.00    +0.008 A 
ATOM     18  C   UNL     1       9.657  -0.576  -1.522  0.00  0.00    +0.049 A 
ATOM     19  C   UNL     1      10.270  -0.059  -2.652  0.00  0.00    +0.158 A 
ATOM     20  C   UNL     1      10.148   1.295  -2.948  0.00  0.00    +0.159 A 
ATOM     21  C   UNL     1       9.410   2.120  -2.114  0.00  0.00    +0.053 A 
BRANCH  20  22
ATOM     22  O   UNL     1      10.747   1.807  -4.056  0.00  0.00    -0.503 OA
ATOM     23  H   UNL     1      10.193   1.786  -4.848  0.00  0.00    +0.292 HD
ENDBRANCH  20  22
BRANCH  19  24
ATOM     24  O   UNL     1      10.989  -0.874  -3.470  0.00  0.00    -0.503 OA
ATOM     25  H   UNL     1      10.470  -1.278  -4.178  0.00  0.00    +0.292 HD
ENDBRANCH  19  24
ENDBRANCH   5  16
BRANCH   1  28
ATOM     26  C   UNL     1      -0.016   1.351   0.009  0.00  0.00    +0.008 A 
ATOM     27  C   UNL     1       1.183   2.038   0.002  0.00  0.00    +0.011 A 
ATOM     28  C   UNL     1       2.343   1.336  -0.013  0.00  0.00    -0.006 A 
ATOM     29  S   UNL     1       1.754  -0.349  -0.017  0.00  0.00    -0.101 S 
ATOM     30  C   UNL     1       0.002  -0.004   0.002  0.00  0.00    +0.045 A 
ENDBRANCH   1  28
BRANCH   7  31
ATOM     31  O   UNL     1      10.820   1.744   1.115  0.00  0.00    -0.491 OA
ATOM     32  H   UNL     1      11.585   1.508   1.658  0.00  0.00    +0.294 HD
ENDBRANCH   7  31
TORSDOF 5
