REMARK  Name = ZINC11999597
REMARK  6 active torsions:
REMARK  status: ('A' for Active; 'I' for Inactive)
REMARK    1  A    between atoms: C_3  and  C_6
REMARK    2  A    between atoms: C_6  and  C_8
REMARK    3  A    between atoms: C_6  and  N_54
REMARK    4  A    between atoms: C_8  and  N_9
REMARK    5  A    between atoms: N_9  and  S_10
REMARK    6  A    between atoms: S_10  and  C_13
REMARK                            x       y       z     vdW  Elec       q    Type
REMARK                         _______ _______ _______ _____ _____    ______ ____
ROOT
ATOM      1  C   UNL     1       5.180   0.220  -2.381  0.00  0.00    +0.098 C 
ENDROOT
BRANCH   1   2
ATOM      2  N   UNL     1       4.776  -0.816  -1.428  0.00  0.00    -0.191 NA
ATOM      3  H   UNL     1       4.438  -1.666  -1.750  0.00  0.00    +0.148 HD
BRANCH   2   4
ATOM      4  S   UNL     1       4.897  -0.537   0.200  0.00  0.00    +0.058 S 
ATOM      5  O   UNL     1       6.204  -0.026   0.428  0.00  0.00    -0.153 OA
ATOM      6  O   UNL     1       4.411  -1.703   0.850  0.00  0.00    -0.153 OA
BRANCH   4   7
ATOM      7  C   UNL     1       3.774   0.763   0.590  0.00  0.00    +0.109 A 
ATOM      8  C   UNL     1       2.471   0.466   0.946  0.00  0.00    +0.032 A 
ATOM      9  C   UNL     1       1.586   1.483   1.251  0.00  0.00    +0.051 A 
ATOM     10  C   UNL     1       2.003   2.805   1.201  0.00  0.00    +0.162 A 
ATOM     11  C   UNL     1       3.313   3.103   0.846  0.00  0.00    +0.164 A 
ATOM     12  C   UNL     1       4.196   2.078   0.540  0.00  0.00    +0.078 A 
ATOM     13  O   UNL     1       3.745   4.393   0.799  0.00  0.00    -0.485 OA
ATOM     14  C   UNL     1       2.737   5.408   0.747  0.00  0.00    +0.270 C 
ATOM     15  C   UNL     1       1.671   5.081   1.802  0.00  0.00    +0.270 C 
ATOM     16  O   UNL     1       1.118   3.796   1.495  0.00  0.00    -0.485 OA
ENDBRANCH   4   7
ENDBRANCH   2   4
ENDBRANCH   1   2
BRANCH   1  17
ATOM     17  C   UNL     1       5.329  -0.398  -3.773  0.00  0.00    +0.015 C 
BRANCH  17  24
ATOM     18  C   UNL     1       7.566  -1.113  -3.150  0.00  0.00    -0.078 C 
ATOM     19  C   UNL     1       8.634  -2.159  -3.315  0.00  0.00    -0.019 C 
ATOM     20  C   UNL     1       9.412  -1.865  -4.615  0.00  0.00    -0.002 C 
ATOM     21  C   UNL     1       8.686  -2.304  -5.802  0.00  0.00    -0.002 C 
ATOM     22  C   UNL     1       7.329  -1.586  -5.954  0.00  0.00    -0.019 C 
ATOM     23  C   UNL     1       6.343  -2.224  -5.014  0.00  0.00    -0.078 C 
ATOM     24  N   UNL     1       6.229  -1.557  -3.673  0.00  0.00    +0.387 N 
ATOM     25  H   UNL     1       5.830  -2.231  -3.009  0.00  0.00    -0.081 HD
ENDBRANCH  17  24
BRANCH  17  28
ATOM     26  C   UNL     1       6.078   2.067  -6.409  0.00  0.00    +0.041 A 
ATOM     27  C   UNL     1       5.216   1.124  -5.804  0.00  0.00    +0.043 A 
ATOM     28  C   UNL     1       5.862   0.639  -4.728  0.00  0.00    +0.093 A 
ATOM     29  O   UNL     1       7.060   1.240  -4.646  0.00  0.00    -0.469 OA
ATOM     30  C   UNL     1       7.199   2.103  -5.666  0.00  0.00    +0.195 A 
ENDBRANCH  17  28
ENDBRANCH   1  17
TORSDOF 6
