REMARK  Name = ZINC13031271
REMARK  12 active torsions:
REMARK  status: ('A' for Active; 'I' for Inactive)
REMARK    1  A    between atoms: C_1  and  C_2
REMARK    2  A    between atoms: C_7  and  C_8
REMARK    3  A    between atoms: C_8  and  C_10
REMARK    4  A    between atoms: C_8  and  N_18
REMARK    5  A    between atoms: N_12  and  C_13
REMARK    6  A    between atoms: C_13  and  C_14
REMARK    7  A    between atoms: C_14  and  C_15
REMARK    8  A    between atoms: C_15  and  C_16
REMARK    9  A    between atoms: C_15  and  C_17
REMARK   10  A    between atoms: N_18  and  C_19
REMARK   11  A    between atoms: C_28  and  C_30
REMARK   12  A    between atoms: C_30  and  N_31
REMARK                            x       y       z     vdW  Elec       q    Type
REMARK                         _______ _______ _______ _____ _____    ______ ____
ROOT
ATOM      1  N   UNL     1      -5.421   3.402  -1.700  0.00  0.00    -0.254 N 
ATOM      2  C   UNL     1      -4.084   3.411  -1.868  0.00  0.00    +0.242 C 
ATOM      3  O   UNL     1      -3.604   3.066  -2.927  0.00  0.00    -0.273 OA
ENDROOT
BRANCH   1   4
ATOM      4  C   UNL     1      -5.981   3.892  -0.513  0.00  0.00    +0.041 A 
ATOM      5  C   UNL     1      -6.559   5.155  -0.487  0.00  0.00    +0.027 A 
ATOM      6  C   UNL     1      -7.111   5.639   0.683  0.00  0.00    +0.051 A 
ATOM      7  C   UNL     1      -7.090   4.867   1.834  0.00  0.00    +0.166 A 
ATOM      8  C   UNL     1      -6.512   3.600   1.811  0.00  0.00    +0.168 A 
ATOM      9  C   UNL     1      -5.964   3.113   0.636  0.00  0.00    +0.073 A 
ATOM     10  O   UNL     1      -6.619   3.049   3.055  0.00  0.00    -0.453 OA
ATOM     11  C   UNL     1      -7.628   3.821   3.732  0.00  0.00    +0.466 C 
ATOM     12  O   UNL     1      -7.559   5.109   3.094  0.00  0.00    -0.453 OA
ENDBRANCH   1   4
BRANCH   1  13
ATOM     13  C   UNL     1      -6.290   2.881  -2.759  0.00  0.00    +0.197 C 
BRANCH  13  20
ATOM     14  C   UNL     1      -5.554   5.094  -4.464  0.00  0.00    +0.044 C 
ATOM     15  C   UNL     1      -6.964   4.981  -3.942  0.00  0.00    -0.045 A 
ATOM     16  C   UNL     1      -7.906   5.934  -4.282  0.00  0.00    +0.004 A 
ATOM     17  C   UNL     1      -9.197   5.833  -3.799  0.00  0.00    +0.000 A 
ATOM     18  C   UNL     1      -9.547   4.776  -2.979  0.00  0.00    +0.000 A 
ATOM     19  C   UNL     1      -8.606   3.821  -2.642  0.00  0.00    +0.006 A 
ATOM     20  C   UNL     1      -7.315   3.922  -3.126  0.00  0.00    -0.015 A 
ENDBRANCH  13  20
BRANCH  13  21
ATOM     21  C   UNL     1      -6.988   1.638  -2.269  0.00  0.00    +0.238 C 
ATOM     22  O   UNL     1      -7.016   1.386  -1.083  0.00  0.00    -0.273 OA
ATOM     23  N   UNL     1      -7.582   0.808  -3.149  0.00  0.00    -0.313 N 
ATOM     24  H   UNL     1      -7.502   0.972  -4.101  0.00  0.00    +0.149 HD
BRANCH  23  25
ATOM     25  C   UNL     1      -8.349  -0.343  -2.667  0.00  0.00    +0.104 C 
BRANCH  25  26
ATOM     26  C   UNL     1      -8.914  -1.116  -3.860  0.00  0.00    +0.022 C 
BRANCH  26  27
ATOM     27  C   UNL     1      -9.716  -2.318  -3.357  0.00  0.00    -0.016 C 
ATOM     28  C   UNL     1     -10.937  -1.826  -2.578  0.00  0.00    +0.007 C 
ATOM     29  C   UNL     1     -10.176  -3.160  -4.548  0.00  0.00    +0.007 C 
ENDBRANCH  26  27
ENDBRANCH  25  26
ENDBRANCH  23  25
ENDBRANCH  13  21
ENDBRANCH   1  13
BRANCH   2  30
ATOM     30  C   UNL     1      -3.186   3.848  -0.740  0.00  0.00    +0.242 C 
BRANCH  30  31
ATOM     31  N   UNL     1      -1.786   3.693  -1.143  0.00  0.00    -0.235 N 
ATOM     32  C   UNL     1      -0.999   2.579  -0.972  0.00  0.00    +0.090 A 
ATOM     33  C   UNL     1      -1.213   1.320  -0.420  0.00  0.00    +0.029 A 
ATOM     34  C   UNL     1      -0.197   0.407  -0.396  0.00  0.00    +0.002 A 
ATOM     35  C   UNL     1       1.047   0.720  -0.928  0.00  0.00    +0.002 A 
ATOM     36  C   UNL     1       1.281   1.946  -1.480  0.00  0.00    +0.032 A 
ATOM     37  C   UNL     1       0.258   2.902  -1.512  0.00  0.00    +0.113 A 
ATOM     38  N   UNL     1       0.190   4.165  -1.978  0.00  0.00    -0.129 NA
ATOM     39  N   UNL     1      -0.984   4.652  -1.779  0.00  0.00    -0.064 NA
ENDBRANCH  30  31
ENDBRANCH   2  30
TORSDOF 9
