REMARK  Name = ZINC41678265
REMARK  7 active torsions:
REMARK  status: ('A' for Active; 'I' for Inactive)
REMARK    1  A    between atoms: C_1  and  C_2
REMARK    2  A    between atoms: C_2  and  O_3
REMARK    3  A    between atoms: O_3  and  C_4
REMARK    4  A    between atoms: C_4  and  C_6
REMARK    5  A    between atoms: C_6  and  C_8
REMARK    6  A    between atoms: C_6  and  N_14
REMARK    7  A    between atoms: N_14  and  C_15
REMARK                            x       y       z     vdW  Elec       q    Type
REMARK                         _______ _______ _______ _____ _____    ______ ____
ROOT
ATOM      1  C   UNL     1      -2.908  -2.437  -0.152  0.00  0.00    +0.077 C 
ENDROOT
BRANCH   1   2
ATOM      2  C   UNL     1      -3.732  -2.134  -1.377  0.00  0.00    -0.013 A 
ATOM      3  C   UNL     1      -4.673  -1.176  -1.557  0.00  0.00    +0.025 A 
ATOM      4  C   UNL     1      -5.309  -1.082  -2.781  0.00  0.00    +0.025 A 
ATOM      5  C   UNL     1      -4.971  -1.952  -3.765  0.00  0.00    +0.060 A 
ATOM      6  S   UNL     1      -3.715  -2.940  -2.970  0.00  0.00    -0.102 S 
ATOM      7 BR   UNL     1      -6.629   0.239  -3.078  0.00  0.00    -0.050 Br
ENDBRANCH   1   2
BRANCH   1   8
ATOM      8  N   UNL     1      -2.784  -3.892   0.008  0.00  0.00    +0.393 N 
ATOM      9  H   UNL     1      -2.396  -4.291  -0.834  0.00  0.00    -0.084 HD
ATOM     10  H   UNL     1      -2.176  -4.095   0.787  0.00  0.00    -0.084 HD
BRANCH   8  11
ATOM     11  C   UNL     1      -4.111  -4.472   0.258  0.00  0.00    -0.070 C 
ATOM     12  C   UNL     1      -4.646  -3.934   1.600  0.00  0.00    -0.016 C 
ATOM     13  C   UNL     1      -6.142  -4.094   1.617  0.00  0.00    -0.002 C 
ATOM     14  C   UNL     1      -6.587  -5.405   2.293  0.00  0.00    -0.000 C 
ATOM     15  C   UNL     1      -5.707  -6.608   1.901  0.00  0.00    -0.000 C 
ATOM     16  C   UNL     1      -5.364  -6.618   0.436  0.00  0.00    -0.002 C 
ATOM     17  C   UNL     1      -4.000  -5.923   0.246  0.00  0.00    -0.016 C 
ENDBRANCH   8  11
ENDBRANCH   1   8
BRANCH   1  18
ATOM     18  C   UNL     1      -1.537  -1.830  -0.305  0.00  0.00    +0.298 C 
ATOM     19  O   UNL     1      -0.558  -2.537  -0.284  0.00  0.00    -0.252 OA
BRANCH  18  20
ATOM     20  O   UNL     1      -1.404  -0.504  -0.466  0.00  0.00    -0.466 OA
BRANCH  20  22
ATOM     21  C   UNL     1      -0.125   1.522  -0.777  0.00  0.00    +0.048 C 
ATOM     22  C   UNL     1      -0.076   0.003  -0.605  0.00  0.00    +0.228 C 
ENDBRANCH  20  22
ENDBRANCH  18  20
ENDBRANCH   1  18
TORSDOF 6
