REMARK  Name = ZINC00849601
REMARK  8 active torsions:
REMARK  status: ('A' for Active; 'I' for Inactive)
REMARK    1  A    between atoms: C_1  and  C_2
REMARK    2  A    between atoms: C_5  and  S_9
REMARK    3  A    between atoms: S_9  and  N_12
REMARK    4  A    between atoms: N_12  and  N_13
REMARK    5  A    between atoms: N_13  and  C_14
REMARK    6  A    between atoms: C_19  and  C_22
REMARK    7  A    between atoms: C_25  and  O_28
REMARK    8  A    between atoms: O_28  and  C_29
REMARK                            x       y       z     vdW  Elec       q    Type
REMARK                         _______ _______ _______ _____ _____    ______ ____
ROOT
ATOM      1  N   UNL     1      -3.440   5.362   3.858  0.00  0.00    -0.266 N 
ATOM      2  H   UNL     1      -3.184   5.158   2.945  0.00  0.00    +0.167 HD
ENDROOT
BRANCH   1   3
ATOM      3  C   UNL     1      -4.395   6.302   4.105  0.00  0.00    +0.024 C 
ATOM      4  C   UNL     1      -4.742   6.576   5.381  0.00  0.00    +0.066 C 
ATOM      5  C   UNL     1      -5.719   7.528   5.688  0.00  0.00    +0.158 C 
ATOM      6  O   UNL     1      -6.002   7.747   6.850  0.00  0.00    -0.293 OA
ATOM      7  C   UNL     1      -6.424   8.284   4.593  0.00  0.00    +0.087 C 
ATOM      8  C   UNL     1      -6.472   7.413   3.333  0.00  0.00    +0.032 C 
ATOM      9  C   UNL     1      -5.040   7.021   2.950  0.00  0.00    +0.060 C 
BRANCH   8  10
ATOM     10  C   UNL     1      -7.104   8.189   2.206  0.00  0.00    -0.043 A 
ATOM     11  C   UNL     1      -6.530   9.372   1.777  0.00  0.00    +0.007 A 
ATOM     12  C   UNL     1      -7.104  10.082   0.740  0.00  0.00    +0.046 A 
ATOM     13  C   UNL     1      -8.262   9.614   0.137  0.00  0.00    +0.120 A 
ATOM     14  C   UNL     1      -8.839   8.430   0.574  0.00  0.00    +0.046 A 
ATOM     15  C   UNL     1      -8.258   7.720   1.607  0.00  0.00    +0.007 A 
BRANCH  13  16
ATOM     16  O   UNL     1      -8.832  10.314  -0.878  0.00  0.00    -0.495 OA
ATOM     17  C   UNL     1      -8.184  11.525  -1.275  0.00  0.00    +0.277 C 
ENDBRANCH  13  16
ENDBRANCH   8  10
ENDBRANCH   1   3
BRANCH   1  18
ATOM     18  N   UNL     1      -2.828   4.689   4.924  0.00  0.00    -0.110 NA
ATOM     19  H   UNL     1      -2.398   5.193   5.633  0.00  0.00    +0.172 HD
BRANCH  18  20
ATOM     20  S   UNL     1      -2.837   3.034   4.973  0.00  0.00    +0.076 S 
ATOM     21  O   UNL     1      -4.195   2.632   4.852  0.00  0.00    -0.152 OA
ATOM     22  O   UNL     1      -2.026   2.655   6.077  0.00  0.00    -0.152 OA
BRANCH  20  27
ATOM     23  C   UNL     1      -0.013   1.086   0.008  0.00  0.00    +0.044 C 
ATOM     24  C   UNL     1      -0.718   1.572   1.248  0.00  0.00    -0.048 A 
ATOM     25  C   UNL     1      -2.083   1.789   1.226  0.00  0.00    +0.025 A 
ATOM     26  C   UNL     1      -2.732   2.230   2.366  0.00  0.00    +0.069 A 
ATOM     27  C   UNL     1      -2.013   2.464   3.524  0.00  0.00    +0.143 A 
ATOM     28  C   UNL     1      -0.646   2.252   3.543  0.00  0.00    +0.069 A 
ATOM     29  C   UNL     1       0.001   1.806   2.405  0.00  0.00    +0.025 A 
ATOM     30 CL   UNL     1       0.257   2.546   4.997  0.00  0.00    -0.081 Cl
ATOM     31 CL   UNL     1      -4.447   2.496   2.340  0.00  0.00    -0.081 Cl
ENDBRANCH  20  27
ENDBRANCH  18  20
ENDBRANCH   1  18
TORSDOF 6
