REMARK  Name = ZINC36364777
REMARK  5 active torsions:
REMARK  status: ('A' for Active; 'I' for Inactive)
REMARK    1  A    between atoms: C_1  and  N_2
REMARK    2  A    between atoms: N_21  and  C_22
REMARK    3  A    between atoms: C_22  and  C_23
REMARK    4  A    between atoms: C_23  and  C_24
REMARK    5  A    between atoms: C_24  and  N_25
REMARK                            x       y       z     vdW  Elec       q    Type
REMARK                         _______ _______ _______ _____ _____    ______ ____
ROOT
ATOM      1  C   UNL     1      -0.401   1.363  -0.111  0.00  0.00    +0.138 C 
ATOM      2  N   UNL     1      -0.269  -0.096  -0.099  0.00  0.00    -0.271 N 
ATOM      3  C   UNL     1      -1.341  -0.970  -0.142  0.00  0.00    +0.043 A 
ATOM      4  C   UNL     1      -2.708  -0.692  -0.203  0.00  0.00    +0.024 A 
ATOM      5  C   UNL     1      -3.573  -1.775  -0.236  0.00  0.00    +0.002 A 
ATOM      6  C   UNL     1      -3.116  -3.077  -0.211  0.00  0.00    +0.001 A 
ATOM      7  C   UNL     1      -1.757  -3.366  -0.151  0.00  0.00    +0.010 A 
ATOM      8  C   UNL     1      -0.890  -2.295  -0.118  0.00  0.00    +0.024 A 
ATOM      9  C   UNL     1       0.604  -2.230  -0.053  0.00  0.00    +0.208 C 
ATOM     10  C   UNL     1       0.912  -0.746  -0.049  0.00  0.00    +0.266 C 
ATOM     11  O   UNL     1       2.013  -0.239  -0.006  0.00  0.00    -0.271 OA
ATOM     12  N   UNL     1       1.098  -2.843   1.181  0.00  0.00    -0.312 N 
ATOM     13  C   UNL     1       1.244  -4.225   1.235  0.00  0.00    +0.041 A 
ATOM     14  C   UNL     1       1.150  -4.920   2.429  0.00  0.00    +0.024 A 
ATOM     15  C   UNL     1       1.315  -6.292   2.436  0.00  0.00    +0.002 A 
ATOM     16  C   UNL     1       1.574  -6.977   1.259  0.00  0.00    +0.001 A 
ATOM     17  C   UNL     1       1.665  -6.300   0.061  0.00  0.00    +0.015 A 
ATOM     18  C   UNL     1       1.496  -4.917   0.038  0.00  0.00    +0.058 A 
ATOM     19  C   UNL     1       1.560  -4.155  -1.222  0.00  0.00    +0.251 C 
ATOM     20  O   UNL     1       1.929  -4.695  -2.247  0.00  0.00    -0.270 OA
ATOM     21  N   UNL     1       1.207  -2.853  -1.228  0.00  0.00    -0.265 N 
ATOM     22  H   UNL     1       1.321  -2.294   1.949  0.00  0.00    +0.149 HD
ENDROOT
BRANCH  21  23
ATOM     23  C   UNL     1       1.431  -2.052  -2.433  0.00  0.00    +0.112 C 
BRANCH  23  24
ATOM     24  C   UNL     1       0.196  -2.127  -3.333  0.00  0.00    +0.034 C 
BRANCH  24  25
ATOM     25  C   UNL     1       0.477  -1.397  -4.648  0.00  0.00    +0.086 C 
BRANCH  25  26
ATOM     26  N   UNL     1      -0.708  -1.470  -5.512  0.00  0.00    -0.298 NA
ATOM     27  C   UNL     1      -0.967  -2.854  -5.936  0.00  0.00    +0.112 C 
ATOM     28  C   UNL     1      -2.242  -2.892  -6.783  0.00  0.00    +0.175 C 
ATOM     29  O   UNL     1      -2.097  -2.004  -7.894  0.00  0.00    -0.377 OA
ATOM     30  C   UNL     1      -1.845  -0.647  -7.517  0.00  0.00    +0.175 C 
ATOM     31  C   UNL     1      -0.566  -0.586  -6.678  0.00  0.00    +0.112 C 
ENDBRANCH  25  26
ENDBRANCH  24  25
ENDBRANCH  23  24
ENDBRANCH  21  23
TORSDOF 4
