REMARK  Name = ZINC08969973
REMARK  8 active torsions:
REMARK  status: ('A' for Active; 'I' for Inactive)
REMARK    1  A    between atoms: C_3  and  S_6
REMARK    2  A    between atoms: S_6  and  C_9
REMARK    3  A    between atoms: C_9  and  C_11
REMARK    4  A    between atoms: C_9  and  C_28
REMARK    5  A    between atoms: C_11  and  N_12
REMARK    6  A    between atoms: C_13  and  C_15
REMARK    7  A    between atoms: N_17  and  C_18
REMARK    8  A    between atoms: C_18  and  C_19
REMARK                            x       y       z     vdW  Elec       q    Type
REMARK                         _______ _______ _______ _____ _____    ______ ____
ROOT
ATOM      1  C   UNL     1      10.567  -2.241  -0.273  0.00  0.00    +0.136 C 
ENDROOT
BRANCH   1   2
ATOM      2  N   UNL     1       9.622  -1.824   0.766  0.00  0.00    -0.305 N 
ATOM      3  C   UNL     1       8.318  -1.661   0.466  0.00  0.00    +0.299 C 
ATOM      4  O   UNL     1       7.927  -1.860  -0.665  0.00  0.00    -0.265 OA
ATOM      5  H   UNL     1       9.935  -1.665   1.671  0.00  0.00    +0.149 HD
BRANCH   3   6
ATOM      6  C   UNL     1       7.355  -1.236   1.526  0.00  0.00    +0.299 C 
ATOM      7  O   UNL     1       7.746  -1.037   2.658  0.00  0.00    -0.265 OA
ATOM      8  N   UNL     1       6.051  -1.073   1.226  0.00  0.00    -0.303 N 
ATOM      9  H   UNL     1       5.738  -1.231   0.322  0.00  0.00    +0.149 HD
BRANCH   8  10
ATOM     10  C   UNL     1       5.107  -0.655   2.265  0.00  0.00    +0.140 C 
BRANCH  10  11
ATOM     11  C   UNL     1       3.725  -0.548   1.674  0.00  0.00    -0.027 A 
ATOM     12  C   UNL     1       2.885  -1.646   1.677  0.00  0.00    +0.009 A 
ATOM     13  C   UNL     1       1.617  -1.553   1.135  0.00  0.00    +0.050 A 
ATOM     14  C   UNL     1       1.183  -0.356   0.589  0.00  0.00    +0.166 A 
ATOM     15  C   UNL     1       2.028   0.751   0.586  0.00  0.00    +0.167 A 
ATOM     16  C   UNL     1       3.298   0.650   1.131  0.00  0.00    +0.054 A 
ATOM     17  O   UNL     1       1.376   1.797  -0.001  0.00  0.00    -0.453 OA
ATOM     18  C   UNL     1      -0.018   1.436   0.010  0.00  0.00    +0.466 C 
ATOM     19  O   UNL     1       0.002  -0.004   0.002  0.00  0.00    -0.453 OA
ENDBRANCH  10  11
ENDBRANCH   8  10
ENDBRANCH   3   6
ENDBRANCH   1   2
BRANCH   1  20
ATOM     20  C   UNL     1      11.970  -2.350   0.327  0.00  0.00    +0.183 C 
BRANCH  20  21
ATOM     21  C   UNL     1      12.941  -2.780  -0.742  0.00  0.00    -0.018 A 
ATOM     22  C   UNL     1      12.764  -3.988  -1.390  0.00  0.00    +0.009 A 
ATOM     23  C   UNL     1      13.650  -4.384  -2.374  0.00  0.00    +0.050 A 
ATOM     24  C   UNL     1      14.724  -3.574  -2.707  0.00  0.00    +0.166 A 
ATOM     25  C   UNL     1      14.906  -2.360  -2.050  0.00  0.00    +0.167 A 
ATOM     26  C   UNL     1      14.011  -1.967  -1.068  0.00  0.00    +0.055 A 
ATOM     27  O   UNL     1      16.022  -1.755  -2.552  0.00  0.00    -0.453 OA
ATOM     28  C   UNL     1      16.290  -2.418  -3.801  0.00  0.00    +0.466 C 
ATOM     29  O   UNL     1      15.727  -3.731  -3.620  0.00  0.00    -0.453 OA
ENDBRANCH  20  21
BRANCH  20  30
ATOM     30  S   UNL     1      11.961  -3.576   1.664  0.00  0.00    +0.011 S 
ATOM     31  O   UNL     1      13.288  -3.821   2.112  0.00  0.00    -0.168 OA
ATOM     32  O   UNL     1      10.926  -3.282   2.592  0.00  0.00    -0.168 OA
BRANCH  30  35
ATOM     33  C   UNL     1      11.611  -7.151  -0.228  0.00  0.00    +0.009 A 
ATOM     34  C   UNL     1      12.227  -6.040   0.319  0.00  0.00    +0.035 A 
ATOM     35  C   UNL     1      11.462  -5.081   0.896  0.00  0.00    +0.126 A 
ATOM     36  S   UNL     1       9.818  -5.743   0.681  0.00  0.00    -0.078 S 
ATOM     37  C   UNL     1      10.261  -7.248  -0.170  0.00  0.00    +0.047 A 
ENDBRANCH  30  35
ENDBRANCH  20  30
ENDBRANCH   1  20
TORSDOF 8
