REMARK  Name = ZINC66443349
REMARK  7 active torsions:
REMARK  status: ('A' for Active; 'I' for Inactive)
REMARK    1  A    between atoms: C_1  and  C_2
REMARK    2  A    between atoms: C_15  and  C_17
REMARK    3  A    between atoms: C_17  and  C_18
REMARK    4  A    between atoms: C_18  and  C_19
REMARK    5  A    between atoms: N_21  and  C_22
REMARK    6  A    between atoms: C_22  and  C_23
REMARK    7  A    between atoms: C_23  and  C_28
REMARK                            x       y       z     vdW  Elec       q    Type
REMARK                         _______ _______ _______ _____ _____    ______ ____
ROOT
ATOM      1  C   UNL     1      -0.019   1.526   0.010  0.00  0.00    +0.008 C 
ATOM      2  C   UNL     1       0.002  -0.004   0.002  0.00  0.00    -0.009 C 
ATOM      3  C   UNL     1       0.726  -0.501  -1.253  0.00  0.00    +0.008 C 
ATOM      4  C   UNL     1       0.536  -2.011  -1.397  0.00  0.00    +0.037 C 
ATOM      5  C   UNL     1       0.949  -2.688  -0.093  0.00  0.00    -0.023 A 
ATOM      6  C   UNL     1       1.031  -1.976   1.055  0.00  0.00    -0.004 A 
ATOM      7  S   UNL     1       1.537  -3.145   2.292  0.00  0.00    -0.073 S 
ATOM      8  C   UNL     1       1.637  -4.581   1.270  0.00  0.00    +0.116 A 
ATOM      9  C   UNL     1       1.271  -4.101  -0.007  0.00  0.00    +0.075 A 
ATOM     10  C   UNL     1       1.257  -5.054  -1.081  0.00  0.00    +0.260 A 
ATOM     11  O   UNL     1       0.955  -4.742  -2.220  0.00  0.00    -0.267 OA
ATOM     12  N   UNL     1       1.599  -6.321  -0.747  0.00  0.00    -0.310 N 
ATOM     13  H   UNL     1       1.603  -6.997  -1.443  0.00  0.00    +0.170 HD
ATOM     14  C   UNL     1       1.938  -6.688   0.512  0.00  0.00    +0.111 A 
ATOM     15  N   UNL     1       1.962  -5.845   1.522  0.00  0.00    -0.227 NA
ATOM     16  C   UNL     1       0.751  -0.516   1.241  0.00  0.00    +0.046 C 
ENDROOT
BRANCH  14  17
ATOM     17  C   UNL     1       2.301  -8.127   0.768  0.00  0.00    +0.083 C 
BRANCH  17  18
ATOM     18  C   UNL     1       2.645  -8.311   2.248  0.00  0.00    +0.103 C 
BRANCH  18  19
ATOM     19  C   UNL     1       3.009  -9.751   2.504  0.00  0.00    +0.213 C 
ATOM     20  O   UNL     1       2.995 -10.551   1.593  0.00  0.00    -0.276 OA
ATOM     21  N   UNL     1       3.350 -10.149   3.746  0.00  0.00    -0.315 N 
ATOM     22  H   UNL     1       3.361  -9.509   4.474  0.00  0.00    +0.149 HD
BRANCH  21  23
ATOM     23  C   UNL     1       3.704 -11.549   3.995  0.00  0.00    +0.110 C 
BRANCH  23  24
ATOM     24  C   UNL     1       4.048 -11.732   5.474  0.00  0.00    -0.017 C 
ATOM     25  C   UNL     1       5.285 -10.886   5.838  0.00  0.00    +0.008 C 
ATOM     26  C   UNL     1       6.065 -11.767   6.846  0.00  0.00    +0.001 C 
ATOM     27  C   UNL     1       5.873 -13.193   6.273  0.00  0.00    +0.001 C 
ATOM     28  C   UNL     1       4.421 -13.199   5.750  0.00  0.00    +0.008 C 
ATOM     29  C   UNL     1       2.857 -11.322   6.343  0.00  0.00    +0.013 C 
ENDBRANCH  23  24
ENDBRANCH  21  23
ENDBRANCH  18  19
ENDBRANCH  17  18
ENDBRANCH  14  17
TORSDOF 5
