REMARK  Name = ZINC60613671
REMARK  4 active torsions:
REMARK  status: ('A' for Active; 'I' for Inactive)
REMARK    1  A    between atoms: C_4  and  C_7
REMARK    2  A    between atoms: C_7  and  O_8
REMARK    3  A    between atoms: O_8  and  C_9
REMARK    4  A    between atoms: C_15  and  C_17
REMARK                            x       y       z     vdW  Elec       q    Type
REMARK                         _______ _______ _______ _____ _____    ______ ____
ROOT
ATOM      1  C   UNL     1       4.891  -1.548   2.269  0.00  0.00    +0.122 C 
ATOM      2  C   UNL     1       4.638  -3.057   2.296  0.00  0.00    +0.050 C 
ATOM      3  C   UNL     1       5.936  -3.795   1.951  0.00  0.00    +0.110 C 
ATOM      4  N   UNL     1       6.994  -3.344   2.866  0.00  0.00    -0.297 N 
ATOM      5  C   UNL     1       7.258  -1.903   2.985  0.00  0.00    +0.110 C 
ATOM      6  C   UNL     1       5.945  -1.187   3.319  0.00  0.00    +0.050 C 
ATOM      7  C   UNL     1       7.707  -4.234   3.583  0.00  0.00    +0.247 C 
ATOM      8  O   UNL     1       8.625  -3.854   4.284  0.00  0.00    -0.270 OA
ENDROOT
BRANCH   7   9
ATOM      9  C   UNL     1       7.374  -5.676   3.516  0.00  0.00    +0.039 A 
ATOM     10  C   UNL     1       7.248  -6.303   2.267  0.00  0.00    +0.014 A 
ATOM     11  C   UNL     1       6.942  -7.627   2.180  0.00  0.00    +0.016 A 
ATOM     12  C   UNL     1       6.749  -8.378   3.348  0.00  0.00    +0.065 A 
ATOM     13  C   UNL     1       6.873  -7.757   4.618  0.00  0.00    +0.080 A 
ATOM     14  C   UNL     1       7.194  -6.393   4.687  0.00  0.00    +0.041 A 
ATOM     15  N   UNL     1       6.686  -8.489   5.725  0.00  0.00    -0.223 NA
ATOM     16  C   UNL     1       6.389  -9.777   5.643  0.00  0.00    +0.180 A 
ATOM     17  N   UNL     1       6.261 -10.412   4.466  0.00  0.00    -0.301 N 
ATOM     18  H   UNL     1       6.042 -11.357   4.453  0.00  0.00    +0.171 HD
ATOM     19  C   UNL     1       6.431  -9.752   3.300  0.00  0.00    +0.260 A 
ATOM     20  O   UNL     1       6.303 -10.389   2.122  0.00  0.00    -0.267 OA
ATOM     21  S   UNL     1       6.160 -10.665   7.088  0.00  0.00    -0.011 S 
ENDBRANCH   7   9
BRANCH   1  22
ATOM     22  O   UNL     1       3.675  -0.856   2.559  0.00  0.00    -0.372 OA
BRANCH  22  23
ATOM     23  C   UNL     1       2.891  -0.551   1.404  0.00  0.00    +0.195 C 
BRANCH  23  27
ATOM     24  C   UNL     1      -0.660   1.504   2.594  0.00  0.00    +0.000 A 
ATOM     25  C   UNL     1       0.484   2.219   2.293  0.00  0.00    +0.000 A 
ATOM     26  C   UNL     1       1.633   1.554   1.908  0.00  0.00    +0.006 A 
ATOM     27  C   UNL     1       1.638   0.174   1.824  0.00  0.00    -0.022 A 
ATOM     28  C   UNL     1       0.494  -0.541   2.126  0.00  0.00    +0.006 A 
ATOM     29  C   UNL     1      -0.655   0.124   2.510  0.00  0.00    +0.000 A 
ENDBRANCH  23  27
ENDBRANCH  22  23
ENDBRANCH   1  22
TORSDOF 4
