REMARK  Name = ZINC09531055
REMARK  6 active torsions:
REMARK  status: ('A' for Active; 'I' for Inactive)
REMARK    1  A    between atoms: C_1  and  C_2
REMARK    2  A    between atoms: C_2  and  C_27
REMARK    3  A    between atoms: N_5  and  C_9
REMARK    4  A    between atoms: C_9  and  C_10
REMARK    5  A    between atoms: C_14  and  C_23
REMARK    6  A    between atoms: N_25  and  C_26
REMARK                            x       y       z     vdW  Elec       q    Type
REMARK                         _______ _______ _______ _____ _____    ______ ____
ROOT
ATOM      1  C   UNL     1      -3.621   2.199  -2.796  0.00  0.00    +0.047 C 
ATOM      2  C   UNL     1      -2.164   1.760  -2.950  0.00  0.00    +0.135 C 
ATOM      3  C   UNL     1      -1.739   0.889  -1.784  0.00  0.00    +0.251 C 
ATOM      4  O   UNL     1      -2.205  -0.182  -1.462  0.00  0.00    -0.272 OA
ATOM      5  N   UNL     1      -0.735   1.555  -1.179  0.00  0.00    -0.215 N 
ATOM      6  C   UNL     1      -0.465   2.710  -1.798  0.00  0.00    +0.310 C 
ATOM      7  O   UNL     1       0.402   3.482  -1.440  0.00  0.00    -0.252 OA
ATOM      8  N   UNL     1      -1.261   2.921  -2.862  0.00  0.00    -0.281 N 
ATOM      9  H   UNL     1      -1.244   3.687  -3.456  0.00  0.00    +0.152 HD
ENDROOT
BRANCH   2  10
ATOM     10  C   UNL     1      -1.966   1.032  -4.254  0.00  0.00    -0.015 A 
ATOM     11  C   UNL     1      -2.162  -0.347  -4.307  0.00  0.00    +0.007 A 
ATOM     12  C   UNL     1      -1.992  -1.035  -5.469  0.00  0.00    +0.009 A 
ATOM     13  C   UNL     1      -1.613  -0.348  -6.635  0.00  0.00    -0.018 A 
ATOM     14  C   UNL     1      -1.429  -1.024  -7.853  0.00  0.00    +0.008 A 
ATOM     15  C   UNL     1      -1.061  -0.326  -8.962  0.00  0.00    +0.001 A 
ATOM     16  C   UNL     1      -0.864   1.053  -8.909  0.00  0.00    +0.001 A 
ATOM     17  C   UNL     1      -1.034   1.741  -7.747  0.00  0.00    +0.008 A 
ATOM     18  C   UNL     1      -1.413   1.054  -6.581  0.00  0.00    -0.018 A 
ATOM     19  C   UNL     1      -1.603   1.731  -5.364  0.00  0.00    +0.014 A 
ENDBRANCH   2  10
BRANCH   5  20
ATOM     20  C   UNL     1      -0.024   1.072   0.007  0.00  0.00    +0.214 C 
BRANCH  20  21
ATOM     21  C   UNL     1      -0.718   1.572   1.248  0.00  0.00    +0.238 C 
ATOM     22  O   UNL     1      -1.651   2.341   1.153  0.00  0.00    -0.274 OA
ATOM     23  N   UNL     1      -0.302   1.164   2.463  0.00  0.00    -0.263 N 
ATOM     24  C   UNL     1       0.900   0.327   2.616  0.00  0.00    +0.168 C 
ATOM     25  C   UNL     1       1.684   0.865   3.827  0.00  0.00    +0.276 C 
ATOM     26  O   UNL     1       0.839   0.811   4.980  0.00  0.00    -0.476 OA
ATOM     27  C   UNL     1      -0.410   1.336   4.875  0.00  0.00    +0.143 A 
ATOM     28  C   UNL     1      -1.004   1.518   3.628  0.00  0.00    +0.078 A 
ATOM     29  C   UNL     1      -2.282   2.046   3.537  0.00  0.00    +0.027 A 
ATOM     30  C   UNL     1      -2.967   2.395   4.686  0.00  0.00    +0.002 A 
ATOM     31  C   UNL     1      -2.378   2.218   5.924  0.00  0.00    +0.004 A 
ATOM     32  C   UNL     1      -1.104   1.691   6.021  0.00  0.00    +0.047 A 
BRANCH  25  33
ATOM     33  C   UNL     1       2.905   0.013   4.056  0.00  0.00    +0.255 C 
ATOM     34  O   UNL     1       2.999  -0.654   5.064  0.00  0.00    -0.272 OA
ATOM     35  N   UNL     1       3.894  -0.007   3.140  0.00  0.00    -0.315 N 
ATOM     36  C   UNL     1       5.082  -0.836   3.362  0.00  0.00    +0.128 C 
ATOM     37  H   UNL     1       3.819   0.527   2.334  0.00  0.00    +0.148 HD
ENDBRANCH  25  33
ENDBRANCH  20  21
ENDBRANCH   5  20
TORSDOF 4
