REMARK  Name = ZINC03350167
REMARK  7 active torsions:
REMARK  status: ('A' for Active; 'I' for Inactive)
REMARK    1  A    between atoms: C_1  and  C_2
REMARK    2  A    between atoms: C_7  and  S_8
REMARK    3  A    between atoms: S_8  and  N_11
REMARK    4  A    between atoms: N_11  and  C_12
REMARK    5  A    between atoms: N_22  and  C_23
REMARK    6  A    between atoms: C_23  and  C_24
REMARK    7  A    between atoms: C_24  and  O_25
REMARK                            x       y       z     vdW  Elec       q    Type
REMARK                         _______ _______ _______ _____ _____    ______ ____
ROOT
ATOM      1  C   UNL     1       1.727   1.800   3.914  0.00  0.00    +0.203 A 
ATOM      2  C   UNL     1       2.943   2.524   3.976  0.00  0.00    +0.163 A 
ATOM      3  N   UNL     1       3.220   3.274   5.022  0.00  0.00    -0.227 NA
ATOM      4  C   UNL     1       2.344   3.354   6.035  0.00  0.00    +0.091 A 
ATOM      5  C   UNL     1       2.616   4.147   7.161  0.00  0.00    +0.030 A 
ATOM      6  C   UNL     1       1.710   4.213   8.177  0.00  0.00    +0.002 A 
ATOM      7  C   UNL     1       0.515   3.501   8.116  0.00  0.00    +0.002 A 
ATOM      8  C   UNL     1       0.219   2.722   7.039  0.00  0.00    +0.030 A 
ATOM      9  C   UNL     1       1.129   2.631   5.973  0.00  0.00    +0.092 A 
ATOM     10  N   UNL     1       0.857   1.874   4.900  0.00  0.00    -0.224 NA
ATOM     11  N   UNL     1       3.848   2.441   2.929  0.00  0.00    -0.324 N 
ATOM     12  H   UNL     1       3.648   1.889   2.157  0.00  0.00    +0.148 HD
ENDROOT
BRANCH   1  13
ATOM     13  N   UNL     1       1.449   1.014   2.806  0.00  0.00    -0.074 NA
BRANCH  13  14
ATOM     14  S   UNL     1       0.026   0.171   2.726  0.00  0.00    +0.093 S 
ATOM     15  O   UNL     1      -1.014   1.137   2.645  0.00  0.00    -0.148 OA
ATOM     16  O   UNL     1       0.076  -0.810   3.753  0.00  0.00    -0.148 OA
BRANCH  14  23
ATOM     17  C   UNL     1      -0.018   1.503   0.010  0.00  0.00    +0.046 C 
ATOM     18  C   UNL     1       0.002  -0.004   0.002  0.00  0.00    -0.024 A 
ATOM     19  C   UNL     1       0.006  -0.689  -1.199  0.00  0.00    +0.005 A 
ATOM     20  C   UNL     1       0.025  -2.071  -1.207  0.00  0.00    +0.000 A 
ATOM     21  C   UNL     1       0.040  -2.768  -0.013  0.00  0.00    +0.002 A 
ATOM     22  C   UNL     1       0.037  -2.084   1.188  0.00  0.00    +0.029 A 
ATOM     23  C   UNL     1       0.023  -0.702   1.195  0.00  0.00    +0.113 A 
ENDBRANCH  14  23
ENDBRANCH  13  14
ENDBRANCH   1  13
BRANCH  11  24
ATOM     24  C   UNL     1       5.107   3.187   2.988  0.00  0.00    +0.131 C 
BRANCH  24  25
ATOM     25  C   UNL     1       5.917   2.924   1.717  0.00  0.00    +0.174 C 
BRANCH  25  26
ATOM     26  O   UNL     1       5.218   3.452   0.589  0.00  0.00    -0.393 OA
ATOM     27  H   UNL     1       5.674   3.320  -0.254  0.00  0.00    +0.209 HD
ENDBRANCH  25  26
ENDBRANCH  24  25
ENDBRANCH  11  24
TORSDOF 6
