REMARK  Name = ZINC12973938
REMARK  4 active torsions:
REMARK  status: ('A' for Active; 'I' for Inactive)
REMARK    1  A    between atoms: C_1  and  O_2
REMARK    2  A    between atoms: O_2  and  C_3
REMARK    3  A    between atoms: C_7  and  C_14
REMARK    4  A    between atoms: C_15  and  O_23
REMARK                            x       y       z     vdW  Elec       q    Type
REMARK                         _______ _______ _______ _____ _____    ______ ____
ROOT
ATOM      1  C   UNL     1      -1.201  -0.638  -0.110  0.00  0.00    +0.124 A 
ATOM      2  C   UNL     1      -2.376   0.109  -0.102  0.00  0.00    +0.046 A 
ATOM      3  C   UNL     1      -3.591  -0.514  -0.056  0.00  0.00    +0.016 A 
ATOM      4  C   UNL     1      -3.654  -1.908  -0.016  0.00  0.00    +0.026 A 
ATOM      5  C   UNL     1      -4.952  -2.608   0.033  0.00  0.00    +0.010 A 
ATOM      6  C   UNL     1      -4.936  -3.998   0.070  0.00  0.00    +0.101 A 
ATOM      7  C   UNL     1      -3.711  -4.673   0.059  0.00  0.00    +0.338 A 
ATOM      8  O   UNL     1      -3.707  -5.892   0.092  0.00  0.00    -0.245 OA
ATOM      9  O   UNL     1      -2.540  -4.018   0.014  0.00  0.00    -0.422 OA
ATOM     10  C   UNL     1      -2.474  -2.669  -0.024  0.00  0.00    +0.143 A 
ATOM     11  C   UNL     1      -1.248  -2.022  -0.076  0.00  0.00    +0.092 A 
ENDROOT
BRANCH   5  12
ATOM     12  C   UNL     1      -6.215  -1.864   0.044  0.00  0.00    +0.063 A 
ATOM     13  C   UNL     1      -7.495  -2.356  -0.042  0.00  0.00    +0.139 A 
ATOM     14  C   UNL     1      -8.604  -1.416  -0.011  0.00  0.00    +0.031 A 
ATOM     15  C   UNL     1      -9.993  -1.689  -0.084  0.00  0.00    +0.012 A 
ATOM     16  C   UNL     1     -10.902  -0.680  -0.041  0.00  0.00    +0.001 A 
ATOM     17  C   UNL     1     -10.509   0.647   0.076  0.00  0.00    +0.001 A 
ATOM     18  C   UNL     1      -9.166   0.955   0.151  0.00  0.00    +0.016 A 
ATOM     19  C   UNL     1      -8.231  -0.059   0.108  0.00  0.00    +0.024 A 
ATOM     20  S   UNL     1      -6.459  -0.103   0.178  0.00  0.00    -0.084 S 
BRANCH  13  21
ATOM     21  O   UNL     1      -7.719  -3.691  -0.154  0.00  0.00    -0.505 OA
ATOM     22  H   UNL     1      -7.817  -4.146   0.694  0.00  0.00    +0.292 HD
ENDBRANCH  13  21
ENDBRANCH   5  12
BRANCH   1  24
ATOM     23  C   UNL     1      -0.020   1.422  -0.189  0.00  0.00    +0.277 C 
ATOM     24  O   UNL     1      -0.000  -0.006  -0.156  0.00  0.00    -0.495 OA
ENDBRANCH   1  24
TORSDOF 3
