REMARK  Name = ZINC54647194
REMARK  13 active torsions:
REMARK  status: ('A' for Active; 'I' for Inactive)
REMARK    1  A    between atoms: C_1  and  C_2
REMARK    2  A    between atoms: C_3  and  C_31
REMARK    3  A    between atoms: C_4  and  C_27
REMARK    4  A    between atoms: C_5  and  N_7
REMARK    5  A    between atoms: C_8  and  C_10
REMARK    6  A    between atoms: C_10  and  C_11
REMARK    7  A    between atoms: C_11  and  C_12
REMARK    8  A    between atoms: C_12  and  N_13
REMARK    9  A    between atoms: C_20  and  C_26
REMARK   10  A    between atoms: C_23  and  C_24
REMARK   11  A    between atoms: C_23  and  C_25
REMARK   12  A    between atoms: C_27  and  O_29
REMARK   13  A    between atoms: O_29  and  C_30
REMARK                            x       y       z     vdW  Elec       q    Type
REMARK                         _______ _______ _______ _____ _____    ______ ____
ROOT
ATOM      1  N   UNL     1       1.229  -3.836  -0.026  0.00  0.00    -0.279 N 
ATOM      2  C   UNL     1       2.571  -3.955  -0.032  0.00  0.00    +0.218 C 
ATOM      3  O   UNL     1       3.268  -2.962  -0.030  0.00  0.00    -0.275 OA
ATOM      4  H   UNL     1       0.672  -4.630  -0.028  0.00  0.00    +0.155 HD
ENDROOT
BRANCH   1   9
ATOM      5  C   UNL     1      -0.018   1.503   0.010  0.00  0.00    +0.052 C 
ATOM      6  C   UNL     1       0.002  -0.004   0.002  0.00  0.00    -0.003 A 
ATOM      7  C   UNL     1      -1.052  -0.861   0.002  0.00  0.00    +0.008 A 
ATOM      8  C   UNL     1      -0.707  -2.272  -0.008  0.00  0.00    +0.095 A 
ATOM      9  C   UNL     1       0.644  -2.580  -0.016  0.00  0.00    +0.087 A 
ATOM     10  S   UNL     1       1.412  -1.089  -0.018  0.00  0.00    -0.077 S 
BRANCH   7  11
ATOM     11  C   UNL     1      -2.457  -0.389   0.011  0.00  0.00    -0.015 A 
ATOM     12  C   UNL     1      -3.275  -0.650   1.110  0.00  0.00    +0.008 A 
ATOM     13  C   UNL     1      -4.582  -0.208   1.114  0.00  0.00    +0.002 A 
ATOM     14  C   UNL     1      -5.082   0.493   0.031  0.00  0.00    +0.020 A 
ATOM     15  C   UNL     1      -4.275   0.755  -1.063  0.00  0.00    +0.042 A 
ATOM     16  C   UNL     1      -2.963   0.323  -1.075  0.00  0.00    +0.028 A 
ATOM     17 CL   UNL     1      -4.910   1.635  -2.418  0.00  0.00    -0.084 Cl
ENDBRANCH   7  11
BRANCH   8  18
ATOM     18  C   UNL     1      -1.734  -3.314  -0.009  0.00  0.00    +0.342 C 
ATOM     19  O   UNL     1      -2.166  -3.742  -1.062  0.00  0.00    -0.245 OA
BRANCH  18  20
ATOM     20  O   UNL     1      -2.201  -3.801   1.159  0.00  0.00    -0.464 OA
ATOM     21  C   UNL     1      -3.203  -4.818   1.084  0.00  0.00    +0.280 C 
ENDBRANCH  18  20
ENDBRANCH   8  18
ENDBRANCH   1   9
BRANCH   2  22
ATOM     22  C   UNL     1       3.207  -5.321  -0.043  0.00  0.00    +0.097 C 
BRANCH  22  23
ATOM     23  C   UNL     1       4.730  -5.175  -0.049  0.00  0.00    +0.029 C 
BRANCH  23  24
ATOM     24  C   UNL     1       5.376  -6.562  -0.060  0.00  0.00    +0.117 C 
BRANCH  24  25
ATOM     25  N   UNL     1       6.834  -6.422  -0.066  0.00  0.00    -0.241 N 
ATOM     26  C   UNL     1       7.475  -6.347  -1.247  0.00  0.00    +0.225 C 
ATOM     27  O   UNL     1       6.847  -6.352  -2.284  0.00  0.00    -0.275 OA
ATOM     28  C   UNL     1       8.991  -6.257  -1.272  0.00  0.00    +0.082 C 
ATOM     29  C   UNL     1       9.362  -4.813  -0.855  0.00  0.00    +0.014 C 
ATOM     30  C   UNL     1       9.368  -4.804   0.685  0.00  0.00    +0.017 C 
ATOM     31  C   UNL     1       9.000  -6.244   1.121  0.00  0.00    +0.051 C 
ATOM     32  C   UNL     1       7.487  -6.366   1.110  0.00  0.00    +0.228 C 
ATOM     33  O   UNL     1       6.869  -6.388   2.152  0.00  0.00    -0.275 OA
ATOM     34  C   UNL     1       9.490  -7.130  -0.087  0.00  0.00    -0.010 C 
ATOM     35  C   UNL     1      11.015  -7.253  -0.096  0.00  0.00    +0.012 C 
ATOM     36  C   UNL     1       8.827  -8.508  -0.098  0.00  0.00    +0.012 C 
ATOM     37  C   UNL     1       9.613  -6.639   2.466  0.00  0.00    +0.021 C 
ENDBRANCH  24  25
ENDBRANCH  23  24
ENDBRANCH  22  23
ENDBRANCH   2  22
TORSDOF 8
