REMARK  Name = ZINC39693490
REMARK  13 active torsions:
REMARK  status: ('A' for Active; 'I' for Inactive)
REMARK    1  A    between atoms: C_1  and  C_2
REMARK    2  A    between atoms: C_2  and  S_3
REMARK    3  A    between atoms: S_3  and  C_4
REMARK    4  A    between atoms: C_5  and  C_10
REMARK    5  A    between atoms: C_14  and  C_23
REMARK    6  A    between atoms: N_25  and  C_26
REMARK    7  A    between atoms: C_26  and  C_27
REMARK    8  A    between atoms: C_27  and  N_28
REMARK    9  A    between atoms: C_29  and  O_31
REMARK   10  A    between atoms: O_31  and  C_32
REMARK   11  A    between atoms: C_32  and  C_33
REMARK   12  A    between atoms: C_32  and  C_34
REMARK   13  A    between atoms: C_32  and  C_35
REMARK                            x       y       z     vdW  Elec       q    Type
REMARK                         _______ _______ _______ _____ _____    ______ ____
ROOT
ATOM      1  C   UNL     1      -3.841  -2.757   0.089  0.00  0.00    +0.249 C 
ATOM      2  O   UNL     1      -3.941  -1.545   0.121  0.00  0.00    -0.270 OA
ATOM      3  N   UNL     1      -4.941  -3.520  -0.063  0.00  0.00    -0.296 N 
ATOM      4  C   UNL     1      -5.034  -4.999  -0.020  0.00  0.00    +0.121 C 
ATOM      5  C   UNL     1      -6.352  -5.285   0.734  0.00  0.00    +0.100 C 
ATOM      6  C   UNL     1      -7.200  -4.017   0.538  0.00  0.00    -0.004 C 
ATOM      7  C   UNL     1      -6.333  -3.070  -0.305  0.00  0.00    +0.115 C 
ATOM      8  C   UNL     1      -7.513  -3.377   1.887  0.00  0.00    -0.010 C 
ATOM      9  C   UNL     1      -8.404  -2.150   1.670  0.00  0.00    -0.082 C 
ATOM     10  N   UNL     1      -9.645  -2.558   1.000  0.00  0.00    +0.379 N 
ATOM     11  C   UNL     1      -9.342  -3.087  -0.336  0.00  0.00    -0.082 C 
ATOM     12  C   UNL     1      -8.490  -4.353  -0.204  0.00  0.00    -0.010 C 
ATOM     13  H   UNL     1     -10.103  -3.271   1.547  0.00  0.00    -0.086 HD
ATOM     14  H   UNL     1     -10.256  -1.759   0.913  0.00  0.00    -0.086 HD
ENDROOT
BRANCH   1  16
ATOM     15  C   UNL     1      -1.536  -2.838   1.060  0.00  0.00    +0.109 A 
ATOM     16  C   UNL     1      -2.516  -3.391   0.217  0.00  0.00    +0.069 A 
ATOM     17  C   UNL     1      -2.211  -4.554  -0.499  0.00  0.00    +0.017 A 
ATOM     18  C   UNL     1      -0.953  -5.110  -0.344  0.00  0.00    +0.020 A 
ATOM     19  C   UNL     1      -0.042  -4.508   0.505  0.00  0.00    +0.112 A 
ATOM     20  N   UNL     1      -0.346  -3.410   1.167  0.00  0.00    -0.248 NA
BRANCH  15  21
ATOM     21  S   UNL     1      -1.891  -1.374   1.974  0.00  0.00    -0.105 S 
BRANCH  21  23
ATOM     22  C   UNL     1      -0.531   0.217   3.736  0.00  0.00    +0.015 C 
ATOM     23  C   UNL     1      -0.359  -1.046   2.889  0.00  0.00    +0.072 C 
ENDBRANCH  21  23
ENDBRANCH  15  21
ENDBRANCH   1  16
BRANCH   5  24
ATOM     24  C   UNL     1      -7.048  -6.482   0.138  0.00  0.00    +0.218 C 
ATOM     25  O   UNL     1      -6.926  -6.729  -1.043  0.00  0.00    -0.275 OA
ATOM     26  N   UNL     1      -7.807  -7.277   0.918  0.00  0.00    -0.314 N 
ATOM     27  H   UNL     1      -7.905  -7.080   1.862  0.00  0.00    +0.149 HD
BRANCH  26  28
ATOM     28  C   UNL     1      -8.483  -8.441   0.338  0.00  0.00    +0.123 C 
BRANCH  28  29
ATOM     29  C   UNL     1      -9.271  -9.168   1.430  0.00  0.00    +0.126 C 
BRANCH  29  30
ATOM     30  N   UNL     1      -9.948 -10.331   0.850  0.00  0.00    -0.280 N 
ATOM     31  C   UNL     1     -10.706 -11.127   1.630  0.00  0.00    +0.401 C 
ATOM     32  O   UNL     1     -10.829 -10.880   2.813  0.00  0.00    -0.226 OA
ATOM     33  H   UNL     1      -9.850 -10.529  -0.094  0.00  0.00    +0.152 HD
BRANCH  31  34
ATOM     34  O   UNL     1     -11.328 -12.196   1.098  0.00  0.00    -0.445 OA
BRANCH  34  35
ATOM     35  C   UNL     1     -12.116 -12.995   1.982  0.00  0.00    +0.107 C 
ATOM     36  C   UNL     1     -13.225 -12.137   2.594  0.00  0.00    +0.055 C 
ATOM     37  C   UNL     1     -12.739 -14.155   1.203  0.00  0.00    +0.055 C 
ATOM     38  C   UNL     1     -11.226 -13.550   3.097  0.00  0.00    +0.055 C 
ENDBRANCH  34  35
ENDBRANCH  31  34
ENDBRANCH  29  30
ENDBRANCH  28  29
ENDBRANCH  26  28
ENDBRANCH   5  24
TORSDOF 9
