REMARK  Name = ZINC14248335
REMARK  10 active torsions:
REMARK  status: ('A' for Active; 'I' for Inactive)
REMARK    1  A    between atoms: C_1  and  C_2
REMARK    2  A    between atoms: C_2  and  C_3
REMARK    3  A    between atoms: C_2  and  C_4
REMARK    4  A    between atoms: C_7  and  S_10
REMARK    5  A    between atoms: S_10  and  N_13
REMARK    6  A    between atoms: C_16  and  C_19
REMARK    7  A    between atoms: N_21  and  C_22
REMARK    8  A    between atoms: C_22  and  C_23
REMARK    9  A    between atoms: C_23  and  C_25
REMARK   10  A    between atoms: C_23  and  N_71
REMARK                            x       y       z     vdW  Elec       q    Type
REMARK                         _______ _______ _______ _____ _____    ______ ____
ROOT
ATOM      1  N   UNL     1       1.296   3.380   2.791  0.00  0.00    -0.177 NA
ATOM      2  C   UNL     1      -0.038   3.825   3.215  0.00  0.00    +0.110 C 
ATOM      3  C   UNL     1       0.025   5.307   3.581  0.00  0.00    +0.030 C 
ATOM      4  C   UNL     1       1.122   5.526   4.625  0.00  0.00    +0.077 C 
ATOM      5  C   UNL     1       2.475   5.113   4.040  0.00  0.00    +0.030 C 
ATOM      6  C   UNL     1       2.439   3.624   3.682  0.00  0.00    +0.110 C 
ENDROOT
BRANCH   4   7
ATOM      7  C   UNL     1       1.165   6.982   5.010  0.00  0.00    +0.216 C 
ATOM      8  O   UNL     1       2.178   7.627   4.834  0.00  0.00    -0.276 OA
ATOM      9  N   UNL     1       0.079   7.569   5.550  0.00  0.00    -0.316 N 
ATOM     10  H   UNL     1      -0.731   7.054   5.690  0.00  0.00    +0.149 HD
BRANCH   9  11
ATOM     11  C   UNL     1       0.120   8.985   5.924  0.00  0.00    +0.096 C 
BRANCH  11  12
ATOM     12  C   UNL     1      -1.185   9.366   6.625  0.00  0.00    +0.016 C 
BRANCH  12  18
ATOM     13  C   UNL     1      -2.245   9.684   4.472  0.00  0.00    -0.078 C 
ATOM     14  C   UNL     1      -3.361   9.174   3.558  0.00  0.00    -0.019 C 
ATOM     15  C   UNL     1      -4.717   9.445   4.217  0.00  0.00    -0.004 C 
ATOM     16  C   UNL     1      -4.755   8.765   5.588  0.00  0.00    -0.019 C 
ATOM     17  C   UNL     1      -3.598   9.287   6.443  0.00  0.00    -0.078 C 
ATOM     18  N   UNL     1      -2.321   8.974   5.766  0.00  0.00    +0.387 N 
ATOM     19  H   UNL     1      -2.276   7.962   5.594  0.00  0.00    -0.081 HD
ENDBRANCH  12  18
BRANCH  12  20
ATOM     20  C   UNL     1      -1.286   8.628   7.935  0.00  0.00    +0.093 A 
ATOM     21  C   UNL     1      -0.997   9.135   9.147  0.00  0.00    +0.043 A 
ATOM     22  C   UNL     1      -1.232   8.106  10.088  0.00  0.00    +0.041 A 
ATOM     23  C   UNL     1      -1.642   7.029   9.393  0.00  0.00    +0.195 A 
ATOM     24  O   UNL     1      -1.672   7.351   8.090  0.00  0.00    -0.469 OA
ENDBRANCH  12  20
ENDBRANCH  11  12
ENDBRANCH   9  11
ENDBRANCH   4   7
BRANCH   1  25
ATOM     25  S   UNL     1       1.509   2.623   1.333  0.00  0.00    +0.061 S 
ATOM     26  O   UNL     1       2.865   2.829   0.963  0.00  0.00    -0.153 OA
ATOM     27  O   UNL     1       0.425   3.021   0.506  0.00  0.00    -0.153 OA
BRANCH  25  31
ATOM     28  C   UNL     1       1.025  -1.821   2.049  0.00  0.00    -0.045 A 
ATOM     29  C   UNL     1      -0.075  -1.050   1.721  0.00  0.00    +0.006 A 
ATOM     30  C   UNL     1       0.073   0.307   1.502  0.00  0.00    +0.029 A 
ATOM     31  C   UNL     1       1.321   0.893   1.612  0.00  0.00    +0.105 A 
ATOM     32  C   UNL     1       2.420   0.122   1.940  0.00  0.00    +0.029 A 
ATOM     33  C   UNL     1       2.272  -1.235   2.159  0.00  0.00    +0.006 A 
BRANCH  28  35
ATOM     34  C   UNL     1       1.724  -4.075   1.289  0.00  0.00    +0.012 C 
ATOM     35  C   UNL     1       0.863  -3.300   2.288  0.00  0.00    +0.013 C 
ATOM     36  C   UNL     1       1.307  -3.638   3.713  0.00  0.00    +0.012 C 
ENDBRANCH  28  35
ENDBRANCH  25  31
ENDBRANCH   1  25
TORSDOF 8
