REMARK  Name = ZINC35829544
REMARK  7 active torsions:
REMARK  status: ('A' for Active; 'I' for Inactive)
REMARK    1  A    between atoms: C_1  and  C_2
REMARK    2  A    between atoms: C_2  and  C_3
REMARK    3  A    between atoms: C_3  and  N_4
REMARK    4  A    between atoms: C_8  and  C_9
REMARK    5  A    between atoms: C_10  and  C_22
REMARK    6  A    between atoms: N_12  and  C_15
REMARK    7  A    between atoms: C_20  and  C_21
REMARK                            x       y       z     vdW  Elec       q    Type
REMARK                         _______ _______ _______ _____ _____    ______ ____
ROOT
ATOM      1  C   UNL     1      -0.321  -7.193   1.912  0.00  0.00    +0.071 A 
ATOM      2  C   UNL     1       0.115  -8.323   2.743  0.00  0.00    +0.104 A 
ATOM      3  N   UNL     1       0.777  -9.146   1.961  0.00  0.00    -0.162 NA
ATOM      4  N   UNL     1       0.806  -8.630   0.663  0.00  0.00    -0.195 N 
ATOM      5  C   UNL     1       0.142  -7.456   0.625  0.00  0.00    +0.281 A 
ATOM      6  O   UNL     1      -0.039  -6.674  -0.465  0.00  0.00    -0.265 OA
ENDROOT
BRANCH   1  11
ATOM      7  N   UNL     1      -0.537  -2.559   1.859  0.00  0.00    -0.221 N 
ATOM      8  C   UNL     1      -1.294  -3.548   2.373  0.00  0.00    +0.268 C 
ATOM      9  O   UNL     1      -2.323  -3.414   3.012  0.00  0.00    -0.268 OA
ATOM     10  C   UNL     1      -0.667  -4.775   2.030  0.00  0.00    +0.099 C 
ATOM     11  C   UNL     1      -1.091  -6.029   2.347  0.00  0.00    +0.044 C 
ATOM     12  N   UNL     1       0.480  -4.430   1.298  0.00  0.00    -0.265 N 
ATOM     13  C   UNL     1       0.517  -3.086   1.214  0.00  0.00    +0.313 C 
ATOM     14  O   UNL     1       1.378  -2.445   0.642  0.00  0.00    -0.252 OA
ATOM     15  H   UNL     1       1.126  -5.046   0.919  0.00  0.00    +0.157 HD
BRANCH   7  16
ATOM     16  C   UNL     1      -0.824  -1.127   1.979  0.00  0.00    +0.118 C 
BRANCH  16  18
ATOM     17  C   UNL     1      -1.992   0.814   0.928  0.00  0.00    +0.005 C 
ATOM     18  C   UNL     1      -1.694  -0.681   0.802  0.00  0.00    +0.016 C 
ENDBRANCH  16  18
ENDBRANCH   7  16
ENDBRANCH   1  11
BRANCH   4  19
ATOM     19  C   UNL     1       1.426  -9.242  -0.434  0.00  0.00    +0.072 A 
ATOM     20  C   UNL     1       0.749  -9.359  -1.641  0.00  0.00    +0.028 A 
ATOM     21  C   UNL     1       1.363  -9.962  -2.720  0.00  0.00    +0.002 A 
ATOM     22  C   UNL     1       2.652 -10.449  -2.601  0.00  0.00    +0.000 A 
ATOM     23  C   UNL     1       3.329 -10.334  -1.401  0.00  0.00    +0.005 A 
ATOM     24  C   UNL     1       2.722  -9.727  -0.319  0.00  0.00    -0.025 A 
ATOM     25  C   UNL     1       3.464  -9.596   0.986  0.00  0.00    +0.046 C 
ENDBRANCH   4  19
BRANCH   2  26
ATOM     26  C   UNL     1      -0.143  -8.502   4.191  0.00  0.00    +0.003 A 
ATOM     27  C   UNL     1      -0.174  -7.394   5.038  0.00  0.00    +0.011 A 
ATOM     28  C   UNL     1      -0.414  -7.566   6.386  0.00  0.00    +0.020 A 
ATOM     29  C   UNL     1      -0.625  -8.835   6.897  0.00  0.00    +0.041 A 
ATOM     30  C   UNL     1      -0.595  -9.938   6.061  0.00  0.00    +0.020 A 
ATOM     31  C   UNL     1      -0.362  -9.777   4.711  0.00  0.00    +0.011 A 
ATOM     32 CL   UNL     1      -0.926  -9.044   8.594  0.00  0.00    -0.084 Cl
ENDBRANCH   2  26
TORSDOF 5
