REMARK  Name = ZINC29991274
REMARK  7 active torsions:
REMARK  status: ('A' for Active; 'I' for Inactive)
REMARK    1  A    between atoms: C_2  and  C_3
REMARK    2  A    between atoms: C_3  and  N_4
REMARK    3  A    between atoms: C_5  and  C_27
REMARK    4  A    between atoms: C_8  and  S_9
REMARK    5  A    between atoms: S_9  and  C_10
REMARK    6  A    between atoms: C_10  and  C_11
REMARK    7  A    between atoms: C_15  and  C_24
REMARK                            x       y       z     vdW  Elec       q    Type
REMARK                         _______ _______ _______ _____ _____    ______ ____
ROOT
ATOM      1  C   UNL     1      -5.122   3.156   0.039  0.00  0.00    +0.230 C 
ATOM      2  O   UNL     1      -5.582   2.037  -0.043  0.00  0.00    -0.274 OA
ATOM      3  N   UNL     1      -5.946   4.217   0.150  0.00  0.00    -0.264 N 
ATOM      4  C   UNL     1      -5.420   5.593   0.165  0.00  0.00    +0.168 C 
ATOM      5  C   UNL     1      -6.185   6.374   1.238  0.00  0.00    +0.276 C 
ATOM      6  O   UNL     1      -7.582   6.331   0.935  0.00  0.00    -0.476 OA
ATOM      7  C   UNL     1      -8.133   5.120   0.659  0.00  0.00    +0.143 A 
ATOM      8  C   UNL     1      -7.337   4.048   0.262  0.00  0.00    +0.078 A 
ATOM      9  C   UNL     1      -7.913   2.821  -0.022  0.00  0.00    +0.027 A 
ATOM     10  C   UNL     1      -9.282   2.659   0.092  0.00  0.00    +0.002 A 
ATOM     11  C   UNL     1     -10.074   3.721   0.488  0.00  0.00    +0.004 A 
ATOM     12  C   UNL     1      -9.504   4.948   0.771  0.00  0.00    +0.047 A 
ENDROOT
BRANCH   5  13
ATOM     13  C   UNL     1      -5.716   7.806   1.256  0.00  0.00    +0.253 C 
ATOM     14  O   UNL     1      -6.477   8.697   0.943  0.00  0.00    -0.272 OA
ATOM     15  N   UNL     1      -4.451   8.096   1.620  0.00  0.00    -0.326 N 
ATOM     16  H   UNL     1      -4.109   9.142   1.633  0.00  0.00    +0.145 HD
ATOM     17  H   UNL     1      -3.761   7.288   1.903  0.00  0.00    +0.145 HD
ENDBRANCH   5  13
BRANCH   1  18
ATOM     18  C   UNL     1      -3.629   3.361   0.017  0.00  0.00    +0.173 C 
BRANCH  18  19
ATOM     19  S   UNL     1      -2.799   1.753   0.009  0.00  0.00    -0.077 S 
BRANCH  19  24
ATOM     20  N   UNL     1      -0.016   1.466  -0.031  0.00  0.00    -0.296 N 
ATOM     21  C   UNL     1       1.069   2.315  -0.055  0.00  0.00    +0.201 A 
ATOM     22  N   UNL     1       0.597   3.542  -0.049  0.00  0.00    -0.125 NA
ATOM     23  N   UNL     1      -0.688   3.518  -0.024  0.00  0.00    -0.122 NA
ATOM     24  C   UNL     1      -1.117   2.276  -0.017  0.00  0.00    +0.193 A 
BRANCH  21  25
ATOM     25  C   UNL     1       2.486   1.922  -0.083  0.00  0.00    +0.172 A 
ATOM     26  C   UNL     1       3.535   2.735  -0.392  0.00  0.00    +0.053 A 
ATOM     27  C   UNL     1       4.700   1.948  -0.293  0.00  0.00    +0.042 A 
ATOM     28  C   UNL     1       4.311   0.709   0.067  0.00  0.00    +0.196 A 
ATOM     29  O   UNL     1       2.974   0.698   0.199  0.00  0.00    -0.460 OA
ENDBRANCH  21  25
BRANCH  20  30
ATOM     30  C   UNL     1       0.005   0.001  -0.028  0.00  0.00    +0.152 C 
BRANCH  30  32
ATOM     31  C   UNL     1      -0.868  -1.342   1.815  0.00  0.00    +0.005 C 
ATOM     32  C   UNL     1       0.041  -0.497   1.394  0.00  0.00    -0.013 C 
ENDBRANCH  30  32
ENDBRANCH  20  30
ENDBRANCH  19  24
ENDBRANCH  18  19
ENDBRANCH   1  18
TORSDOF 7
