REMARK  Name = ZINC65382682
REMARK  4 active torsions:
REMARK  status: ('A' for Active; 'I' for Inactive)
REMARK    1  A    between atoms: C_3  and  C_6
REMARK    2  A    between atoms: C_7  and  C_8
REMARK    3  A    between atoms: C_8  and  N_9
REMARK    4  A    between atoms: C_17  and  C_19
REMARK                            x       y       z     vdW  Elec       q    Type
REMARK                         _______ _______ _______ _____ _____    ______ ____
ROOT
ATOM      1  N   UNL     1       6.192  -1.398   1.070  0.00  0.00    -0.296 NA
ATOM      2  C   UNL     1       5.816  -0.794   2.351  0.00  0.00    +0.102 C 
ATOM      3  C   UNL     1       6.334  -1.628   3.538  0.00  0.00    +0.121 C 
ATOM      4  N   UNL     1       7.758  -1.793   3.356  0.00  0.00    -0.220 NA
ATOM      5  C   UNL     1       8.014  -2.572   2.113  0.00  0.00    +0.114 C 
ATOM      6  C   UNL     1       7.644  -1.656   0.955  0.00  0.00    +0.109 C 
ATOM      7  C   UNL     1       9.475  -2.885   2.265  0.00  0.00    +0.018 C 
ATOM      8  C   UNL     1       9.729  -2.747   3.568  0.00  0.00    +0.059 C 
ATOM      9  N   UNL     1       8.559  -2.389   4.257  0.00  0.00    -0.278 N 
ATOM     10  H   UNL     1       8.366  -2.542   5.195  0.00  0.00    +0.166 HD
ENDROOT
BRANCH   8  11
ATOM     11  C   UNL     1      11.078  -2.946   4.209  0.00  0.00    +0.221 C 
ATOM     12  N   UNL     1      10.995  -3.981   5.247  0.00  0.00    -0.359 N 
ATOM     13  C   UNL     1      11.326  -3.428   6.378  0.00  0.00    +0.061 A 
ATOM     14  C   UNL     1      11.430  -3.945   7.750  0.00  0.00    +0.030 A 
ATOM     15  C   UNL     1      11.806  -3.119   8.745  0.00  0.00    +0.040 A 
ATOM     16  C   UNL     1      12.110  -1.760   8.530  0.00  0.00    +0.125 A 
ATOM     17  C   UNL     1      12.046  -1.185   7.308  0.00  0.00    +0.065 A 
ATOM     18  C   UNL     1      11.647  -1.992   6.149  0.00  0.00    +0.063 A 
ATOM     19  N   UNL     1      11.502  -1.713   4.883  0.00  0.00    -0.359 N 
ATOM     20  F   UNL     1      12.478  -1.001   9.585  0.00  0.00    -0.205 F 
ATOM     21  H   UNL     1      10.741  -4.907   5.115  0.00  0.00    +0.162 HD
ATOM     22  H   UNL     1      11.648  -0.850   4.465  0.00  0.00    +0.162 HD
ENDBRANCH   8  11
BRANCH   1  23
ATOM     23  C   UNL     1       5.711  -0.586  -0.056  0.00  0.00    +0.112 C 
BRANCH  23  25
ATOM     24  C   UNL     1       3.567   0.618  -0.029  0.00  0.00    +0.043 C 
ATOM     25  C   UNL     1       4.204  -0.549  -0.041  0.00  0.00    -0.008 C 
BRANCH  24  28
ATOM     26  C   UNL     1      -0.016   1.344   0.009  0.00  0.00    +0.042 A 
ATOM     27  C   UNL     1       1.324   1.775  -0.001  0.00  0.00    +0.049 A 
ATOM     28  C   UNL     1       2.097   0.654  -0.015  0.00  0.00    +0.127 A 
ATOM     29  O   UNL     1       1.280  -0.418  -0.012  0.00  0.00    -0.464 OA
ATOM     30  C   UNL     1       0.002  -0.004   0.002  0.00  0.00    +0.195 A 
ENDBRANCH  24  28
ENDBRANCH  23  25
ENDBRANCH   1  23
TORSDOF 4
