REMARK  Name = ZINC09541785
REMARK  8 active torsions:
REMARK  status: ('A' for Active; 'I' for Inactive)
REMARK    1  A    between atoms: C_1  and  O_2
REMARK    2  A    between atoms: O_2  and  C_3
REMARK    3  A    between atoms: C_6  and  C_9
REMARK    4  A    between atoms: C_11  and  C_24
REMARK    5  A    between atoms: C_14  and  C_16
REMARK    6  A    between atoms: C_20  and  O_22
REMARK    7  A    between atoms: O_22  and  C_23
REMARK    8  A    between atoms: C_29  and  O_30
REMARK                            x       y       z     vdW  Elec       q    Type
REMARK                         _______ _______ _______ _____ _____    ______ ____
ROOT
ATOM      1  C   UNL     1      -1.379  -6.256  -0.030  0.00  0.00    +0.081 C 
ATOM      2  C   UNL     1      -3.764  -6.271  -0.386  0.00  0.00    -0.028 C 
ATOM      3  C   UNL     1      -3.908  -4.799   0.019  0.00  0.00    +0.044 C 
ATOM      4  C   UNL     1      -2.556  -4.142   0.004  0.00  0.00    +0.040 C 
ATOM      5  N   UNL     1      -1.459  -4.801  -0.011  0.00  0.00    -0.299 NA
ATOM      6  N   UNL     1      -2.654  -6.855   0.392  0.00  0.00    +0.401 N 
ATOM      7  H   UNL     1      -2.804  -6.669   1.391  0.00  0.00    -0.081 HD
ATOM      8  H   UNL     1      -2.623  -7.869   0.233  0.00  0.00    -0.081 HD
ENDROOT
BRANCH   2   9
ATOM      9  C   UNL     1      -5.041  -7.009  -0.076  0.00  0.00    -0.018 A 
ATOM     10  C   UNL     1      -5.180  -7.675   1.127  0.00  0.00    +0.020 A 
ATOM     11  C   UNL     1      -6.353  -8.349   1.413  0.00  0.00    +0.018 A 
ATOM     12  C   UNL     1      -7.386  -8.367   0.493  0.00  0.00    +0.019 A 
ATOM     13  C   UNL     1      -7.248  -7.707  -0.713  0.00  0.00    +0.047 A 
ATOM     14  C   UNL     1      -6.074  -7.027  -1.001  0.00  0.00    +0.119 A 
ATOM     15 BR   UNL     1      -6.543  -9.253   3.063  0.00  0.00    -0.050 Br
BRANCH  14  16
ATOM     16  O   UNL     1      -5.937  -6.378  -2.187  0.00  0.00    -0.507 OA
ATOM     17  H   UNL     1      -5.562  -6.922  -2.892  0.00  0.00    +0.292 HD
ENDBRANCH  14  16
ENDBRANCH   2   9
BRANCH   1  21
ATOM     18  C   UNL     1       1.710  -7.530   2.634  0.00  0.00    +0.120 A 
ATOM     19  C   UNL     1       1.808  -6.304   1.993  0.00  0.00    +0.046 A 
ATOM     20  C   UNL     1       0.808  -5.894   1.132  0.00  0.00    +0.007 A 
ATOM     21  C   UNL     1      -0.289  -6.706   0.910  0.00  0.00    -0.040 A 
ATOM     22  C   UNL     1      -0.392  -7.926   1.552  0.00  0.00    +0.007 A 
ATOM     23  C   UNL     1       0.609  -8.342   2.409  0.00  0.00    +0.046 A 
BRANCH  18  25
ATOM     24  C   UNL     1       2.525  -9.209   4.107  0.00  0.00    +0.277 C 
ATOM     25  O   UNL     1       2.692  -7.935   3.482  0.00  0.00    -0.495 OA
ENDBRANCH  18  25
ENDBRANCH   1  21
BRANCH   4  26
ATOM     26  C   UNL     1      -2.490  -2.667   0.011  0.00  0.00    -0.001 A 
ATOM     27  C   UNL     1      -3.666  -1.914   0.027  0.00  0.00    +0.010 A 
ATOM     28  C   UNL     1      -3.601  -0.536   0.034  0.00  0.00    +0.004 A 
ATOM     29  C   UNL     1      -2.374   0.103   0.031  0.00  0.00    +0.045 A 
ATOM     30  C   UNL     1      -1.200  -0.637   0.010  0.00  0.00    +0.121 A 
ATOM     31  C   UNL     1      -1.254  -2.021   0.003  0.00  0.00    +0.055 A 
BRANCH  30  32
ATOM     32  O   UNL     1       0.002  -0.004   0.002  0.00  0.00    -0.495 OA
ATOM     33  C   UNL     1      -0.017   1.425   0.010  0.00  0.00    +0.277 C 
ENDBRANCH  30  32
ENDBRANCH   4  26
TORSDOF 6
