REMARK  Name = ZINC67600631
REMARK  9 active torsions:
REMARK  status: ('A' for Active; 'I' for Inactive)
REMARK    1  A    between atoms: C_1  and  C_2
REMARK    2  A    between atoms: C_2  and  S_3
REMARK    3  A    between atoms: S_3  and  C_4
REMARK    4  A    between atoms: C_4  and  C_6
REMARK    5  A    between atoms: C_4  and  C_9
REMARK    6  A    between atoms: C_6  and  C_7
REMARK    7  A    between atoms: C_6  and  C_8
REMARK    8  A    between atoms: N_11  and  S_12
REMARK    9  A    between atoms: S_12  and  C_15
REMARK                            x       y       z     vdW  Elec       q    Type
REMARK                         _______ _______ _______ _____ _____    ______ ____
ROOT
ATOM      1  S   UNL     1      -4.448  -4.990  -0.736  0.00  0.00    +0.102 S 
ATOM      2  O   UNL     1      -4.906  -5.211   0.591  0.00  0.00    -0.146 OA
ATOM      3  O   UNL     1      -5.187  -4.229  -1.681  0.00  0.00    -0.146 OA
ENDROOT
BRANCH   1   4
ATOM      4  C   UNL     1      -4.200  -6.580  -1.454  0.00  0.00    +0.113 A 
ATOM      5  C   UNL     1      -4.233  -6.729  -2.829  0.00  0.00    +0.031 A 
ATOM      6  C   UNL     1      -4.039  -7.974  -3.396  0.00  0.00    +0.025 A 
ATOM      7  C   UNL     1      -3.811  -9.076  -2.583  0.00  0.00    +0.037 A 
ATOM      8  C   UNL     1      -3.778  -8.923  -1.203  0.00  0.00    -0.024 A 
ATOM      9  C   UNL     1      -3.968  -7.675  -0.643  0.00  0.00    +0.034 A 
ATOM     10  C   UNL     1      -3.530 -10.119  -0.322  0.00  0.00    +0.046 C 
ATOM     11  C   UNL     1      -4.156 -11.361  -0.957  0.00  0.00    +0.101 C 
ATOM     12  C   UNL     1      -3.760 -11.451  -2.406  0.00  0.00    +0.218 C 
ATOM     13  O   UNL     1      -3.571 -12.538  -2.909  0.00  0.00    -0.275 OA
ATOM     14  N   UNL     1      -3.614 -10.339  -3.150  0.00  0.00    -0.285 N 
ATOM     15  H   UNL     1      -3.370 -10.414  -4.085  0.00  0.00    +0.155 HD
ENDBRANCH   1   4
BRANCH   1  18
ATOM     16  C   UNL     1      -2.856  -3.088  -0.111  0.00  0.00    +0.278 C 
ATOM     17  O   UNL     1      -3.958  -2.433   0.309  0.00  0.00    -0.268 OA
ATOM     18  N   UNL     1      -2.960  -4.273  -0.611  0.00  0.00    -0.090 NA
BRANCH  16  19
ATOM     19  C   UNL     1      -1.502  -2.435   0.003  0.00  0.00    +0.141 C 
BRANCH  19  20
ATOM     20  C   UNL     1      -0.828  -2.883   1.302  0.00  0.00    +0.005 C 
ATOM     21  C   UNL     1      -1.752  -2.584   2.485  0.00  0.00    +0.009 C 
ATOM     22  C   UNL     1      -0.549  -4.386   1.240  0.00  0.00    +0.009 C 
ENDBRANCH  19  20
BRANCH  19  23
ATOM     23  S   UNL     1      -1.700  -0.632   0.015  0.00  0.00    -0.148 S 
BRANCH  23  25
ATOM     24  C   UNL     1      -0.019   1.526   0.010  0.00  0.00    +0.015 C 
ATOM     25  C   UNL     1       0.002  -0.004   0.002  0.00  0.00    +0.066 C 
ENDBRANCH  23  25
ENDBRANCH  19  23
ENDBRANCH  16  19
ENDBRANCH   1  18
TORSDOF 6
