REMARK  Name = ZINC38819275
REMARK  6 active torsions:
REMARK  status: ('A' for Active; 'I' for Inactive)
REMARK    1  A    between atoms: C_8  and  S_27
REMARK    2  A    between atoms: N_10  and  C_11
REMARK    3  A    between atoms: C_11  and  C_12
REMARK    4  A    between atoms: C_12  and  C_16
REMARK    5  A    between atoms: C_16  and  S_17
REMARK    6  A    between atoms: S_17  and  C_18
REMARK                            x       y       z     vdW  Elec       q    Type
REMARK                         _______ _______ _______ _____ _____    ______ ____
ROOT
ATOM      1  C   UNL     1       5.420  -0.377   1.389  0.00  0.00    +0.042 C 
ATOM      2  C   UNL     1       5.140   0.992   2.037  0.00  0.00    +0.171 C 
ATOM      3  O   UNL     1       6.489   0.902   2.539  0.00  0.00    -0.378 OA
ATOM      4  C   UNL     1       6.908   0.003   1.493  0.00  0.00    +0.171 C 
ENDROOT
BRANCH   1   5
ATOM      5  C   UNL     1       4.911  -0.494  -0.049  0.00  0.00    +0.120 C 
BRANCH   5  14
ATOM      6  C   UNL     1      -0.017   1.377   0.010  0.00  0.00    +0.002 A 
ATOM      7  C   UNL     1       1.169   2.088   0.002  0.00  0.00    +0.002 A 
ATOM      8  C   UNL     1       2.378   1.419  -0.013  0.00  0.00    +0.025 A 
ATOM      9  C   UNL     1       2.407   0.029  -0.022  0.00  0.00    +0.053 A 
ATOM     10  C   UNL     1       1.213  -0.686  -0.014  0.00  0.00    +0.050 A 
ATOM     11  C   UNL     1       0.002  -0.004   0.002  0.00  0.00    +0.025 A 
ATOM     12  N   UNL     1       1.484  -2.061  -0.024  0.00  0.00    -0.316 N 
ATOM     13  C   UNL     1       2.943  -2.219  -0.040  0.00  0.00    +0.217 C 
ATOM     14  N   UNL     1       3.492  -0.858  -0.038  0.00  0.00    -0.301 N 
ATOM     15  H   UNL     1       0.828  -2.776  -0.021  0.00  0.00    +0.149 HD
BRANCH  13  16
ATOM     16  S   UNL     1       3.461  -3.103  -1.537  0.00  0.00    -0.137 S 
ATOM     17  H   UNL     1       2.856  -4.300  -1.434  0.00  0.00    +0.105 HD
ENDBRANCH  13  16
ENDBRANCH   5  14
ENDBRANCH   1   5
BRANCH   1  18
ATOM     18  C   UNL     1       5.024  -1.570   2.262  0.00  0.00    +0.090 C 
BRANCH  18  19
ATOM     19  S   UNL     1       5.673  -1.333   3.939  0.00  0.00    -0.087 S 
BRANCH  19  20
ATOM     20  C   UNL     1       5.140  -2.769   4.809  0.00  0.00    +0.167 A 
ATOM     21  N   UNL     1       4.437  -3.746   4.291  0.00  0.00    -0.222 NA
ATOM     22  C   UNL     1       4.202  -4.692   5.238  0.00  0.00    +0.090 A 
ATOM     23  C   UNL     1       3.520  -5.911   5.228  0.00  0.00    +0.030 A 
ATOM     24  C   UNL     1       3.454  -6.667   6.378  0.00  0.00    +0.002 A 
ATOM     25  C   UNL     1       4.058  -6.226   7.545  0.00  0.00    +0.002 A 
ATOM     26  C   UNL     1       4.735  -5.024   7.572  0.00  0.00    +0.028 A 
ATOM     27  C   UNL     1       4.813  -4.250   6.424  0.00  0.00    +0.067 A 
ATOM     28  N   UNL     1       5.404  -3.034   6.124  0.00  0.00    -0.333 N 
ATOM     29  H   UNL     1       5.909  -2.474   6.733  0.00  0.00    +0.168 HD
ENDBRANCH  19  20
ENDBRANCH  18  19
ENDBRANCH   1  18
TORSDOF 6
