REMARK  Name = ZINC36358772
REMARK  6 active torsions:
REMARK  status: ('A' for Active; 'I' for Inactive)
REMARK    1  A    between atoms: C_1  and  N_2
REMARK    2  A    between atoms: C_19  and  O_30
REMARK    3  A    between atoms: N_20  and  C_21
REMARK    4  A    between atoms: C_21  and  C_22
REMARK    5  A    between atoms: C_27  and  O_28
REMARK    6  A    between atoms: O_28  and  C_29
REMARK                            x       y       z     vdW  Elec       q    Type
REMARK                         _______ _______ _______ _____ _____    ______ ____
ROOT
ATOM      1  C   UNL     1       0.680   1.573  -0.214  0.00  0.00    +0.138 C 
ATOM      2  N   UNL     1       0.502   0.119  -0.186  0.00  0.00    -0.270 N 
ATOM      3  C   UNL     1      -0.727  -0.511  -0.267  0.00  0.00    +0.044 A 
ATOM      4  C   UNL     1      -2.002   0.045  -0.387  0.00  0.00    +0.024 A 
ATOM      5  C   UNL     1      -3.073  -0.833  -0.448  0.00  0.00    +0.002 A 
ATOM      6  C   UNL     1      -2.901  -2.201  -0.394  0.00  0.00    +0.001 A 
ATOM      7  C   UNL     1      -1.636  -2.768  -0.274  0.00  0.00    +0.010 A 
ATOM      8  C   UNL     1      -0.567  -1.901  -0.213  0.00  0.00    +0.027 A 
ATOM      9  C   UNL     1       0.905  -2.150  -0.088  0.00  0.00    +0.215 C 
ATOM     10  C   UNL     1       1.517  -0.764  -0.084  0.00  0.00    +0.269 C 
ATOM     11  O   UNL     1       2.698  -0.498  -0.003  0.00  0.00    -0.270 OA
ATOM     12  N   UNL     1       1.402  -2.905  -1.236  0.00  0.00    -0.352 N 
ATOM     13  C   UNL     1       1.539  -4.219  -1.177  0.00  0.00    +0.050 A 
ATOM     14  C   UNL     1       1.929  -4.972  -2.306  0.00  0.00    +0.026 A 
ATOM     15  C   UNL     1       1.962  -6.329  -2.224  0.00  0.00    +0.002 A 
ATOM     16  C   UNL     1       1.632  -7.004  -1.051  0.00  0.00    +0.001 A 
ATOM     17  C   UNL     1       1.286  -6.335   0.085  0.00  0.00    +0.015 A 
ATOM     18  C   UNL     1       1.268  -4.932   0.079  0.00  0.00    +0.055 A 
ATOM     19  C   UNL     1       1.038  -4.187   1.247  0.00  0.00    +0.192 C 
ATOM     20  N   UNL     1       1.208  -2.833   1.169  0.00  0.00    -0.263 N 
ATOM     21  H   UNL     1       1.635  -2.436  -2.052  0.00  0.00    +0.162 HD
ENDROOT
BRANCH  19  22
ATOM     22  O   UNL     1       0.666  -4.782   2.395  0.00  0.00    -0.495 OA
ATOM     23  H   UNL     1       0.578  -5.742   2.329  0.00  0.00    +0.293 HD
ENDBRANCH  19  22
BRANCH  20  24
ATOM     24  C   UNL     1       1.688  -2.077   2.329  0.00  0.00    +0.149 C 
BRANCH  24  25
ATOM     25  C   UNL     1       0.519  -1.704   3.204  0.00  0.00    +0.012 A 
ATOM     26  C   UNL     1      -0.741  -2.195   2.920  0.00  0.00    +0.009 A 
ATOM     27  C   UNL     1      -1.814  -1.853   3.722  0.00  0.00    +0.001 A 
ATOM     28  C   UNL     1      -1.629  -1.019   4.810  0.00  0.00    +0.004 A 
ATOM     29  C   UNL     1      -0.371  -0.526   5.098  0.00  0.00    +0.046 A 
ATOM     30  C   UNL     1       0.708  -0.872   4.297  0.00  0.00    +0.125 A 
BRANCH  30  31
ATOM     31  O   UNL     1       1.948  -0.393   4.581  0.00  0.00    -0.495 OA
ATOM     32  C   UNL     1       2.068   0.459   5.723  0.00  0.00    +0.277 C 
ENDBRANCH  30  31
ENDBRANCH  24  25
ENDBRANCH  20  24
TORSDOF 4
