REMARK  Name = ZINC12868732
REMARK  10 active torsions:
REMARK  status: ('A' for Active; 'I' for Inactive)
REMARK    1  A    between atoms: C_1  and  C_2
REMARK    2  A    between atoms: C_3  and  C_33
REMARK    3  A    between atoms: C_9  and  C_32
REMARK    4  A    between atoms: C_20  and  O_31
REMARK    5  A    between atoms: C_24  and  C_30
REMARK    6  A    between atoms: C_33  and  C_34
REMARK    7  A    between atoms: C_34  and  C_35
REMARK    8  A    between atoms: C_35  and  C_37
REMARK    9  A    between atoms: C_35  and  C_38
REMARK   10  A    between atoms: C_38  and  O_39
REMARK                            x       y       z     vdW  Elec       q    Type
REMARK                         _______ _______ _______ _____ _____    ______ ____
ROOT
ATOM      1  C   UNL     1      -0.959   1.961   2.416  0.00  0.00    +0.043 C 
ATOM      2  C   UNL     1      -1.079   1.595   0.959  0.00  0.00    -0.028 C 
ATOM      3  C   UNL     1      -2.178   1.662   0.159  0.00  0.00    +0.098 C 
ATOM      4  O   UNL     1      -1.891   1.283  -1.144  0.00  0.00    -0.492 OA
ATOM      5  C   UNL     1      -0.563   1.664  -1.299  0.00  0.00    +0.181 C 
ATOM      6  C   UNL     1      -0.009   1.080   0.065  0.00  0.00    +0.072 C 
ATOM      7  C   UNL     1       1.390   1.651  -0.002  0.00  0.00    +0.039 C 
ATOM      8  C   UNL     1       1.820   1.312  -1.447  0.00  0.00    +0.010 C 
ATOM      9  C   UNL     1       0.488   1.245  -2.269  0.00  0.00    +0.050 C 
ATOM     10  C   UNL     1       2.499  -0.037  -1.565  0.00  0.00    -0.003 C 
ATOM     11  C   UNL     1       1.472  -1.163  -1.420  0.00  0.00    +0.004 C 
ATOM     12  C   UNL     1       2.156  -2.510  -1.659  0.00  0.00    +0.004 C 
ATOM     13  C   UNL     1       3.280  -2.701  -0.637  0.00  0.00    -0.002 C 
ATOM     14  C   UNL     1       3.964  -4.048  -0.879  0.00  0.00    +0.035 C 
ATOM     15  C   UNL     1       5.088  -4.239   0.141  0.00  0.00    +0.115 C 
ATOM     16  C   UNL     1       6.112  -3.112  -0.011  0.00  0.00    +0.032 C 
ATOM     17  C   UNL     1       5.427  -1.765   0.231  0.00  0.00    +0.010 C 
ATOM     18  C   UNL     1       4.304  -1.575  -0.789  0.00  0.00    -0.026 C 
ATOM     19  C   UNL     1       3.616  -0.229  -0.548  0.00  0.00    +0.006 C 
ATOM     20  C   UNL     1       3.001  -0.223   0.858  0.00  0.00    +0.079 C 
ATOM     21  C   UNL     1       2.299   1.099   1.038  0.00  0.00    +0.140 C 
ATOM     22  O   UNL     1       2.479   1.726   2.054  0.00  0.00    -0.297 OA
ATOM     23  C   UNL     1       4.888  -1.604  -2.203  0.00  0.00    +0.012 C 
ATOM     24  C   UNL     1       1.321   3.171   0.159  0.00  0.00    +0.020 C 
ENDROOT
BRANCH  15  25
ATOM     25  O   UNL     1       5.728  -5.497  -0.085  0.00  0.00    -0.392 OA
ATOM     26  H   UNL     1       6.453  -5.684   0.527  0.00  0.00    +0.210 HD
ENDBRANCH  15  25
BRANCH   3  27
ATOM     27  C   UNL     1      -3.541   2.097   0.633  0.00  0.00    +0.074 C 
BRANCH  27  28
ATOM     28  C   UNL     1      -3.727   3.590   0.353  0.00  0.00    +0.013 C 
BRANCH  28  29
ATOM     29  C   UNL     1      -5.110   4.031   0.835  0.00  0.00    +0.012 C 
ATOM     30  C   UNL     1      -5.188   3.892   2.356  0.00  0.00    +0.010 C 
BRANCH  29  31
ATOM     31  C   UNL     1      -5.345   5.491   0.443  0.00  0.00    +0.159 C 
BRANCH  31  32
ATOM     32  O   UNL     1      -6.679   5.868   0.789  0.00  0.00    -0.395 OA
ATOM     33  H   UNL     1      -6.899   6.784   0.568  0.00  0.00    +0.209 HD
ENDBRANCH  31  32
ENDBRANCH  29  31
ENDBRANCH  28  29
ENDBRANCH  27  28
ENDBRANCH   3  27
TORSDOF 6
