REMARK  Name = ZINC08783216
REMARK  5 active torsions:
REMARK  status: ('A' for Active; 'I' for Inactive)
REMARK    1  A    between atoms: C_1  and  C_2
REMARK    2  A    between atoms: C_6  and  C_7
REMARK    3  A    between atoms: C_15  and  C_23
REMARK    4  A    between atoms: C_17  and  C_21
REMARK    5  A    between atoms: C_18  and  N_20
REMARK                            x       y       z     vdW  Elec       q    Type
REMARK                         _______ _______ _______ _____ _____    ______ ____
ROOT
ATOM      1  C   UNL     1      -0.487   2.789   0.844  0.00  0.00    +0.008 C 
ATOM      2  C   UNL     1       0.156   2.009  -0.305  0.00  0.00    -0.006 C 
ATOM      3  C   UNL     1       1.682   2.174  -0.247  0.00  0.00    +0.042 C 
ATOM      4  C   UNL     1       2.258   1.339  -1.370  0.00  0.00    -0.004 C 
ATOM      5  C   UNL     1       3.368   0.596  -1.180  0.00  0.00    +0.022 C 
ATOM      6  C   UNL     1       1.573   1.357  -2.676  0.00  0.00    +0.133 C 
ATOM      7  C   UNL     1       0.365   1.909  -2.802  0.00  0.00    -0.014 C 
ATOM      8  C   UNL     1      -0.346   2.551  -1.639  0.00  0.00    +0.039 C 
ATOM      9  C   UNL     1      -0.332   1.914  -4.143  0.00  0.00    +0.101 C 
ATOM     10  C   UNL     1       0.655   1.682  -5.250  0.00  0.00    +0.098 C 
ATOM     11  C   UNL     1       1.871   1.139  -4.987  0.00  0.00    +0.199 C 
ATOM     12  O   UNL     1       2.214   0.797  -3.734  0.00  0.00    -0.441 OA
ENDROOT
BRANCH   5  13
ATOM     13  C   UNL     1       4.151   0.749   0.048  0.00  0.00    +0.013 A 
ATOM     14  C   UNL     1       5.225  -0.002   0.499  0.00  0.00    +0.015 A 
ATOM     15  C   UNL     1       5.802   0.340   1.699  0.00  0.00    +0.008 A 
ATOM     16  C   UNL     1       5.306   1.393   2.400  0.00  0.00    +0.046 A 
ATOM     17  S   UNL     1       3.975   1.955   1.352  0.00  0.00    -0.097 S 
ENDBRANCH   5  13
BRANCH   9  18
ATOM     18  C   UNL     1      -1.371   0.822  -4.164  0.00  0.00    +0.002 A 
ATOM     19  C   UNL     1      -2.712   0.923  -4.325  0.00  0.00    +0.012 A 
ATOM     20  C   UNL     1      -3.478  -0.228  -4.311  0.00  0.00    +0.008 A 
ATOM     21  C   UNL     1      -2.864  -1.423  -4.135  0.00  0.00    +0.045 A 
ATOM     22  S   UNL     1      -1.151  -0.941  -3.990  0.00  0.00    -0.101 S 
ENDBRANCH   9  18
BRANCH  11  23
ATOM     23  N   UNL     1       2.759   0.935  -6.014  0.00  0.00    -0.328 N 
ATOM     24  H   UNL     1       3.629   0.547  -5.832  0.00  0.00    +0.145 HD
ATOM     25  H   UNL     1       2.517   1.180  -6.921  0.00  0.00    +0.145 HD
ENDBRANCH  11  23
BRANCH  10  26
ATOM     26  C   UNL     1       0.312   2.037  -6.594  0.00  0.00    +0.101 C 
ATOM     27  N   UNL     1       0.039   2.318  -7.660  0.00  0.00    -0.191 NA
ENDBRANCH  10  26
TORSDOF 4
