REMARK  Name = ZINC16018738
REMARK  10 active torsions:
REMARK  status: ('A' for Active; 'I' for Inactive)
REMARK    1  A    between atoms: C_1  and  C_2
REMARK    2  A    between atoms: C_3  and  C_31
REMARK    3  A    between atoms: C_11  and  C_13
REMARK    4  A    between atoms: C_13  and  S_14
REMARK    5  A    between atoms: S_14  and  C_15
REMARK    6  A    between atoms: C_15  and  C_17
REMARK    7  A    between atoms: C_15  and  C_18
REMARK    8  A    between atoms: N_20  and  C_21
REMARK    9  A    between atoms: C_24  and  S_27
REMARK   10  A    between atoms: S_27  and  C_28
REMARK                            x       y       z     vdW  Elec       q    Type
REMARK                         _______ _______ _______ _____ _____    ______ ____
ROOT
ATOM      1  C   UNL     1      -1.015  -0.918  -0.054  0.00  0.00    +0.130 C 
ATOM      2  C   UNL     1      -1.295  -1.199   1.424  0.00  0.00    +0.029 C 
ENDROOT
BRANCH   1   3
ATOM      3  C   UNL     1       0.158   0.020  -0.174  0.00  0.00    +0.230 C 
ATOM      4  O   UNL     1       1.259  -0.416  -0.436  0.00  0.00    -0.274 OA
ATOM      5  N   UNL     1      -0.016   1.344   0.009  0.00  0.00    -0.285 N 
ATOM      6  H   UNL     1      -0.908   1.702   0.139  0.00  0.00    +0.155 HD
BRANCH   5   7
ATOM      7  C   UNL     1       1.091   2.203   0.007  0.00  0.00    +0.033 A 
ATOM      8  C   UNL     1       2.311   1.764   0.503  0.00  0.00    +0.024 A 
ATOM      9  C   UNL     1       3.403   2.609   0.497  0.00  0.00    +0.017 A 
ATOM     10  C   UNL     1       3.278   3.902   0.004  0.00  0.00    +0.013 A 
ATOM     11  C   UNL     1       2.055   4.342  -0.487  0.00  0.00    +0.017 A 
ATOM     12  C   UNL     1       0.965   3.495  -0.485  0.00  0.00    +0.024 A 
BRANCH  10  13
ATOM     13  S   UNL     1       4.670   4.982   0.001  0.00  0.00    -0.056 S 
BRANCH  13  14
ATOM     14  C   UNL     1       6.003   3.983   0.720  0.00  0.00    +0.404 C 
ATOM     15  F   UNL     1       5.644   3.589   2.014  0.00  0.00    -0.197 F 
ATOM     16  F   UNL     1       6.214   2.849  -0.071  0.00  0.00    -0.197 F 
ENDBRANCH  13  14
ENDBRANCH  10  13
ENDBRANCH   5   7
ENDBRANCH   1   3
BRANCH   1  17
ATOM     17  S   UNL     1      -0.633  -2.475  -0.903  0.00  0.00    -0.141 S 
BRANCH  17  18
ATOM     18  C   UNL     1      -2.178  -3.421  -0.800  0.00  0.00    +0.144 C 
BRANCH  18  29
ATOM     19  C   UNL     1      -2.281  -9.525  -3.571  0.00  0.00    +0.045 C 
ATOM     20  C   UNL     1      -1.286  -8.406  -3.404  0.00  0.00    -0.026 A 
ATOM     21  C   UNL     1      -0.041  -8.525  -3.892  0.00  0.00    -0.008 A 
ATOM     22  S   UNL     1       0.726  -6.978  -3.447  0.00  0.00    -0.073 S 
ATOM     23  C   UNL     1      -0.647  -6.218  -2.620  0.00  0.00    +0.116 A 
ATOM     24  C   UNL     1      -1.662  -7.187  -2.712  0.00  0.00    +0.075 A 
ATOM     25  C   UNL     1      -2.914  -6.831  -2.112  0.00  0.00    +0.260 A 
ATOM     26  O   UNL     1      -3.856  -7.605  -2.140  0.00  0.00    -0.267 OA
ATOM     27  N   UNL     1      -3.032  -5.632  -1.513  0.00  0.00    -0.310 N 
ATOM     28  H   UNL     1      -3.876  -5.387  -1.102  0.00  0.00    +0.170 HD
ATOM     29  C   UNL     1      -1.996  -4.755  -1.477  0.00  0.00    +0.121 A 
ATOM     30  N   UNL     1      -0.842  -5.050  -2.014  0.00  0.00    -0.226 NA
ATOM     31  C   UNL     1       0.563  -9.687  -4.637  0.00  0.00    +0.052 C 
ENDBRANCH  18  29
ENDBRANCH  17  18
ENDBRANCH   1  17
TORSDOF 7
