REMARK  Name = ZINC08791483
REMARK  11 active torsions:
REMARK  status: ('A' for Active; 'I' for Inactive)
REMARK    1  A    between atoms: C_1  and  C_2
REMARK    2  A    between atoms: C_2  and  C_3
REMARK    3  A    between atoms: C_2  and  C_4
REMARK    4  A    between atoms: C_4  and  C_5
REMARK    5  A    between atoms: C_5  and  C_7
REMARK    6  A    between atoms: C_5  and  N_14
REMARK    7  A    between atoms: N_9  and  C_10
REMARK    8  A    between atoms: C_10  and  C_11
REMARK    9  A    between atoms: C_11  and  O_12
REMARK   10  A    between atoms: O_12  and  C_13
REMARK   11  A    between atoms: C_15  and  C_17
REMARK                            x       y       z     vdW  Elec       q    Type
REMARK                         _______ _______ _______ _____ _____    ______ ____
ROOT
ATOM      1  C   UNL     1       1.388  -0.161   0.693  0.00  0.00    +0.167 C 
ATOM      2  C   UNL     1       0.895   1.269   0.428  0.00  0.00    +0.069 C 
ATOM      3  C   UNL     1      -0.515   1.438   0.933  0.00  0.00    -0.015 A 
ATOM      4  C   UNL     1      -1.228   2.684   1.148  0.00  0.00    +0.003 A 
ATOM      5  C   UNL     1      -0.861   4.022   0.976  0.00  0.00    +0.010 A 
ATOM      6  C   UNL     1      -1.808   4.969   1.282  0.00  0.00    +0.001 A 
ATOM      7  C   UNL     1      -3.069   4.626   1.741  0.00  0.00    +0.002 A 
ATOM      8  C   UNL     1      -3.458   3.310   1.920  0.00  0.00    +0.026 A 
ATOM      9  C   UNL     1      -2.518   2.328   1.616  0.00  0.00    +0.047 A 
ATOM     10  N   UNL     1      -2.566   0.965   1.675  0.00  0.00    -0.356 N 
ATOM     11  H   UNL     1      -3.333   0.445   1.961  0.00  0.00    +0.166 HD
ATOM     12  C   UNL     1      -1.367   0.443   1.269  0.00  0.00    +0.046 A 
ATOM     13  C   UNL     1      -0.995  -1.018   1.195  0.00  0.00    +0.155 C 
ATOM     14  N   UNL     1       0.271  -1.075   0.429  0.00  0.00    -0.273 N 
ATOM     15  C   UNL     1       0.153  -2.005  -0.528  0.00  0.00    +0.248 C 
ATOM     16  O   UNL     1       1.065  -2.422  -1.214  0.00  0.00    -0.270 OA
ATOM     17  C   UNL     1      -1.243  -2.443  -0.621  0.00  0.00    +0.042 A 
ATOM     18  C   UNL     1      -1.976  -1.821   0.410  0.00  0.00    -0.009 A 
ATOM     19  C   UNL     1      -3.333  -2.012   0.546  0.00  0.00    +0.006 A 
ATOM     20  C   UNL     1      -3.948  -2.858  -0.371  0.00  0.00    +0.000 A 
ATOM     21  C   UNL     1      -3.237  -3.482  -1.376  0.00  0.00    +0.001 A 
ATOM     22  C   UNL     1      -1.871  -3.296  -1.532  0.00  0.00    +0.013 A 
ENDROOT
BRANCH   1  24
ATOM     23  N   UNL     1       2.847   0.458   2.592  0.00  0.00    -0.302 N 
ATOM     24  C   UNL     1       1.828  -0.293   2.128  0.00  0.00    +0.235 C 
ATOM     25  O   UNL     1       1.265  -1.074   2.865  0.00  0.00    -0.274 OA
ATOM     26  H   UNL     1       3.344   1.029   1.986  0.00  0.00    +0.150 HD
BRANCH  23  27
ATOM     27  C   UNL     1       3.202   0.411   4.013  0.00  0.00    +0.159 C 
BRANCH  27  28
ATOM     28  C   UNL     1       3.808   1.729   4.422  0.00  0.00    +0.233 C 
ATOM     29  O   UNL     1       4.158   2.525   3.576  0.00  0.00    -0.274 OA
ATOM     30  N   UNL     1       3.962   2.023   5.728  0.00  0.00    -0.312 N 
ATOM     31  H   UNL     1       3.750   1.360   6.403  0.00  0.00    +0.149 HD
BRANCH  30  32
ATOM     32  C   UNL     1       4.449   3.346   6.129  0.00  0.00    +0.132 C 
BRANCH  32  33
ATOM     33  C   UNL     1       4.531   3.418   7.655  0.00  0.00    +0.178 C 
BRANCH  33  34
ATOM     34  O   UNL     1       5.516   2.495   8.123  0.00  0.00    -0.381 OA
ATOM     35  C   UNL     1       5.673   2.483   9.544  0.00  0.00    +0.194 C 
ENDBRANCH  33  34
ENDBRANCH  32  33
ENDBRANCH  30  32
ENDBRANCH  27  28
BRANCH  27  36
ATOM     36  C   UNL     1       4.215  -0.711   4.248  0.00  0.00    +0.034 C 
BRANCH  36  38
ATOM     37  C   UNL     1       3.198  -1.349   6.440  0.00  0.00    +0.007 C 
ATOM     38  C   UNL     1       4.473  -0.859   5.749  0.00  0.00    -0.015 C 
ATOM     39  C   UNL     1       5.597  -1.870   5.977  0.00  0.00    +0.007 C 
ENDBRANCH  36  38
ENDBRANCH  27  36
ENDBRANCH  23  27
ENDBRANCH   1  24
TORSDOF 8
