REMARK  Name = ZINC05322063
REMARK  9 active torsions:
REMARK  status: ('A' for Active; 'I' for Inactive)
REMARK    1  A    between atoms: C_1  and  C_2
REMARK    2  A    between atoms: C_2  and  N_3
REMARK    3  A    between atoms: N_3  and  C_4
REMARK    4  A    between atoms: N_3  and  C_6
REMARK    5  A    between atoms: C_4  and  C_5
REMARK    6  A    between atoms: C_13  and  N_26
REMARK    7  A    between atoms: C_14  and  C_24
REMARK    8  A    between atoms: C_15  and  C_17
REMARK    9  A    between atoms: C_20  and  O_23
REMARK                            x       y       z     vdW  Elec       q    Type
REMARK                         _______ _______ _______ _____ _____    ______ ____
ROOT
ATOM      1  C   UNL     1      -4.790   2.831  -3.449  0.00  0.00    +0.033 A 
ATOM      2  C   UNL     1      -3.725   3.720  -3.534  0.00  0.00    +0.023 A 
ATOM      3  C   UNL     1      -3.009   4.048  -2.400  0.00  0.00    +0.010 A 
ATOM      4  C   UNL     1      -3.347   3.496  -1.177  0.00  0.00    +0.008 A 
ATOM      5  C   UNL     1      -4.408   2.608  -1.086  0.00  0.00    +0.136 A 
ATOM      6  C   UNL     1      -5.130   2.276  -2.225  0.00  0.00    +0.069 A 
ATOM      7  O   UNL     1      -4.754   2.057   0.103  0.00  0.00    -0.441 OA
ATOM      8  C   UNL     1      -4.351   2.630   1.250  0.00  0.00    +0.199 C 
ATOM      9  C   UNL     1      -3.313   3.498   1.291  0.00  0.00    +0.098 C 
ATOM     10  C   UNL     1      -2.553   3.867   0.048  0.00  0.00    +0.098 C 
ENDROOT
BRANCH  10  11
ATOM     11  C   UNL     1      -1.237   3.133   0.031  0.00  0.00    -0.034 A 
ATOM     12  C   UNL     1      -1.218   1.751   0.017  0.00  0.00    +0.008 A 
ATOM     13  C   UNL     1      -0.013   1.076   0.008  0.00  0.00    +0.046 A 
ATOM     14  C   UNL     1       1.179   1.786   0.000  0.00  0.00    +0.117 A 
ATOM     15  C   UNL     1       1.157   3.174   0.008  0.00  0.00    +0.046 A 
ATOM     16  C   UNL     1      -0.051   3.844   0.023  0.00  0.00    +0.008 A 
BRANCH  14  17
ATOM     17  O   UNL     1       2.366   1.125  -0.014  0.00  0.00    -0.507 OA
ATOM     18  H   UNL     1       2.701   0.938  -0.902  0.00  0.00    +0.292 HD
ENDBRANCH  14  17
ENDBRANCH  10  11
BRANCH   8  19
ATOM     19  N   UNL     1      -5.012   2.326   2.414  0.00  0.00    -0.328 N 
ATOM     20  H   UNL     1      -5.758   1.706   2.401  0.00  0.00    +0.145 HD
ATOM     21  H   UNL     1      -4.734   2.732   3.250  0.00  0.00    +0.145 HD
ENDBRANCH   8  19
BRANCH   9  22
ATOM     22  C   UNL     1      -2.932   4.077   2.544  0.00  0.00    +0.101 C 
ATOM     23  N   UNL     1      -2.629   4.535   3.538  0.00  0.00    -0.191 NA
ENDBRANCH   9  22
BRANCH   1  24
ATOM     24  N   UNL     1      -5.515   2.498  -4.595  0.00  0.00    -0.330 N 
BRANCH  24  26
ATOM     25  C   UNL     1      -4.129   2.188  -6.586  0.00  0.00    +0.024 C 
ATOM     26  C   UNL     1      -5.154   3.084  -5.888  0.00  0.00    +0.102 C 
ENDBRANCH  24  26
BRANCH  24  27
ATOM     27  C   UNL     1      -6.638   1.560  -4.504  0.00  0.00    +0.102 C 
ATOM     28  C   UNL     1      -7.927   2.335  -4.224  0.00  0.00    +0.024 C 
ENDBRANCH  24  27
ENDBRANCH   1  24
TORSDOF 7
