REMARK  Name = ZINC39669186
REMARK  5 active torsions:
REMARK  status: ('A' for Active; 'I' for Inactive)
REMARK    1  A    between atoms: C_10  and  C_12
REMARK    2  A    between atoms: C_12  and  N_13
REMARK    3  A    between atoms: C_14  and  C_16
REMARK    4  A    between atoms: C_27  and  C_29
REMARK    5  A    between atoms: C_32  and  C_34
REMARK                            x       y       z     vdW  Elec       q    Type
REMARK                         _______ _______ _______ _____ _____    ______ ____
ROOT
ATOM      1  C   UNL     1       8.383  -0.793   1.494  0.00  0.00    +0.100 C 
ATOM      2  C   UNL     1       8.915  -0.669   0.049  0.00  0.00    +0.121 C 
ATOM      3  N   UNL     1       9.748   0.557   0.060  0.00  0.00    -0.294 N 
ATOM      4  C   UNL     1      10.451   0.512   1.365  0.00  0.00    +0.115 C 
ATOM      5  C   UNL     1       9.396  -0.020   2.355  0.00  0.00    -0.004 C 
ATOM      6  C   UNL     1       8.707   1.142   3.065  0.00  0.00    -0.010 C 
ATOM      7  C   UNL     1       9.721   1.861   3.959  0.00  0.00    -0.082 C 
ATOM      8  N   UNL     1      10.268   0.916   4.940  0.00  0.00    +0.379 N 
ATOM      9  C   UNL     1      11.008  -0.148   4.253  0.00  0.00    -0.082 C 
ATOM     10  C   UNL     1      10.048  -0.953   3.371  0.00  0.00    -0.010 C 
ATOM     11  C   UNL     1       9.845   1.499  -0.899  0.00  0.00    +0.282 C 
ATOM     12  O   UNL     1      10.580   2.456  -0.740  0.00  0.00    -0.267 OA
ATOM     13  H   UNL     1      10.890   1.406   5.566  0.00  0.00    -0.086 HD
ATOM     14  H   UNL     1       9.512   0.510   5.471  0.00  0.00    -0.086 HD
ENDROOT
BRANCH  11  15
ATOM     15  C   UNL     1       9.065   1.371  -2.132  0.00  0.00    +0.190 A 
ATOM     16  C   UNL     1       9.074   2.255  -3.190  0.00  0.00    +0.055 A 
ATOM     17  C   UNL     1       8.190   1.746  -4.147  0.00  0.00    +0.050 A 
ATOM     18  C   UNL     1       7.679   0.584  -3.645  0.00  0.00    +0.136 A 
ATOM     19  O   UNL     1       8.217   0.365  -2.433  0.00  0.00    -0.450 OA
BRANCH  18  20
ATOM     20  C   UNL     1       6.701  -0.290  -4.323  0.00  0.00    +0.017 A 
ATOM     21  C   UNL     1       6.224   0.044  -5.592  0.00  0.00    +0.014 A 
ATOM     22  C   UNL     1       5.311  -0.776  -6.221  0.00  0.00    +0.039 A 
ATOM     23  C   UNL     1       4.867  -1.931  -5.596  0.00  0.00    +0.123 A 
ATOM     24  C   UNL     1       5.337  -2.268  -4.336  0.00  0.00    +0.039 A 
ATOM     25  C   UNL     1       6.254  -1.458  -3.700  0.00  0.00    +0.014 A 
ATOM     26  F   UNL     1       3.973  -2.731  -6.216  0.00  0.00    -0.205 F 
ENDBRANCH  18  20
ENDBRANCH  11  15
BRANCH   1  28
ATOM     27  N   UNL     1       6.142  -0.624   2.527  0.00  0.00    -0.312 N 
ATOM     28  C   UNL     1       7.016  -0.171   1.606  0.00  0.00    +0.218 C 
ATOM     29  O   UNL     1       6.701   0.738   0.867  0.00  0.00    -0.275 OA
ATOM     30  H   UNL     1       6.394  -1.350   3.118  0.00  0.00    +0.149 HD
BRANCH  27  31
ATOM     31  C   UNL     1       4.812  -0.018   2.635  0.00  0.00    +0.140 C 
BRANCH  31  41
ATOM     32  C   UNL     1       0.028   0.804   3.755  0.00  0.00    +0.000 A 
ATOM     33  C   UNL     1       0.658   0.490   2.564  0.00  0.00    +0.000 A 
ATOM     34  C   UNL     1       1.949   0.003   2.577  0.00  0.00    +0.006 A 
ATOM     35  C   UNL     1       2.620  -0.172   3.777  0.00  0.00    -0.014 A 
ATOM     36  C   UNL     1       1.993   0.145   4.964  0.00  0.00    -0.040 A 
ATOM     37  C   UNL     1       0.695   0.631   4.952  0.00  0.00    +0.004 A 
ATOM     38  C   UNL     1       2.693  -0.020   6.289  0.00  0.00    +0.063 C 
ATOM     39  C   UNL     1       3.908  -0.934   6.122  0.00  0.00    +0.165 C 
ATOM     40  O   UNL     1       4.671  -0.475   5.001  0.00  0.00    -0.370 OA
ATOM     41  C   UNL     1       4.026  -0.712   3.749  0.00  0.00    +0.165 C 
ENDBRANCH  31  41
ENDBRANCH  27  31
ENDBRANCH   1  28
TORSDOF 5
