REMARK  Name = ZINC64976626
REMARK  7 active torsions:
REMARK  status: ('A' for Active; 'I' for Inactive)
REMARK    1  A    between atoms: C_1  and  C_2
REMARK    2  A    between atoms: C_5  and  C_25
REMARK    3  A    between atoms: C_6  and  N_8
REMARK    4  A    between atoms: N_8  and  S_9
REMARK    5  A    between atoms: S_9  and  C_12
REMARK    6  A    between atoms: N_19  and  C_24
REMARK    7  A    between atoms: N_22  and  C_23
REMARK                            x       y       z     vdW  Elec       q    Type
REMARK                         _______ _______ _______ _____ _____    ______ ____
ROOT
ATOM      1  S   UNL     1      -0.863  -2.178   3.625  0.00  0.00    +0.074 S 
ATOM      2  O   UNL     1      -0.716  -2.988   4.783  0.00  0.00    -0.150 OA
ATOM      3  O   UNL     1      -0.539  -0.795   3.616  0.00  0.00    -0.150 OA
ENDROOT
BRANCH   1   4
ATOM      4  C   UNL     1      -2.551  -2.303   3.135  0.00  0.00    +0.129 A 
ATOM      5  C   UNL     1      -3.436  -3.041   3.897  0.00  0.00    +0.058 A 
ATOM      6  C   UNL     1      -4.764  -3.139   3.512  0.00  0.00    +0.071 A 
ATOM      7  C   UNL     1      -5.203  -2.490   2.356  0.00  0.00    +0.071 A 
ATOM      8  C   UNL     1      -4.309  -1.751   1.597  0.00  0.00    +0.050 A 
ATOM      9  C   UNL     1      -2.987  -1.655   1.991  0.00  0.00    +0.070 A 
ATOM     10 CL   UNL     1      -1.869  -0.723   1.046  0.00  0.00    -0.081 Cl
ATOM     11  N   UNL     1      -6.562  -2.767   2.230  0.00  0.00    -0.295 N 
ATOM     12  C   UNL     1      -6.933  -3.548   3.262  0.00  0.00    +0.330 A 
ATOM     13  O   UNL     1      -8.058  -3.971   3.452  0.00  0.00    -0.246 OA
ATOM     14  N   UNL     1      -5.871  -3.790   4.053  0.00  0.00    -0.295 N 
ATOM     15  C   UNL     1      -5.877  -4.600   5.274  0.00  0.00    +0.154 C 
ATOM     16  C   UNL     1      -7.439  -2.289   1.158  0.00  0.00    +0.154 C 
ENDBRANCH   1   4
BRANCH   1  17
ATOM     17  N   UNL     1       0.045  -2.885   2.434  0.00  0.00    -0.216 N 
ATOM     18  H   UNL     1       0.631  -2.342   1.884  0.00  0.00    +0.174 HD
BRANCH  17  24
ATOM     19  C   UNL     1      -2.623  -7.012   2.374  0.00  0.00    +0.044 C 
ATOM     20  C   UNL     1      -1.314  -6.290   2.185  0.00  0.00    -0.049 A 
ATOM     21  C   UNL     1      -0.187  -6.994   1.800  0.00  0.00    +0.004 A 
ATOM     22  C   UNL     1       1.017  -6.336   1.626  0.00  0.00    +0.005 A 
ATOM     23  C   UNL     1       1.097  -4.973   1.835  0.00  0.00    -0.028 A 
ATOM     24  C   UNL     1      -0.033  -4.263   2.221  0.00  0.00    +0.051 A 
ATOM     25  C   UNL     1      -1.242  -4.927   2.390  0.00  0.00    +0.028 A 
ATOM     26  C   UNL     1       2.410  -4.256   1.646  0.00  0.00    +0.046 C 
ENDBRANCH  17  24
ENDBRANCH   1  17
TORSDOF 3
