REMARK  Name = ZINC18118592
REMARK  7 active torsions:
REMARK  status: ('A' for Active; 'I' for Inactive)
REMARK    1  A    between atoms: C_1  and  C_2
REMARK    2  A    between atoms: C_5  and  S_8
REMARK    3  A    between atoms: S_8  and  N_11
REMARK    4  A    between atoms: N_11  and  C_12
REMARK    5  A    between atoms: C_17  and  C_18
REMARK    6  A    between atoms: N_19  and  C_20
REMARK    7  A    between atoms: N_28  and  C_29
REMARK                            x       y       z     vdW  Elec       q    Type
REMARK                         _______ _______ _______ _____ _____    ______ ____
ROOT
ATOM      1  C   UNL     1       1.962  -6.290  -0.043  0.00  0.00    +0.083 A 
ATOM      2  C   UNL     1       0.950  -7.277  -0.049  0.00  0.00    +0.027 A 
ATOM      3  C   UNL     1       1.289  -8.593  -0.058  0.00  0.00    +0.002 A 
ATOM      4  C   UNL     1       2.620  -9.003  -0.061  0.00  0.00    +0.001 A 
ATOM      5  C   UNL     1       3.643  -8.107  -0.056  0.00  0.00    +0.011 A 
ATOM      6  C   UNL     1       3.367  -6.726  -0.053  0.00  0.00    +0.018 A 
ENDROOT
BRANCH   6   7
ATOM      7  C   UNL     1       4.410  -5.785  -0.054  0.00  0.00    +0.124 C 
ATOM      8  N   UNL     1       4.135  -4.491  -0.046  0.00  0.00    -0.221 NA
BRANCH   8   9
ATOM      9  C   UNL     1       5.126  -3.598  -0.047  0.00  0.00    +0.209 A 
ATOM     10  N   UNL     1       6.450  -3.893  -0.062  0.00  0.00    -0.324 N 
ATOM     11  C   UNL     1       7.163  -2.701  -0.058  0.00  0.00    +0.066 A 
ATOM     12  C   UNL     1       8.520  -2.407  -0.067  0.00  0.00    +0.028 A 
ATOM     13  C   UNL     1       8.939  -1.092  -0.058  0.00  0.00    +0.002 A 
ATOM     14  C   UNL     1       8.011  -0.063  -0.041  0.00  0.00    +0.002 A 
ATOM     15  C   UNL     1       6.660  -0.344  -0.031  0.00  0.00    +0.028 A 
ATOM     16  C   UNL     1       6.228  -1.663  -0.040  0.00  0.00    +0.068 A 
ATOM     17  N   UNL     1       4.968  -2.249  -0.040  0.00  0.00    -0.313 N 
ATOM     18  C   UNL     1       3.689  -1.535  -0.029  0.00  0.00    +0.152 C 
ATOM     19  H   UNL     1       6.833  -4.785  -0.073  0.00  0.00    +0.169 HD
ENDBRANCH   8   9
ENDBRANCH   6   7
BRANCH   1  20
ATOM     20  N   UNL     1       1.651  -4.999  -0.034  0.00  0.00    -0.097 NA
BRANCH  20  21
ATOM     21  S   UNL     1       0.063  -4.530  -0.023  0.00  0.00    +0.092 S 
ATOM     22  O   UNL     1      -0.476  -4.950   1.223  0.00  0.00    -0.148 OA
ATOM     23  O   UNL     1      -0.490  -4.937  -1.267  0.00  0.00    -0.148 OA
BRANCH  21  28
ATOM     24  C   UNL     1      -0.018   1.503   0.010  0.00  0.00    +0.044 C 
ATOM     25  C   UNL     1       0.002  -0.004   0.002  0.00  0.00    -0.050 A 
ATOM     26  C   UNL     1       0.006  -0.689  -1.199  0.00  0.00    +0.005 A 
ATOM     27  C   UNL     1       0.025  -2.071  -1.206  0.00  0.00    +0.029 A 
ATOM     28  C   UNL     1       0.040  -2.768  -0.013  0.00  0.00    +0.110 A 
ATOM     29  C   UNL     1       0.037  -2.084   1.188  0.00  0.00    +0.029 A 
ATOM     30  C   UNL     1       0.023  -0.702   1.195  0.00  0.00    +0.005 A 
ENDBRANCH  21  28
ENDBRANCH  20  21
ENDBRANCH   1  20
TORSDOF 5
