REMARK  Name = ZINC39029534
REMARK  5 active torsions:
REMARK  status: ('A' for Active; 'I' for Inactive)
REMARK    1  A    between atoms: C_7  and  O_27
REMARK    2  A    between atoms: N_11  and  C_12
REMARK    3  A    between atoms: C_12  and  C_14
REMARK    4  A    between atoms: C_14  and  S_15
REMARK    5  A    between atoms: S_15  and  C_16
REMARK                            x       y       z     vdW  Elec       q    Type
REMARK                         _______ _______ _______ _____ _____    ______ ____
ROOT
ATOM      1  C   UNL     1      -0.017   1.373   0.010  0.00  0.00    +0.000 A 
ATOM      2  C   UNL     1       1.170   2.084   0.002  0.00  0.00    +0.001 A 
ATOM      3  C   UNL     1       2.368   1.403  -0.027  0.00  0.00    +0.015 A 
ATOM      4  C   UNL     1       2.389   0.011  -0.039  0.00  0.00    +0.022 A 
ATOM      5  C   UNL     1       1.206  -0.705  -0.008  0.00  0.00    +0.013 A 
ATOM      6  C   UNL     1       0.002  -0.004   0.002  0.00  0.00    +0.009 A 
ATOM      7  C   UNL     1       1.112  -2.202   0.052  0.00  0.00    +0.234 C 
ATOM      8  N   UNL     1       2.327  -2.891  -0.362  0.00  0.00    -0.297 N 
ATOM      9  C   UNL     1       3.522  -2.489   0.201  0.00  0.00    +0.153 C 
ATOM     10  N   UNL     1       4.285  -3.305   0.918  0.00  0.00    -0.158 NA
ATOM     11  S   UNL     1       3.957  -0.800  -0.110  0.00  0.00    -0.057 S 
ATOM     12  H   UNL     1       2.297  -3.610  -1.013  0.00  0.00    +0.151 HD
ENDROOT
BRANCH  10  13
ATOM     13  C   UNL     1       3.907  -4.566   1.118  0.00  0.00    +0.248 C 
ATOM     14  O   UNL     1       2.864  -4.970   0.644  0.00  0.00    -0.273 OA
BRANCH  13  15
ATOM     15  C   UNL     1       4.774  -5.492   1.932  0.00  0.00    +0.175 C 
BRANCH  15  16
ATOM     16  S   UNL     1       3.993  -7.127   2.022  0.00  0.00    -0.078 S 
BRANCH  16  17
ATOM     17  C   UNL     1       5.113  -8.081   2.993  0.00  0.00    +0.168 A 
ATOM     18  N   UNL     1       4.941  -9.395   3.325  0.00  0.00    -0.333 N 
ATOM     19  H   UNL     1       4.194  -9.959   3.071  0.00  0.00    +0.168 HD
ATOM     20  C   UNL     1       6.033  -9.771   4.089  0.00  0.00    +0.067 A 
ATOM     21  C   UNL     1       6.415 -10.954   4.703  0.00  0.00    +0.028 A 
ATOM     22  C   UNL     1       7.596 -11.009   5.415  0.00  0.00    +0.002 A 
ATOM     23  C   UNL     1       8.405  -9.887   5.520  0.00  0.00    +0.002 A 
ATOM     24  C   UNL     1       8.042  -8.704   4.917  0.00  0.00    +0.030 A 
ATOM     25  C   UNL     1       6.849  -8.632   4.193  0.00  0.00    +0.090 A 
ATOM     26  N   UNL     1       6.237  -7.637   3.500  0.00  0.00    -0.222 NA
ENDBRANCH  16  17
ENDBRANCH  15  16
ENDBRANCH  13  15
ENDBRANCH  10  13
BRANCH   7  27
ATOM     27  O   UNL     1       0.810  -2.585   1.395  0.00  0.00    -0.370 OA
ATOM     28  H   UNL     1       0.732  -3.540   1.524  0.00  0.00    +0.212 HD
ENDBRANCH   7  27
TORSDOF 5
