REMARK  Name = ZINC30972499
REMARK  9 active torsions:
REMARK  status: ('A' for Active; 'I' for Inactive)
REMARK    1  A    between atoms: C_1  and  C_2
REMARK    2  A    between atoms: C_2  and  O_3
REMARK    3  A    between atoms: O_3  and  C_4
REMARK    4  A    between atoms: C_4  and  C_6
REMARK    5  A    between atoms: C_7  and  C_19
REMARK    6  A    between atoms: C_12  and  C_14
REMARK    7  A    between atoms: C_19  and  N_20
REMARK    8  A    between atoms: C_23  and  C_27
REMARK    9  A    between atoms: C_23  and  C_28
REMARK                            x       y       z     vdW  Elec       q    Type
REMARK                         _______ _______ _______ _____ _____    ______ ____
ROOT
ATOM      1  C   UNL     1      -1.258  -2.049  -0.092  0.00  0.00    +0.083 C 
ATOM      2  C   UNL     1      -2.423  -2.700   0.112  0.00  0.00    +0.042 C 
ATOM      3  N   UNL     1      -2.464  -4.062   0.199  0.00  0.00    -0.271 N 
ATOM      4  C   UNL     1      -1.383  -4.845   0.095  0.00  0.00    +0.304 C 
ATOM      5  O   UNL     1      -1.518  -6.050   0.186  0.00  0.00    -0.252 OA
ATOM      6  N   UNL     1      -0.149  -4.342  -0.108  0.00  0.00    -0.285 N 
ATOM      7  C   UNL     1       0.001  -2.881  -0.224  0.00  0.00    +0.179 C 
ATOM      8  H   UNL     1      -3.423  -4.574   0.365  0.00  0.00    +0.156 HD
ATOM      9  H   UNL     1       0.733  -4.994  -0.188  0.00  0.00    +0.151 HD
ENDROOT
BRANCH   7  10
ATOM     10  C   UNL     1       0.969  -2.433   0.841  0.00  0.00    +0.130 A 
ATOM     11  C   UNL     1       2.012  -1.604   0.657  0.00  0.00    +0.047 A 
ATOM     12  C   UNL     1       2.643  -1.454   1.913  0.00  0.00    +0.041 A 
ATOM     13  C   UNL     1       1.952  -2.206   2.788  0.00  0.00    +0.195 A 
ATOM     14  O   UNL     1       0.939  -2.797   2.133  0.00  0.00    -0.466 OA
ENDBRANCH   7  10
BRANCH   1  15
ATOM     15  C   UNL     1      -1.215  -0.638  -0.184  0.00  0.00    +0.339 C 
ATOM     16  O   UNL     1      -1.122  -0.102  -1.272  0.00  0.00    -0.245 OA
BRANCH  15  17
ATOM     17  O   UNL     1      -1.277   0.114   0.935  0.00  0.00    -0.462 OA
BRANCH  17  19
ATOM     18  C   UNL     1      -1.310   2.210   2.136  0.00  0.00    +0.048 C 
ATOM     19  C   UNL     1      -1.228   1.532   0.767  0.00  0.00    +0.229 C 
ENDBRANCH  17  19
ENDBRANCH  15  17
ENDBRANCH   1  15
BRANCH   2  20
ATOM     20  C   UNL     1      -3.700  -1.911   0.243  0.00  0.00    +0.169 C 
BRANCH  20  21
ATOM     21  N   UNL     1      -4.591  -2.232  -0.875  0.00  0.00    -0.218 N 
ATOM     22  C   UNL     1      -4.604  -1.568  -2.048  0.00  0.00    +0.251 C 
ATOM     23  O   UNL     1      -3.908  -0.626  -2.364  0.00  0.00    -0.272 OA
ATOM     24  C   UNL     1      -5.669  -2.243  -2.889  0.00  0.00    +0.135 C 
ATOM     25  N   UNL     1      -6.185  -3.304  -2.008  0.00  0.00    -0.281 N 
ATOM     26  C   UNL     1      -5.495  -3.219  -0.857  0.00  0.00    +0.310 C 
ATOM     27  O   UNL     1      -5.672  -3.954   0.094  0.00  0.00    -0.252 OA
ATOM     28  C   UNL     1      -5.058  -2.844  -4.157  0.00  0.00    +0.047 C 
ATOM     29  H   UNL     1      -6.988  -3.969  -2.360  0.00  0.00    +0.152 HD
BRANCH  24  30
ATOM     30  C   UNL     1      -6.761  -1.265  -3.238  0.00  0.00    -0.013 A 
ATOM     31  C   UNL     1      -8.071  -1.699  -3.335  0.00  0.00    +0.009 A 
ATOM     32  C   UNL     1      -9.075  -0.805  -3.655  0.00  0.00    +0.041 A 
ATOM     33  C   UNL     1      -8.770   0.527  -3.879  0.00  0.00    +0.158 A 
ATOM     34  C   UNL     1      -7.457   0.962  -3.782  0.00  0.00    +0.159 A 
ATOM     35  C   UNL     1      -6.455   0.065  -3.456  0.00  0.00    +0.047 A 
ATOM     36  F   UNL     1      -7.157   2.261  -4.000  0.00  0.00    -0.202 F 
ATOM     37  F   UNL     1      -9.751   1.402  -4.191  0.00  0.00    -0.202 F 
ENDBRANCH  24  30
ENDBRANCH  20  21
ENDBRANCH   2  20
TORSDOF 7
