REMARK  Name = ZINC05048954
REMARK  4 active torsions:
REMARK  status: ('A' for Active; 'I' for Inactive)
REMARK    1  A    between atoms: N_6  and  C_7
REMARK    2  A    between atoms: C_7  and  C_9
REMARK    3  A    between atoms: C_7  and  C_14
REMARK    4  A    between atoms: C_23  and  O_24
REMARK                            x       y       z     vdW  Elec       q    Type
REMARK                         _______ _______ _______ _____ _____    ______ ____
ROOT
ATOM      1  C   UNL     1       4.782  -0.086  -0.044  0.00  0.00    +0.136 C 
ENDROOT
BRANCH   1   2
ATOM      2  C   UNL     1       5.810  -0.941   0.651  0.00  0.00    +0.022 A 
ATOM      3  C   UNL     1       5.685  -2.327   0.618  0.00  0.00    +0.030 A 
ATOM      4  C   UNL     1       6.598  -3.128   1.236  0.00  0.00    +0.051 A 
ATOM      5  C   UNL     1       7.682  -2.549   1.919  0.00  0.00    +0.022 A 
ATOM      6  C   UNL     1       8.645  -3.343   2.570  0.00  0.00    +0.013 A 
ATOM      7  C   UNL     1       9.672  -2.712   3.212  0.00  0.00    +0.020 A 
ATOM      8  C   UNL     1       9.743  -1.321   3.211  0.00  0.00    +0.111 A 
ATOM      9  N   UNL     1       8.843  -0.585   2.604  0.00  0.00    -0.251 NA
ATOM     10  C   UNL     1       7.814  -1.140   1.957  0.00  0.00    +0.114 A 
ATOM     11  C   UNL     1       6.853  -0.344   1.300  0.00  0.00    +0.148 A 
ATOM     12 CL   UNL     1       6.423  -4.854   1.182  0.00  0.00    -0.083 Cl
BRANCH  11  13
ATOM     13  O   UNL     1       6.961   1.011   1.317  0.00  0.00    -0.504 OA
ATOM     14  H   UNL     1       6.514   1.431   2.064  0.00  0.00    +0.292 HD
ENDBRANCH  11  13
ENDBRANCH   1   2
BRANCH   1  20
ATOM     15  C   UNL     1       1.153   1.996  -0.359  0.00  0.00    +0.005 A 
ATOM     16  C   UNL     1      -0.033   1.276  -0.398  0.00  0.00    +0.018 A 
ATOM     17  C   UNL     1       0.010  -0.102  -0.332  0.00  0.00    +0.084 A 
ATOM     18  C   UNL     1       2.314  -0.088  -0.193  0.00  0.00    +0.097 A 
ATOM     19  C   UNL     1       2.344   1.301  -0.255  0.00  0.00    +0.041 A 
ATOM     20  N   UNL     1       3.503  -0.800  -0.089  0.00  0.00    -0.320 N 
ATOM     21  H   UNL     1       3.487  -1.769  -0.046  0.00  0.00    +0.148 HD
ATOM     22  N   UNL     1       1.161  -0.818  -0.230  0.00  0.00    -0.350 N 
ATOM     23  H   UNL     1       1.164  -1.844  -0.182  0.00  0.00    +0.166 HD
ENDBRANCH   1  20
BRANCH   1  24
ATOM     24  C   UNL     1       5.242   0.209  -1.449  0.00  0.00    -0.016 A 
ATOM     25  C   UNL     1       5.824   1.425  -1.755  0.00  0.00    +0.013 A 
ATOM     26  C   UNL     1       6.231   1.657  -3.027  0.00  0.00    +0.045 A 
ATOM     27  S   UNL     1       5.780   0.135  -3.843  0.00  0.00    -0.105 S 
ATOM     28  C   UNL     1       5.085  -0.711  -2.432  0.00  0.00    +0.051 A 
ENDBRANCH   1  24
TORSDOF 4
