REMARK  Name = ZINC56797821
REMARK  5 active torsions:
REMARK  status: ('A' for Active; 'I' for Inactive)
REMARK    1  A    between atoms: C_4  and  C_6
REMARK    2  A    between atoms: N_14  and  C_15
REMARK    3  A    between atoms: C_15  and  C_16
REMARK    4  A    between atoms: C_16  and  C_17
REMARK    5  A    between atoms: C_17  and  N_18
REMARK                            x       y       z     vdW  Elec       q    Type
REMARK                         _______ _______ _______ _____ _____    ______ ____
ROOT
ATOM      1  C   UNL     1       5.289   0.044  -4.211  0.00  0.00    +0.107 C 
ENDROOT
BRANCH   1   9
ATOM      2  C   UNL     1       1.128  -1.242  -1.873  0.00  0.00    +0.081 C 
ATOM      3  C   UNL     1       0.494  -2.603  -1.516  0.00  0.00    +0.024 C 
ATOM      4  C   UNL     1       1.194  -3.580  -2.495  0.00  0.00    +0.021 C 
ATOM      5  C   UNL     1       2.619  -2.978  -2.571  0.00  0.00    +0.110 C 
ATOM      6  N   UNL     1       2.414  -1.515  -2.531  0.00  0.00    -0.282 N 
ATOM      7  C   UNL     1       3.262  -0.586  -3.015  0.00  0.00    +0.302 C 
ATOM      8  O   UNL     1       3.030   0.596  -2.846  0.00  0.00    -0.253 OA
ATOM      9  N   UNL     1       4.367  -0.966  -3.685  0.00  0.00    -0.299 N 
ATOM     10  H   UNL     1       4.553  -1.909  -3.819  0.00  0.00    +0.150 HD
BRANCH   2  14
ATOM     11  C   UNL     1       1.377  -1.413   1.663  0.00  0.00    +0.000 C 
ATOM     12  C   UNL     1       0.351  -0.253   1.615  0.00  0.00    +0.000 C 
ATOM     13  C   UNL     1       0.012  -0.159   0.107  0.00  0.00    +0.005 C 
ATOM     14  C   UNL     1       1.357  -0.424  -0.601  0.00  0.00    +0.010 C 
ATOM     15  C   UNL     1       2.225  -1.221   0.389  0.00  0.00    +0.005 C 
ENDBRANCH   2  14
ENDBRANCH   1   9
BRANCH   1  16
ATOM     16  C   UNL     1       6.452  -0.649  -4.923  0.00  0.00    +0.038 C 
BRANCH  16  17
ATOM     17  C   UNL     1       7.415   0.406  -5.473  0.00  0.00    +0.119 C 
BRANCH  17  18
ATOM     18  N   UNL     1       8.529  -0.258  -6.155  0.00  0.00    -0.224 N 
ATOM     19  C   UNL     1       9.677  -0.630  -5.549  0.00  0.00    +0.246 C 
ATOM     20  O   UNL     1       9.973  -0.485  -4.382  0.00  0.00    -0.273 OA
ATOM     21  C   UNL     1      10.511  -1.264  -6.633  0.00  0.00    +0.113 C 
ATOM     22  C   UNL     1      10.841  -2.723  -6.293  0.00  0.00    +0.035 C 
ATOM     23  C   UNL     1      12.269  -2.927  -6.862  0.00  0.00    +0.003 C 
ATOM     24  C   UNL     1      12.952  -1.566  -6.574  0.00  0.00    +0.003 C 
ATOM     25  C   UNL     1      11.838  -0.524  -6.817  0.00  0.00    +0.035 C 
ATOM     26  N   UNL     1       9.679  -1.175  -7.835  0.00  0.00    -0.285 N 
ATOM     27  C   UNL     1       8.533  -0.575  -7.456  0.00  0.00    +0.309 C 
ATOM     28  O   UNL     1       7.609  -0.345  -8.211  0.00  0.00    -0.252 OA
ATOM     29  H   UNL     1       9.906  -1.489  -8.724  0.00  0.00    +0.151 HD
ENDBRANCH  17  18
ENDBRANCH  16  17
ENDBRANCH   1  16
TORSDOF 5
