REMARK  Name = ZINC39674168
REMARK  11 active torsions:
REMARK  status: ('A' for Active; 'I' for Inactive)
REMARK    1  A    between atoms: C_1  and  C_2
REMARK    2  A    between atoms: C_2  and  C_3
REMARK    3  A    between atoms: C_3  and  C_4
REMARK    4  A    between atoms: C_4  and  C_6
REMARK    5  A    between atoms: C_4  and  C_7
REMARK    6  A    between atoms: C_11  and  C_20
REMARK    7  A    between atoms: N_22  and  C_23
REMARK    8  A    between atoms: C_23  and  C_25
REMARK    9  A    between atoms: C_23  and  C_26
REMARK   10  A    between atoms: C_27  and  C_33
REMARK   11  A    between atoms: C_30  and  C_32
REMARK                            x       y       z     vdW  Elec       q    Type
REMARK                         _______ _______ _______ _____ _____    ______ ____
ROOT
ATOM      1  C   UNL     1       0.299  -2.582  -0.636  0.00  0.00    +0.218 C 
ATOM      2  O   UNL     1       0.930  -1.666  -1.120  0.00  0.00    -0.275 OA
ATOM      3  N   UNL     1       0.540  -3.848  -1.030  0.00  0.00    -0.300 N 
ATOM      4  C   UNL     1      -0.196  -5.074  -0.643  0.00  0.00    +0.121 C 
ATOM      5  C   UNL     1      -0.267  -5.912  -1.939  0.00  0.00    +0.100 C 
ATOM      6  C   UNL     1       0.915  -5.419  -2.790  0.00  0.00    -0.004 C 
ATOM      7  C   UNL     1       1.596  -4.327  -1.952  0.00  0.00    +0.115 C 
ATOM      8  C   UNL     1       0.411  -4.830  -4.104  0.00  0.00    -0.010 C 
ATOM      9  C   UNL     1       1.608  -4.399  -4.957  0.00  0.00    -0.082 C 
ATOM     10  N   UNL     1       2.469  -5.559  -5.216  0.00  0.00    +0.379 N 
ATOM     11  C   UNL     1       3.024  -6.063  -3.954  0.00  0.00    -0.082 C 
ATOM     12  C   UNL     1       1.887  -6.564  -3.058  0.00  0.00    -0.010 C 
ATOM     13  H   UNL     1       1.927  -6.287  -5.658  0.00  0.00    -0.086 HD
ATOM     14  H   UNL     1       3.223  -5.286  -5.828  0.00  0.00    -0.086 HD
ENDROOT
BRANCH   5  15
ATOM     15  C   UNL     1      -1.571  -5.664  -2.654  0.00  0.00    +0.219 C 
ATOM     16  O   UNL     1      -2.155  -4.612  -2.502  0.00  0.00    -0.275 OA
ATOM     17  N   UNL     1      -2.087  -6.611  -3.462  0.00  0.00    -0.309 N 
ATOM     18  H   UNL     1      -1.620  -7.452  -3.584  0.00  0.00    +0.149 HD
BRANCH  17  19
ATOM     19  C   UNL     1      -3.354  -6.370  -4.157  0.00  0.00    +0.100 C 
ATOM     20  C   UNL     1      -3.078  -5.687  -5.498  0.00  0.00    +0.033 C 
BRANCH  19  21
ATOM     21  C   UNL     1      -4.054  -7.683  -4.396  0.00  0.00    -0.001 C 
ATOM     22  C   UNL     1      -5.270  -8.053  -3.989  0.00  0.00    +0.063 C 
ATOM     23  N   UNL     1      -5.551  -9.309  -4.398  0.00  0.00    -0.159 NA
ATOM     24  N   UNL     1      -4.653  -9.849  -5.049  0.00  0.00    -0.180 NA
ATOM     25  C   UNL     1      -3.542  -8.890  -5.162  0.00  0.00    +0.154 C 
ATOM     26  C   UNL     1      -2.278  -9.450  -4.507  0.00  0.00    +0.039 C 
ATOM     27  C   UNL     1      -6.202  -7.187  -3.181  0.00  0.00    +0.067 C 
ENDBRANCH  19  21
ENDBRANCH  17  19
ENDBRANCH   5  15
BRANCH   1  28
ATOM     28  C   UNL     1      -0.753  -2.303   0.406  0.00  0.00    +0.072 C 
ATOM     29  C   UNL     1      -1.431  -0.965   0.102  0.00  0.00    +0.017 C 
BRANCH  28  30
ATOM     30  C   UNL     1      -0.100  -2.242   1.788  0.00  0.00    +0.012 C 
BRANCH  30  32
ATOM     31  C   UNL     1      -0.528  -2.022   4.239  0.00  0.00    +0.004 C 
ATOM     32  C   UNL     1      -1.182  -2.084   2.857  0.00  0.00    -0.003 C 
ENDBRANCH  30  32
ENDBRANCH  28  30
ENDBRANCH   1  28
TORSDOF 6
