REMARK  Name = ZINC09242488
REMARK  15 active torsions:
REMARK  status: ('A' for Active; 'I' for Inactive)
REMARK    1  A    between atoms: C_1  and  C_2
REMARK    2  A    between atoms: C_2  and  C_3
REMARK    3  A    between atoms: C_3  and  N_4
REMARK    4  A    between atoms: C_15  and  C_16
REMARK    5  A    between atoms: C_15  and  O_26
REMARK    6  A    between atoms: C_19  and  O_22
REMARK    7  A    between atoms: O_22  and  C_23
REMARK    8  A    between atoms: C_23  and  C_24
REMARK    9  A    between atoms: C_24  and  C_25
REMARK   10  A    between atoms: N_31  and  C_32
REMARK   11  A    between atoms: C_32  and  C_33
REMARK   12  A    between atoms: C_33  and  C_34
REMARK   13  A    between atoms: C_34  and  N_72
REMARK   14  A    between atoms: C_35  and  N_72
REMARK   15  A    between atoms: C_36  and  N_72
REMARK                            x       y       z     vdW  Elec       q    Type
REMARK                         _______ _______ _______ _____ _____    ______ ____
ROOT
ATOM      1  N   UNL     1      -1.412  -1.331   0.838  0.00  0.00    -0.269 N 
ATOM      2  C   UNL     1      -1.855  -1.343  -0.485  0.00  0.00    +0.042 A 
ATOM      3  C   UNL     1      -2.926  -2.006  -1.081  0.00  0.00    +0.024 A 
ATOM      4  C   UNL     1      -3.167  -1.860  -2.432  0.00  0.00    +0.002 A 
ATOM      5  C   UNL     1      -2.349  -1.056  -3.205  0.00  0.00    +0.000 A 
ATOM      6  C   UNL     1      -1.284  -0.394  -2.620  0.00  0.00    +0.008 A 
ATOM      7  C   UNL     1      -1.040  -0.537  -1.273  0.00  0.00    +0.011 A 
ATOM      8  C   UNL     1       0.006   0.027  -0.348  0.00  0.00    +0.174 C 
ATOM      9  C   UNL     1      -0.327  -0.553   1.004  0.00  0.00    +0.253 C 
ATOM     10  O   UNL     1       0.270  -0.355   2.042  0.00  0.00    -0.272 OA
ATOM     11  C   UNL     1      -0.049   1.531  -0.319  0.00  0.00    +0.083 C 
ATOM     12  C   UNL     1      -1.132   2.319   0.020  0.00  0.00    +0.134 C 
ATOM     13  C   UNL     1       1.226   1.969  -0.715  0.00  0.00    +0.250 C 
ATOM     14  O   UNL     1       1.583   3.129  -0.818  0.00  0.00    -0.282 OA
ATOM     15  C   UNL     1       2.065   0.770  -0.986  0.00  0.00    +0.288 C 
ATOM     16  O   UNL     1       3.223   0.798  -1.348  0.00  0.00    -0.266 OA
ATOM     17  N   UNL     1       1.351  -0.351  -0.770  0.00  0.00    -0.273 N 
ENDROOT
BRANCH  12  18
ATOM     18  C   UNL     1      -0.973   3.776   0.138  0.00  0.00    +0.017 A 
ATOM     19  C   UNL     1       0.052   4.309   0.929  0.00  0.00    +0.015 A 
ATOM     20  C   UNL     1       0.201   5.674   1.031  0.00  0.00    +0.046 A 
ATOM     21  C   UNL     1      -0.673   6.523   0.361  0.00  0.00    +0.121 A 
ATOM     22  C   UNL     1      -1.697   5.998  -0.421  0.00  0.00    +0.046 A 
ATOM     23  C   UNL     1      -1.850   4.635  -0.535  0.00  0.00    +0.015 A 
BRANCH  21  24
ATOM     24  O   UNL     1      -0.526   7.867   0.469  0.00  0.00    -0.492 OA
BRANCH  24  25
ATOM     25  C   UNL     1       0.546   8.339   1.288  0.00  0.00    +0.229 C 
BRANCH  25  26
ATOM     26  C   UNL     1       0.552   9.869   1.289  0.00  0.00    +0.038 C 
ATOM     27  C   UNL     1       1.700  10.373   2.165  0.00  0.00    +0.007 C 
ENDBRANCH  25  26
ENDBRANCH  24  25
ENDBRANCH  21  24
ENDBRANCH  12  18
BRANCH  12  28
ATOM     28  O   UNL     1      -2.336   1.751   0.243  0.00  0.00    -0.506 OA
ATOM     29  H   UNL     1      -3.002   2.460   0.476  0.00  0.00    +0.292 HD
ENDBRANCH  12  28
BRANCH   1  30
ATOM     30  C   UNL     1      -2.054  -2.079   1.922  0.00  0.00    +0.113 C 
BRANCH  30  32
ATOM     31  C   UNL     1      -2.095  -4.252   3.156  0.00  0.00    +0.005 C 
ATOM     32  C   UNL     1      -1.424  -3.470   2.024  0.00  0.00    +0.016 C 
ENDBRANCH  30  32
ENDBRANCH   1  30
BRANCH  17  33
ATOM     33  C   UNL     1       1.842  -1.721  -0.933  0.00  0.00    +0.108 C 
BRANCH  33  34
ATOM     34  C   UNL     1       1.583  -2.189  -2.366  0.00  0.00    +0.000 C 
BRANCH  34  35
ATOM     35  C   UNL     1       2.096  -3.621  -2.536  0.00  0.00    -0.078 C 
BRANCH  35  38
ATOM     36  C   UNL     1       2.646  -3.297  -4.871  0.00  0.00    -0.097 C 
ATOM     37  C   UNL     1       2.106  -5.510  -4.050  0.00  0.00    -0.097 C 
ATOM     38  N   UNL     1       1.819  -4.066  -3.918  0.00  0.00    +0.376 N 
ATOM     39  H   UNL     1       0.828  -3.902  -4.129  0.00  0.00    -0.083 HD
ENDBRANCH  35  38
ENDBRANCH  34  35
ENDBRANCH  33  34
ENDBRANCH  17  33
TORSDOF 11
