REMARK  Name = ZINC63598775
REMARK  6 active torsions:
REMARK  status: ('A' for Active; 'I' for Inactive)
REMARK    1  A    between atoms: C_1  and  C_2
REMARK    2  A    between atoms: C_4  and  S_12
REMARK    3  A    between atoms: S_12  and  C_13
REMARK    4  A    between atoms: C_13  and  C_14
REMARK    5  A    between atoms: N_16  and  N_17
REMARK    6  A    between atoms: C_18  and  C_20
REMARK                            x       y       z     vdW  Elec       q    Type
REMARK                         _______ _______ _______ _____ _____    ______ ____
ROOT
ATOM      1  C   UNL     1      -5.094  -1.301  -1.517  0.00  0.00    +0.239 C 
ATOM      2  O   UNL     1      -4.982  -0.635  -2.525  0.00  0.00    -0.273 OA
ATOM      3  N   UNL     1      -6.221  -2.007  -1.299  0.00  0.00    -0.233 N 
ATOM      4  H   UNL     1      -6.311  -2.540  -0.493  0.00  0.00    +0.173 HD
ENDROOT
BRANCH   3   5
ATOM      5  N   UNL     1      -7.263  -1.971  -2.235  0.00  0.00    -0.230 N 
ATOM      6  C   UNL     1      -8.390  -2.677  -2.016  0.00  0.00    +0.260 C 
ATOM      7  O   UNL     1      -8.503  -3.345  -1.007  0.00  0.00    -0.269 OA
ATOM      8  H   UNL     1      -7.173  -1.438  -3.040  0.00  0.00    +0.173 HD
BRANCH   6   9
ATOM      9  C   UNL     1      -9.489  -2.639  -3.004  0.00  0.00    +0.038 A 
ATOM     10  C   UNL     1      -9.360  -1.878  -4.167  0.00  0.00    +0.014 A 
ATOM     11  C   UNL     1     -10.389  -1.847  -5.084  0.00  0.00    +0.021 A 
ATOM     12  C   UNL     1     -11.549  -2.568  -4.854  0.00  0.00    +0.041 A 
ATOM     13  C   UNL     1     -11.682  -3.325  -3.702  0.00  0.00    +0.021 A 
ATOM     14  C   UNL     1     -10.658  -3.370  -2.780  0.00  0.00    +0.014 A 
ATOM     15 CL   UNL     1     -12.840  -2.523  -6.014  0.00  0.00    -0.084 Cl
ENDBRANCH   6   9
ENDBRANCH   3   5
BRANCH   1  16
ATOM     16  C   UNL     1      -3.974  -1.340  -0.510  0.00  0.00    +0.171 C 
BRANCH  16  17
ATOM     17  S   UNL     1      -2.607  -0.295  -1.087  0.00  0.00    -0.117 S 
BRANCH  17  20
ATOM     18  C   UNL     1       0.005   1.499  -0.001  0.00  0.00    +0.036 C 
ATOM     19  C   UNL     1       0.013  -0.031  -0.019  0.00  0.00    +0.113 C 
ATOM     20  C   UNL     1      -1.403  -0.561   0.025  0.00  0.00    +0.017 C 
ATOM     21  C   UNL     1      -1.486  -1.317   1.190  0.00  0.00    +0.009 A 
ATOM     22  C   UNL     1      -2.539  -2.055   1.773  0.00  0.00    +0.011 A 
ATOM     23  C   UNL     1      -2.334  -2.712   2.944  0.00  0.00    +0.001 A 
ATOM     24  C   UNL     1      -1.099  -2.678   3.593  0.00  0.00    +0.002 A 
ATOM     25  C   UNL     1      -0.044  -1.989   3.090  0.00  0.00    +0.026 A 
ATOM     26  C   UNL     1      -0.183  -1.279   1.870  0.00  0.00    +0.044 A 
ATOM     27  N   UNL     1       0.676  -0.547   1.183  0.00  0.00    -0.377 N 
ATOM     28  H   UNL     1       1.598  -0.377   1.434  0.00  0.00    +0.160 HD
ENDBRANCH  17  20
ENDBRANCH  16  17
ENDBRANCH   1  16
TORSDOF 5
