REMARK  Name = ZINC43526872
REMARK  12 active torsions:
REMARK  status: ('A' for Active; 'I' for Inactive)
REMARK    1  A    between atoms: C_1  and  C_2
REMARK    2  A    between atoms: C_2  and  N_3
REMARK    3  A    between atoms: N_3  and  C_4
REMARK    4  A    between atoms: N_3  and  C_6
REMARK    5  A    between atoms: C_4  and  C_5
REMARK    6  A    between atoms: C_6  and  C_7
REMARK    7  A    between atoms: C_16  and  C_18
REMARK    8  A    between atoms: C_18  and  N_19
REMARK    9  A    between atoms: N_19  and  C_20
REMARK   10  A    between atoms: C_20  and  N_22
REMARK   11  A    between atoms: N_22  and  C_23
REMARK   12  A    between atoms: C_26  and  N_29
REMARK                            x       y       z     vdW  Elec       q    Type
REMARK                         _______ _______ _______ _____ _____    ______ ____
ROOT
ATOM      1  C   UNL     1      -2.108  -4.276   5.301  0.00  0.00    +0.088 C 
ENDROOT
BRANCH   1   9
ATOM      2  C   UNL     1      -1.286  -2.231   1.621  0.00  0.00    -0.041 C 
ATOM      3  C   UNL     1      -1.919  -1.482   2.796  0.00  0.00    -0.076 C 
ATOM      4  N   UNL     1      -2.505  -2.436   3.741  0.00  0.00    +0.383 N 
ATOM      5  C   UNL     1      -3.564  -3.216   3.097  0.00  0.00    -0.078 C 
ATOM      6  C   UNL     1      -2.986  -4.022   1.931  0.00  0.00    -0.015 C 
ATOM      7  C   UNL     1      -1.479  -3.739   1.830  0.00  0.00    -0.015 C 
ATOM      8  C   UNL     1      -0.823  -4.130   3.161  0.00  0.00    -0.010 C 
ATOM      9  C   UNL     1      -1.473  -3.320   4.288  0.00  0.00    -0.051 C 
ATOM     10  H   UNL     1      -2.919  -1.918   4.502  0.00  0.00    -0.081 HD
BRANCH   2  11
ATOM     11  C   UNL     1      -1.963  -1.803   0.317  0.00  0.00    -0.077 C 
BRANCH  11  12
ATOM     12  N   UNL     1      -1.682  -0.384   0.062  0.00  0.00    +0.379 N 
ATOM     13  H   UNL     1      -1.965   0.164   0.860  0.00  0.00    -0.082 HD
BRANCH  12  15
ATOM     14  C   UNL     1       0.067   1.286  -0.325  0.00  0.00    -0.017 C 
ATOM     15  C   UNL     1      -0.242  -0.204  -0.170  0.00  0.00    -0.082 C 
ENDBRANCH  12  15
BRANCH  12  16
ATOM     16  C   UNL     1      -2.428   0.057  -1.124  0.00  0.00    -0.082 C 
ATOM     17  C   UNL     1      -3.929  -0.017  -0.840  0.00  0.00    -0.017 C 
ENDBRANCH  12  16
ENDBRANCH  11  12
ENDBRANCH   2  11
ENDBRANCH   1   9
BRANCH   1  18
ATOM     18  N   UNL     1      -2.819  -3.503   6.323  0.00  0.00    -0.328 N 
ATOM     19  H   UNL     1      -2.828  -2.534   6.278  0.00  0.00    +0.148 HD
BRANCH  18  20
ATOM     20  C   UNL     1      -3.459  -4.138   7.324  0.00  0.00    +0.134 C 
ATOM     21  S   UNL     1      -3.442  -5.848   7.402  0.00  0.00    -0.019 S 
BRANCH  20  22
ATOM     22  N   UNL     1      -4.113  -3.427   8.264  0.00  0.00    -0.297 N 
ATOM     23  H   UNL     1      -4.175  -2.462   8.186  0.00  0.00    +0.154 HD
BRANCH  22  24
ATOM     24  C   UNL     1      -4.702  -4.081   9.352  0.00  0.00    +0.033 A 
ATOM     25  C   UNL     1      -4.539  -3.578  10.636  0.00  0.00    +0.025 A 
ATOM     26  C   UNL     1      -5.120  -4.222  11.710  0.00  0.00    +0.029 A 
ATOM     27  C   UNL     1      -5.867  -5.375  11.506  0.00  0.00    +0.065 A 
ATOM     28  C   UNL     1      -6.030  -5.879  10.222  0.00  0.00    +0.029 A 
ATOM     29  C   UNL     1      -5.454  -5.231   9.148  0.00  0.00    +0.025 A 
BRANCH  27  30
ATOM     30  N   UNL     1      -6.457  -6.030  12.596  0.00  0.00    -0.240 N 
ATOM     31  C   UNL     1      -7.201  -7.158  12.540  0.00  0.00    +0.114 A 
ATOM     32  C   UNL     1      -7.581  -7.464  13.802  0.00  0.00    +0.041 A 
ATOM     33  C   UNL     1      -7.053  -6.493  14.659  0.00  0.00    +0.135 A 
ATOM     34  N   UNL     1      -6.375  -5.636  13.938  0.00  0.00    -0.175 NA
ENDBRANCH  27  30
ENDBRANCH  22  24
ENDBRANCH  20  22
ENDBRANCH  18  20
ENDBRANCH   1  18
TORSDOF 10
