REMARK  Name = ZINC16980864
REMARK  7 active torsions:
REMARK  status: ('A' for Active; 'I' for Inactive)
REMARK    1  A    between atoms: C_1  and  C_2
REMARK    2  A    between atoms: C_3  and  C_31
REMARK    3  A    between atoms: C_11  and  C_30
REMARK    4  A    between atoms: C_12  and  C_16
REMARK    5  A    between atoms: C_13  and  C_15
REMARK    6  A    between atoms: C_16  and  C_17
REMARK    7  A    between atoms: C_17  and  C_18
REMARK                            x       y       z     vdW  Elec       q    Type
REMARK                         _______ _______ _______ _____ _____    ______ ____
ROOT
ATOM      1  C   UNL     1       2.518   1.243  -0.016  0.00  0.00    +0.051 C 
ATOM      2  C   UNL     1       1.187   1.950   0.001  0.00  0.00    +0.035 A 
ATOM      3  C   UNL     1       1.125   3.312   0.009  0.00  0.00    +0.050 A 
ATOM      4  N   UNL     1      -0.057   3.927   0.023  0.00  0.00    -0.217 NA
ATOM      5  C   UNL     1      -1.183   3.247   0.030  0.00  0.00    +0.232 A 
ATOM      6  N   UNL     1      -1.185   1.889   0.018  0.00  0.00    -0.291 N 
ATOM      7  H   UNL     1      -2.025   1.403   0.019  0.00  0.00    +0.172 HD
ATOM      8  C   UNL     1      -0.015   1.216   0.009  0.00  0.00    +0.256 A 
ATOM      9  O   UNL     1       0.002  -0.004   0.002  0.00  0.00    -0.267 OA
ATOM     10  N   UNL     1      -2.388   3.929   0.045  0.00  0.00    -0.204 N 
ATOM     11  C   UNL     1      -2.545   5.280   0.058  0.00  0.00    +0.048 A 
ATOM     12  C   UNL     1      -3.872   5.537   0.066  0.00  0.00    -0.003 A 
ATOM     13  C   UNL     1      -4.549   4.311   0.067  0.00  0.00    +0.064 A 
ATOM     14  N   UNL     1      -3.663   3.350   0.054  0.00  0.00    -0.169 NA
ATOM     15  C   UNL     1      -6.045   4.131   0.079  0.00  0.00    +0.068 C 
ATOM     16  C   UNL     1      -1.440   6.305   0.060  0.00  0.00    +0.066 C 
ATOM     17  C   UNL     1       2.394   4.124   0.001  0.00  0.00    +0.066 C 
ENDROOT
BRANCH  12  18
ATOM     18  C   UNL     1      -4.510   6.902   0.078  0.00  0.00    +0.048 C 
BRANCH  18  19
ATOM     19  C   UNL     1      -4.712   7.358   1.524  0.00  0.00    +0.101 C 
BRANCH  19  20
ATOM     20  C   UNL     1      -5.350   8.723   1.536  0.00  0.00    +0.219 C 
ATOM     21  O   UNL     1      -5.617   9.277   0.491  0.00  0.00    -0.275 OA
ATOM     22  N   UNL     1      -5.624   9.329   2.708  0.00  0.00    -0.265 N 
ATOM     23  C   UNL     1      -6.211  10.584   2.720  0.00  0.00    +0.165 A 
ATOM     24  N   UNL     1      -6.550  11.325   3.748  0.00  0.00    -0.225 NA
ATOM     25  C   UNL     1      -7.119  12.542   3.610  0.00  0.00    +0.080 A 
ATOM     26  C   UNL     1      -7.528  13.435   4.627  0.00  0.00    +0.029 A 
ATOM     27  C   UNL     1      -8.095  14.643   4.312  0.00  0.00    +0.002 A 
ATOM     28  C   UNL     1      -8.287  15.032   2.994  0.00  0.00    +0.001 A 
ATOM     29  C   UNL     1      -7.899  14.183   1.974  0.00  0.00    +0.017 A 
ATOM     30  C   UNL     1      -7.330  12.972   2.280  0.00  0.00    +0.041 A 
ATOM     31  S   UNL     1      -6.692  11.608   1.336  0.00  0.00    -0.052 S 
ATOM     32  H   UNL     1      -5.410   8.886   3.545  0.00  0.00    +0.157 HD
ENDBRANCH  19  20
ENDBRANCH  18  19
ENDBRANCH  12  18
TORSDOF 3
