REMARK  Name = ZINC21043014
REMARK  5 active torsions:
REMARK  status: ('A' for Active; 'I' for Inactive)
REMARK    1  A    between atoms: C_1  and  O_2
REMARK    2  A    between atoms: O_2  and  C_3
REMARK    3  A    between atoms: C_4  and  C_11
REMARK    4  A    between atoms: C_11  and  C_13
REMARK    5  A    between atoms: C_11  and  N_22
REMARK                            x       y       z     vdW  Elec       q    Type
REMARK                         _______ _______ _______ _____ _____    ______ ____
ROOT
ATOM      1  C   UNL     1       1.433   2.636   2.689  0.00  0.00    -0.010 C 
ENDROOT
BRANCH   1   2
ATOM      2  C   UNL     1       2.560   2.490   1.700  0.00  0.00    -0.054 A 
ATOM      3  C   UNL     1       3.399   3.560   1.447  0.00  0.00    +0.006 A 
ATOM      4  C   UNL     1       4.437   3.429   0.544  0.00  0.00    +0.050 A 
ATOM      5  C   UNL     1       4.634   2.228  -0.118  0.00  0.00    +0.166 A 
ATOM      6  C   UNL     1       3.786   1.152   0.133  0.00  0.00    +0.166 A 
ATOM      7  C   UNL     1       2.751   1.289   1.043  0.00  0.00    +0.051 A 
ATOM      8  O   UNL     1       4.184   0.096  -0.635  0.00  0.00    -0.453 OA
ATOM      9  C   UNL     1       5.526   0.407  -1.052  0.00  0.00    +0.466 C 
ATOM     10  O   UNL     1       5.563   1.846  -1.043  0.00  0.00    -0.453 OA
ENDBRANCH   1   2
BRANCH   1  12
ATOM     11  C   UNL     1      -1.014   3.176   2.591  0.00  0.00    +0.136 A 
ATOM     12  C   UNL     1       0.241   3.253   2.004  0.00  0.00    -0.013 A 
ATOM     13  C   UNL     1       0.396   3.893   0.789  0.00  0.00    +0.026 A 
ATOM     14  C   UNL     1      -0.697   4.465   0.162  0.00  0.00    +0.042 A 
ATOM     15  C   UNL     1      -1.948   4.393   0.748  0.00  0.00    +0.039 A 
ATOM     16  C   UNL     1      -2.109   3.750   1.961  0.00  0.00    +0.061 A 
ATOM     17 BR   UNL     1      -3.820   3.652   2.761  0.00  0.00    -0.046 Br
ATOM     18 CL   UNL     1      -0.498   5.273  -1.361  0.00  0.00    -0.083 Cl
BRANCH  11  20
ATOM     19  C   UNL     1      -1.499   1.153   3.743  0.00  0.00    +0.277 C 
ATOM     20  O   UNL     1      -1.169   2.543   3.784  0.00  0.00    -0.494 OA
ENDBRANCH  11  20
ENDBRANCH   1  12
BRANCH   1  21
ATOM     21  N   UNL     1       1.862   3.499   3.797  0.00  0.00    +0.385 N 
ATOM     22  H   UNL     1       2.732   3.048   4.297  0.00  0.00    -0.089 HD
ATOM     23  H   UNL     1       1.039   3.605   4.519  0.00  0.00    -0.089 HD
ATOM     24  H   UNL     1       2.137   4.489   3.405  0.00  0.00    -0.089 HD
ENDBRANCH   1  21
TORSDOF 4
