REMARK  Name = ZINC36029893
REMARK  8 active torsions:
REMARK  status: ('A' for Active; 'I' for Inactive)
REMARK    1  A    between atoms: C_1  and  C_2
REMARK    2  A    between atoms: C_2  and  C_3
REMARK    3  A    between atoms: C_3  and  C_5
REMARK    4  A    between atoms: C_3  and  C_6
REMARK    5  A    between atoms: N_10  and  C_28
REMARK    6  A    between atoms: N_15  and  S_18
REMARK    7  A    between atoms: S_18  and  C_21
REMARK    8  A    between atoms: C_28  and  C_29
REMARK                            x       y       z     vdW  Elec       q    Type
REMARK                         _______ _______ _______ _____ _____    ______ ____
ROOT
ATOM      1  C   UNL     1      -1.168  -1.846  -0.272  0.00  0.00    +0.022 C 
ATOM      2  C   UNL     1      -0.690  -2.327  -1.625  0.00  0.00    +0.201 C 
ATOM      3  O   UNL     1       0.242  -1.869  -2.251  0.00  0.00    -0.277 OA
ATOM      4  N   UNL     1      -1.475  -3.352  -2.017  0.00  0.00    -0.311 N 
ATOM      5  C   UNL     1      -2.485  -3.615  -0.988  0.00  0.00    +0.006 C 
ATOM      6  N   UNL     1      -2.531  -2.413  -0.126  0.00  0.00    +0.401 N 
ATOM      7  C   UNL     1      -2.086  -4.831  -0.154  0.00  0.00    +0.023 C 
ATOM      8  C   UNL     1      -2.002  -6.063  -1.061  0.00  0.00    +0.109 C 
ATOM      9  N   UNL     1      -3.274  -6.206  -1.782  0.00  0.00    -0.177 NA
ATOM     10  C   UNL     1      -3.782  -5.064  -2.554  0.00  0.00    +0.109 C 
ATOM     11  C   UNL     1      -3.851  -3.840  -1.635  0.00  0.00    +0.023 C 
ATOM     12  H   UNL     1      -2.710  -2.668   0.834  0.00  0.00    -0.082 HD
ATOM     13  H   UNL     1      -3.225  -1.762  -0.460  0.00  0.00    -0.082 HD
ENDROOT
BRANCH   9  14
ATOM     14  S   UNL     1      -4.119  -7.630  -1.727  0.00  0.00    +0.061 S 
ATOM     15  O   UNL     1      -4.931  -7.665  -2.892  0.00  0.00    -0.153 OA
ATOM     16  O   UNL     1      -3.177  -8.649  -1.423  0.00  0.00    -0.153 OA
BRANCH  14  17
ATOM     17  C   UNL     1      -5.216  -7.531  -0.352  0.00  0.00    +0.106 A 
ATOM     18  C   UNL     1      -4.801  -7.960   0.895  0.00  0.00    +0.030 A 
ATOM     19  C   UNL     1      -5.661  -7.883   1.974  0.00  0.00    +0.022 A 
ATOM     20  C   UNL     1      -6.938  -7.376   1.806  0.00  0.00    +0.041 A 
ATOM     21  C   UNL     1      -7.352  -6.947   0.558  0.00  0.00    +0.022 A 
ATOM     22  C   UNL     1      -6.489  -7.019  -0.519  0.00  0.00    +0.030 A 
ATOM     23 CL   UNL     1      -8.019  -7.279   3.161  0.00  0.00    -0.084 Cl
ENDBRANCH  14  17
ENDBRANCH   9  14
BRANCH   1  24
ATOM     24  C   UNL     1      -1.222  -0.317  -0.239  0.00  0.00    -0.020 C 
ATOM     25  C   UNL     1      -1.777   0.145   1.110  0.00  0.00    +0.006 C 
BRANCH  24  27
ATOM     26  C   UNL     1       0.119   1.772  -0.521  0.00  0.00    +0.004 C 
ATOM     27  C   UNL     1       0.188   0.246  -0.429  0.00  0.00    -0.001 C 
ENDBRANCH  24  27
ENDBRANCH   1  24
BRANCH   4  28
ATOM     28  C   UNL     1      -1.339  -4.088  -3.276  0.00  0.00    +0.137 C 
BRANCH  28  29
ATOM     29  C   UNL     1      -2.156  -3.390  -4.365  0.00  0.00    +0.136 C 
ATOM     30  C   UNL     1      -2.101  -4.214  -5.670  0.00  0.00    +0.035 C 
ATOM     31  C   UNL     1      -1.993  -3.108  -6.754  0.00  0.00    +0.031 C 
ATOM     32  C   UNL     1      -1.148  -2.045  -6.008  0.00  0.00    +0.160 C 
ATOM     33  O   UNL     1      -1.596  -2.101  -4.642  0.00  0.00    -0.375 OA
ENDBRANCH  28  29
ENDBRANCH   4  28
TORSDOF 6
