REMARK  Name = ZINC44701765
REMARK  9 active torsions:
REMARK  status: ('A' for Active; 'I' for Inactive)
REMARK    1  A    between atoms: C_1  and  C_2
REMARK    2  A    between atoms: C_2  and  C_3
REMARK    3  A    between atoms: C_4  and  C_28
REMARK    4  A    between atoms: C_9  and  C_11
REMARK    5  A    between atoms: C_11  and  N_12
REMARK    6  A    between atoms: C_15  and  C_19
REMARK    7  A    between atoms: C_15  and  C_20
REMARK    8  A    between atoms: C_23  and  O_26
REMARK    9  A    between atoms: O_26  and  C_27
REMARK                            x       y       z     vdW  Elec       q    Type
REMARK                         _______ _______ _______ _____ _____    ______ ____
ROOT
ATOM      1  N   UNL     1       6.103  -2.582  -5.290  0.00  0.00    -0.215 N 
ATOM      2  C   UNL     1       6.041  -3.869  -5.688  0.00  0.00    +0.251 C 
ATOM      3  O   UNL     1       5.798  -4.837  -5.000  0.00  0.00    -0.272 OA
ATOM      4  C   UNL     1       6.338  -3.853  -7.174  0.00  0.00    +0.135 C 
ATOM      5  N   UNL     1       6.553  -2.426  -7.469  0.00  0.00    -0.281 N 
ATOM      6  C   UNL     1       6.389  -1.764  -6.309  0.00  0.00    +0.310 C 
ATOM      7  O   UNL     1       6.494  -0.558  -6.199  0.00  0.00    -0.252 OA
ATOM      8  C   UNL     1       7.601  -4.661  -7.479  0.00  0.00    +0.047 C 
ATOM      9  H   UNL     1       6.768  -2.038  -8.332  0.00  0.00    +0.152 HD
ENDROOT
BRANCH   4  10
ATOM     10  C   UNL     1       5.165  -4.385  -7.955  0.00  0.00    -0.015 A 
ATOM     11  C   UNL     1       4.328  -5.328  -7.387  0.00  0.00    +0.010 A 
ATOM     12  C   UNL     1       3.252  -5.818  -8.101  0.00  0.00    +0.046 A 
ATOM     13  C   UNL     1       3.011  -5.363  -9.389  0.00  0.00    +0.120 A 
ATOM     14  C   UNL     1       3.852  -4.417  -9.957  0.00  0.00    +0.046 A 
ATOM     15  C   UNL     1       4.923  -3.926  -9.237  0.00  0.00    +0.010 A 
BRANCH  13  16
ATOM     16  O   UNL     1       1.953  -5.843 -10.094  0.00  0.00    -0.495 OA
ATOM     17  C   UNL     1       1.766  -5.330 -11.414  0.00  0.00    +0.277 C 
ENDBRANCH  13  16
ENDBRANCH   4  10
BRANCH   1  18
ATOM     18  C   UNL     1       5.877  -2.135  -3.914  0.00  0.00    +0.214 C 
BRANCH  18  25
ATOM     19  C   UNL     1       0.707  -0.490  -1.238  0.00  0.00    +0.053 A 
ATOM     20  C   UNL     1       0.033  -0.724  -2.390  0.00  0.00    +0.011 A 
ATOM     21  S   UNL     1       1.365  -1.259  -3.453  0.00  0.00    -0.057 S 
ATOM     22  C   UNL     1       2.618  -1.130  -2.337  0.00  0.00    +0.165 A 
ATOM     23  N   UNL     1       2.010  -0.702  -1.252  0.00  0.00    -0.229 NA
ATOM     24  N   UNL     1       3.968  -1.406  -2.519  0.00  0.00    -0.263 N 
ATOM     25  C   UNL     1       4.413  -1.836  -3.716  0.00  0.00    +0.237 C 
ATOM     26  O   UNL     1       3.635  -1.983  -4.635  0.00  0.00    -0.274 OA
ATOM     27  C   UNL     1      -1.436  -0.574  -2.692  0.00  0.00    +0.053 C 
ATOM     28  H   UNL     1       4.591  -1.288  -1.784  0.00  0.00    +0.157 HD
BRANCH  19  30
ATOM     29  C   UNL     1      -0.019   1.526   0.010  0.00  0.00    +0.010 C 
ATOM     30  C   UNL     1       0.002  -0.004   0.002  0.00  0.00    +0.053 C 
ENDBRANCH  19  30
ENDBRANCH  18  25
ENDBRANCH   1  18
TORSDOF 5
