REMARK  Name = ZINC39674883
REMARK  10 active torsions:
REMARK  status: ('A' for Active; 'I' for Inactive)
REMARK    1  A    between atoms: C_1  and  C_2
REMARK    2  A    between atoms: C_4  and  C_14
REMARK    3  A    between atoms: C_7  and  C_12
REMARK    4  A    between atoms: C_14  and  C_15
REMARK    5  A    between atoms: C_15  and  N_16
REMARK    6  A    between atoms: C_17  and  C_19
REMARK    7  A    between atoms: C_30  and  C_32
REMARK    8  A    between atoms: C_32  and  C_33
REMARK    9  A    between atoms: C_33  and  O_34
REMARK   10  A    between atoms: O_34  and  C_35
REMARK                            x       y       z     vdW  Elec       q    Type
REMARK                         _______ _______ _______ _____ _____    ______ ____
ROOT
ATOM      1  N   UNL     1       1.327  -2.362  -5.336  0.00  0.00    -0.315 N 
ATOM      2  C   UNL     1       1.751  -1.248  -5.966  0.00  0.00    +0.218 C 
ATOM      3  O   UNL     1       2.435  -0.440  -5.375  0.00  0.00    -0.275 OA
ATOM      4  H   UNL     1       0.780  -3.008  -5.809  0.00  0.00    +0.149 HD
ENDROOT
BRANCH   2   5
ATOM      5  C   UNL     1       1.375  -1.007  -7.406  0.00  0.00    +0.100 C 
ATOM      6  C   UNL     1       1.324   0.508  -7.702  0.00  0.00    +0.121 C 
ATOM      7  N   UNL     1       2.660   0.827  -8.258  0.00  0.00    -0.300 N 
ATOM      8  C   UNL     1       2.986  -0.332  -9.122  0.00  0.00    +0.115 C 
ATOM      9  C   UNL     1       2.465  -1.556  -8.343  0.00  0.00    -0.004 C 
ATOM     10  C   UNL     1       1.868  -2.580  -9.303  0.00  0.00    -0.010 C 
ATOM     11  C   UNL     1       2.981  -3.154 -10.185  0.00  0.00    -0.082 C 
ATOM     12  N   UNL     1       4.003  -3.783  -9.340  0.00  0.00    +0.379 N 
ATOM     13  C   UNL     1       4.636  -2.773  -8.484  0.00  0.00    -0.082 C 
ATOM     14  C   UNL     1       3.594  -2.183  -7.530  0.00  0.00    -0.010 C 
ATOM     15  C   UNL     1       3.410   1.923  -8.029  0.00  0.00    +0.218 C 
ATOM     16  O   UNL     1       4.492   2.040  -8.563  0.00  0.00    -0.276 OA
ATOM     17  H   UNL     1       3.571  -4.489  -8.762  0.00  0.00    -0.086 HD
ATOM     18  H   UNL     1       4.703  -4.214  -9.925  0.00  0.00    -0.086 HD
BRANCH  15  19
ATOM     19  C   UNL     1       2.903   3.004  -7.109  0.00  0.00    +0.124 C 
BRANCH  19  20
ATOM     20  C   UNL     1       3.938   4.128  -7.023  0.00  0.00    +0.168 C 
BRANCH  20  21
ATOM     21  O   UNL     1       3.458   5.153  -6.151  0.00  0.00    -0.382 OA
ATOM     22  C   UNL     1       4.354   6.255  -6.001  0.00  0.00    +0.194 C 
ENDBRANCH  20  21
ENDBRANCH  19  20
ENDBRANCH  15  19
ENDBRANCH   2   5
BRANCH   1  23
ATOM     23  C   UNL     1       1.693  -2.596  -3.937  0.00  0.00    +0.108 C 
BRANCH  23  24
ATOM     24  C   UNL     1       1.089  -3.921  -3.467  0.00  0.00    +0.052 C 
BRANCH  24  27
ATOM     25  C   UNL     1      -0.443  -5.431  -1.043  0.00  0.00    +0.035 C 
ATOM     26  C   UNL     1       1.079  -5.348  -1.173  0.00  0.00    +0.103 C 
ATOM     27  C   UNL     1       1.465  -4.161  -2.028  0.00  0.00    -0.037 C 
ATOM     28  C   UNL     1       2.218  -3.357  -1.235  0.00  0.00    +0.000 A 
ATOM     29  C   UNL     1       2.856  -2.113  -1.482  0.00  0.00    +0.028 A 
ATOM     30  C   UNL     1       3.574  -1.496  -0.484  0.00  0.00    +0.052 A 
ATOM     31  C   UNL     1       3.699  -2.094   0.840  0.00  0.00    +0.021 A 
ATOM     32  C   UNL     1       3.115  -3.274   1.133  0.00  0.00    +0.027 A 
ATOM     33  C   UNL     1       2.337  -3.975   0.104  0.00  0.00    +0.043 A 
ATOM     34  N   UNL     1       1.687  -5.114   0.140  0.00  0.00    -0.378 N 
ATOM     35  H   UNL     1       1.619  -5.704   0.908  0.00  0.00    +0.160 HD
BRANCH  30  36
ATOM     36  C   UNL     1       4.211  -0.241  -0.751  0.00  0.00    +0.099 C 
ATOM     37  N   UNL     1       4.716   0.754  -0.962  0.00  0.00    -0.191 NA
ENDBRANCH  30  36
ENDBRANCH  24  27
ENDBRANCH  23  24
ENDBRANCH   1  23
TORSDOF 8
