REMARK  Name = ZINC00885050
REMARK  11 active torsions:
REMARK  status: ('A' for Active; 'I' for Inactive)
REMARK    1  A    between atoms: C_1  and  C_2
REMARK    2  A    between atoms: C_5  and  N_9
REMARK    3  A    between atoms: C_6  and  C_8
REMARK    4  A    between atoms: N_9  and  C_10
REMARK    5  A    between atoms: C_10  and  N_12
REMARK    6  A    between atoms: N_12  and  C_13
REMARK    7  A    between atoms: N_12  and  C_28
REMARK    8  A    between atoms: C_13  and  C_14
REMARK    9  A    between atoms: C_18  and  C_27
REMARK   10  A    between atoms: C_20  and  C_26
REMARK   11  A    between atoms: C_28  and  C_29
REMARK                            x       y       z     vdW  Elec       q    Type
REMARK                         _______ _______ _______ _____ _____    ______ ____
ROOT
ATOM      1  N   UNL     1      -4.780   1.220  -1.060  0.00  0.00    -0.305 N 
ENDROOT
BRANCH   1   2
ATOM      2  C   UNL     1      -5.295   0.528  -0.025  0.00  0.00    +0.138 C 
ATOM      3  S   UNL     1      -6.981   0.558   0.269  0.00  0.00    -0.018 S 
BRANCH   2   4
ATOM      4  N   UNL     1      -4.483  -0.187   0.778  0.00  0.00    -0.297 N 
ATOM      5  H   UNL     1      -3.540  -0.268   0.566  0.00  0.00    +0.154 HD
BRANCH   4  10
ATOM      6  C   UNL     1      -6.579  -2.719   5.402  0.00  0.00    +0.044 C 
ATOM      7  C   UNL     1      -6.022  -2.046   4.174  0.00  0.00    -0.050 A 
ATOM      8  C   UNL     1      -6.389  -0.747   3.872  0.00  0.00    +0.005 A 
ATOM      9  C   UNL     1      -5.877  -0.126   2.750  0.00  0.00    +0.024 A 
ATOM     10  C   UNL     1      -5.000  -0.811   1.919  0.00  0.00    +0.036 A 
ATOM     11  C   UNL     1      -4.634  -2.115   2.224  0.00  0.00    -0.029 A 
ATOM     12  C   UNL     1      -5.146  -2.729   3.351  0.00  0.00    +0.008 A 
ATOM     13  C   UNL     1      -3.678  -2.860   1.328  0.00  0.00    +0.045 C 
ENDBRANCH   4  10
ENDBRANCH   2   4
ENDBRANCH   1   2
BRANCH   1  14
ATOM     14  C   UNL     1      -5.663   1.998  -1.934  0.00  0.00    +0.147 C 
BRANCH  14  15
ATOM     15  C   UNL     1      -6.132   1.131  -3.074  0.00  0.00    +0.035 A 
ATOM     16  C   UNL     1      -7.318   0.480  -2.984  0.00  0.00    +0.020 A 
ATOM     17  C   UNL     1      -7.747  -0.351  -4.111  0.00  0.00    -0.001 A 
ATOM     18  C   UNL     1      -8.964  -1.041  -4.079  0.00  0.00    +0.013 A 
ATOM     19  C   UNL     1      -9.333  -1.812  -5.144  0.00  0.00    -0.050 A 
ATOM     20  C   UNL     1      -8.512  -1.916  -6.259  0.00  0.00    +0.008 A 
ATOM     21  C   UNL     1      -7.310  -1.245  -6.312  0.00  0.00    -0.026 A 
ATOM     22  C   UNL     1      -6.912  -0.454  -5.239  0.00  0.00    +0.052 A 
ATOM     23  N   UNL     1      -5.715   0.229  -5.266  0.00  0.00    -0.322 N 
ATOM     24  H   UNL     1      -5.141   0.157  -6.044  0.00  0.00    +0.169 HD
ATOM     25  C   UNL     1      -5.332   0.994  -4.229  0.00  0.00    +0.254 A 
ATOM     26  O   UNL     1      -4.266   1.583  -4.287  0.00  0.00    -0.268 OA
ATOM     27  C   UNL     1      -6.428  -1.368  -7.528  0.00  0.00    +0.046 C 
ATOM     28  C   UNL     1     -10.643  -2.555  -5.109  0.00  0.00    +0.044 C 
ENDBRANCH  14  15
ENDBRANCH   1  14
BRANCH   1  29
ATOM     29  C   UNL     1      -3.337   1.195  -1.312  0.00  0.00    +0.138 C 
BRANCH  29  30
ATOM     30  C   UNL     1      -2.666   2.337  -0.547  0.00  0.00    +0.136 C 
ATOM     31  C   UNL     1      -1.167   2.397  -0.903  0.00  0.00    +0.035 C 
ATOM     32  C   UNL     1      -0.447   2.223   0.456  0.00  0.00    +0.031 C 
ATOM     33  C   UNL     1      -1.553   2.624   1.465  0.00  0.00    +0.160 C 
ATOM     34  O   UNL     1      -2.759   2.099   0.868  0.00  0.00    -0.375 OA
ENDBRANCH  29  30
ENDBRANCH   1  29
TORSDOF 7
