REMARK  Name = ZINC21191121
REMARK  3 active torsions:
REMARK  status: ('A' for Active; 'I' for Inactive)
REMARK    1  A    between atoms: C_9  and  C_12
REMARK    2  A    between atoms: N_14  and  N_15
REMARK    3  A    between atoms: C_16  and  C_18
REMARK                            x       y       z     vdW  Elec       q    Type
REMARK                         _______ _______ _______ _____ _____    ______ ____
ROOT
ATOM      1  N   UNL     1      -0.014   4.225   0.023  0.00  0.00    -0.230 N 
ATOM      2  C   UNL     1       1.162   3.568   0.009  0.00  0.00    +0.260 C 
ATOM      3  O   UNL     1       2.207   4.190   0.003  0.00  0.00    -0.269 OA
ATOM      4  H   UNL     1      -0.959   3.662   0.029  0.00  0.00    +0.173 HD
ENDROOT
BRANCH   2   5
ATOM      5  C   UNL     1       1.183   2.092   0.002  0.00  0.00    +0.043 A 
ATOM      6  C   UNL     1       2.403   1.409  -0.013  0.00  0.00    +0.062 A 
ATOM      7  C   UNL     1       2.412   0.028  -0.020  0.00  0.00    +0.164 A 
ATOM      8  C   UNL     1       1.215  -0.679  -0.013  0.00  0.00    +0.180 A 
ATOM      9  C   UNL     1       0.002  -0.004   0.002  0.00  0.00    +0.087 A 
ATOM     10  C   UNL     1      -0.017   1.376   0.010  0.00  0.00    +0.037 A 
ATOM     11 CL   UNL     1      -1.488  -0.894   0.011  0.00  0.00    -0.080 Cl
ATOM     12  O   UNL     1       1.240  -2.043  -0.019  0.00  0.00    -0.487 OA
ATOM     13  C   UNL     1       1.716  -2.653  -1.220  0.00  0.00    +0.232 C 
ATOM     14  C   UNL     1       3.234  -2.739  -1.217  0.00  0.00    +0.082 C 
ATOM     15  C   UNL     1       3.891  -1.368  -1.234  0.00  0.00    +0.232 C 
ATOM     16  O   UNL     1       3.596  -0.650  -0.034  0.00  0.00    -0.488 OA
ENDBRANCH   2   5
BRANCH   1  19
ATOM     17  C   UNL     1      -1.210   6.284   0.044  0.00  0.00    +0.273 C 
ATOM     18  O   UNL     1      -2.252   5.663   0.051  0.00  0.00    -0.270 OA
ATOM     19  N   UNL     1      -0.034   5.626   0.030  0.00  0.00    -0.231 N 
ATOM     20  H   UNL     1       0.911   6.189   0.024  0.00  0.00    +0.173 HD
BRANCH  17  29
ATOM     21  C   UNL     1      -3.271  12.236   0.831  0.00  0.00    +0.004 A 
ATOM     22  C   UNL     1      -4.216  11.499   0.141  0.00  0.00    +0.004 A 
ATOM     23  C   UNL     1      -3.982  10.168  -0.148  0.00  0.00    +0.049 A 
ATOM     24  C   UNL     1      -2.797   9.568   0.253  0.00  0.00    +0.163 A 
ATOM     25  C   UNL     1      -1.847  10.309   0.945  0.00  0.00    +0.162 A 
ATOM     26  C   UNL     1      -2.089  11.644   1.233  0.00  0.00    +0.049 A 
ATOM     27  O   UNL     1      -0.676   9.741   1.344  0.00  0.00    -0.484 OA
ATOM     28  C   UNL     1      -0.629   8.310   1.365  0.00  0.00    +0.283 C 
ATOM     29  C   UNL     1      -1.231   7.791   0.052  0.00  0.00    +0.297 C 
ATOM     30  O   UNL     1      -2.582   8.255  -0.037  0.00  0.00    -0.472 OA
ENDBRANCH  17  29
ENDBRANCH   1  19
TORSDOF 3
