REMARK  Name = ZINC15784281
REMARK  10 active torsions:
REMARK  status: ('A' for Active; 'I' for Inactive)
REMARK    1  A    between atoms: C_1  and  C_2
REMARK    2  A    between atoms: C_2  and  N_3
REMARK    3  A    between atoms: C_10  and  S_12
REMARK    4  A    between atoms: S_12  and  N_15
REMARK    5  A    between atoms: C_18  and  C_21
REMARK    6  A    between atoms: N_23  and  C_24
REMARK    7  A    between atoms: C_24  and  C_25
REMARK    8  A    between atoms: C_25  and  C_26
REMARK    9  A    between atoms: C_26  and  N_71
REMARK   10  A    between atoms: C_31  and  C_33
REMARK                            x       y       z     vdW  Elec       q    Type
REMARK                         _______ _______ _______ _____ _____    ______ ____
ROOT
ATOM      1  N   UNL     1       8.262   3.978   4.710  0.00  0.00    -0.177 NA
ATOM      2  C   UNL     1       7.534   4.089   5.981  0.00  0.00    +0.110 C 
ATOM      3  C   UNL     1       6.315   3.162   5.935  0.00  0.00    +0.030 C 
ATOM      4  C   UNL     1       5.475   3.493   4.699  0.00  0.00    +0.077 C 
ATOM      5  C   UNL     1       6.308   3.259   3.437  0.00  0.00    +0.030 C 
ATOM      6  C   UNL     1       7.527   4.187   3.455  0.00  0.00    +0.110 C 
ENDROOT
BRANCH   4   7
ATOM      7  C   UNL     1       4.257   2.606   4.668  0.00  0.00    +0.216 C 
ATOM      8  O   UNL     1       4.079   1.790   5.547  0.00  0.00    -0.276 OA
ATOM      9  N   UNL     1       3.366   2.720   3.663  0.00  0.00    -0.315 N 
ATOM     10  H   UNL     1       3.509   3.373   2.960  0.00  0.00    +0.149 HD
BRANCH   9  11
ATOM     11  C   UNL     1       2.182   1.858   3.633  0.00  0.00    +0.102 C 
BRANCH  11  12
ATOM     12  C   UNL     1       1.341   2.189   2.398  0.00  0.00    +0.000 C 
BRANCH  12  13
ATOM     13  C   UNL     1       0.104   1.288   2.367  0.00  0.00    -0.077 C 
BRANCH  13  20
ATOM     14  C   UNL     1      -0.034   1.155  -0.046  0.00  0.00    -0.078 C 
ATOM     15  C   UNL     1      -0.829   1.629  -1.265  0.00  0.00    -0.019 C 
ATOM     16  C   UNL     1      -2.248   1.060  -1.195  0.00  0.00    -0.003 C 
ATOM     17  C   UNL     1      -2.905   1.504   0.115  0.00  0.00    -0.016 C 
ATOM     18  C   UNL     1      -2.050   1.033   1.293  0.00  0.00    -0.072 C 
ATOM     19  C   UNL     1      -2.691   1.492   2.604  0.00  0.00    -0.013 C 
ATOM     20  N   UNL     1      -0.705   1.636   1.181  0.00  0.00    +0.381 N 
ATOM     21  H   UNL     1      -0.800   2.657   1.130  0.00  0.00    -0.081 HD
ENDBRANCH  13  20
ENDBRANCH  12  13
ENDBRANCH  11  12
ENDBRANCH   9  11
ENDBRANCH   4   7
BRANCH   1  22
ATOM     22  S   UNL     1       9.879   3.623   4.691  0.00  0.00    +0.061 S 
ATOM     23  O   UNL     1      10.390   4.122   3.463  0.00  0.00    -0.153 OA
ATOM     24  O   UNL     1      10.398   4.026   5.952  0.00  0.00    -0.153 OA
BRANCH  22  32
ATOM     25  N   UNL     1      10.374  -2.222   4.191  0.00  0.00    -0.347 N 
ATOM     26  C   UNL     1      10.384  -2.337   2.827  0.00  0.00    +0.087 A 
ATOM     27  C   UNL     1      10.281  -1.123   2.264  0.00  0.00    +0.027 A 
ATOM     28  C   UNL     1      10.199  -0.150   3.357  0.00  0.00    +0.002 A 
ATOM     29  C   UNL     1      10.262  -0.897   4.548  0.00  0.00    +0.049 A 
ATOM     30  C   UNL     1      10.205  -0.236   5.770  0.00  0.00    +0.028 A 
ATOM     31  C   UNL     1      10.095   1.137   5.801  0.00  0.00    +0.030 A 
ATOM     32  C   UNL     1      10.028   1.869   4.623  0.00  0.00    +0.106 A 
ATOM     33  C   UNL     1      10.081   1.240   3.411  0.00  0.00    +0.038 A 
BRANCH  25  35
ATOM     34  C   UNL     1       9.063  -3.772   5.554  0.00  0.00    +0.027 C 
ATOM     35  C   UNL     1      10.469  -3.341   5.131  0.00  0.00    +0.118 C 
ENDBRANCH  25  35
ENDBRANCH  22  32
ENDBRANCH   1  22
TORSDOF 8
