REMARK  Name = ZINC21740839
REMARK  8 active torsions:
REMARK  status: ('A' for Active; 'I' for Inactive)
REMARK    1  A    between atoms: C_1  and  C_2
REMARK    2  A    between atoms: C_2  and  N_3
REMARK    3  A    between atoms: C_4  and  C_25
REMARK    4  A    between atoms: C_7  and  S_8
REMARK    5  A    between atoms: S_8  and  C_9
REMARK    6  A    between atoms: C_9  and  C_10
REMARK    7  A    between atoms: N_12  and  C_13
REMARK    8  A    between atoms: C_14  and  C_22
REMARK                            x       y       z     vdW  Elec       q    Type
REMARK                         _______ _______ _______ _____ _____    ______ ____
ROOT
ATOM      1  C   UNL     1      -7.949  -2.975  -0.018  0.00  0.00    +0.173 C 
ENDROOT
BRANCH   1   2
ATOM      2  C   UNL     1      -9.447  -3.144  -0.028  0.00  0.00    +0.228 C 
ATOM      3  O   UNL     1     -10.167  -2.169  -0.021  0.00  0.00    -0.275 OA
ATOM      4  N   UNL     1      -9.985  -4.380  -0.044  0.00  0.00    -0.279 N 
ATOM      5  H   UNL     1      -9.331  -5.264  -0.051  0.00  0.00    +0.155 HD
BRANCH   4   6
ATOM      6  C   UNL     1     -11.363  -4.535  -0.053  0.00  0.00    +0.084 A 
ATOM      7  C   UNL     1     -12.097  -5.713  -0.076  0.00  0.00    +0.068 A 
ATOM      8  C   UNL     1     -13.546  -5.600  -0.078  0.00  0.00    -0.023 A 
ATOM      9  C   UNL     1     -14.025  -4.338  -0.067  0.00  0.00    -0.004 A 
ATOM     10  S   UNL     1     -12.585  -3.308  -0.047  0.00  0.00    -0.077 S 
ATOM     11  C   UNL     1     -15.462  -3.917  -0.071  0.00  0.00    +0.043 C 
ATOM     12  C   UNL     1     -16.319  -5.127  -0.468  0.00  0.00    +0.005 C 
ATOM     13  C   UNL     1     -15.876  -6.338   0.358  0.00  0.00    +0.005 C 
ATOM     14  C   UNL     1     -14.489  -6.797  -0.096  0.00  0.00    +0.037 C 
BRANCH   7  15
ATOM     15  C   UNL     1     -11.436  -7.021  -0.093  0.00  0.00    +0.244 C 
ATOM     16  O   UNL     1     -11.167  -7.581   0.953  0.00  0.00    -0.270 OA
ATOM     17  N   UNL     1     -11.126  -7.604  -1.268  0.00  0.00    -0.325 N 
ATOM     18  H   UNL     1     -10.629  -8.585  -1.282  0.00  0.00    +0.145 HD
ATOM     19  H   UNL     1     -11.368  -7.097  -2.214  0.00  0.00    +0.145 HD
ENDBRANCH   7  15
ENDBRANCH   4   6
ENDBRANCH   1   2
BRANCH   1  20
ATOM     20  S   UNL     1      -7.542  -1.211   0.004  0.00  0.00    -0.078 S 
BRANCH  20  25
ATOM     21  N   UNL     1      -4.931  -0.241   0.028  0.00  0.00    -0.319 N 
ATOM     22  C   UNL     1      -3.646  -0.755   0.029  0.00  0.00    +0.069 A 
ATOM     23  C   UNL     1      -3.768  -2.108   0.008  0.00  0.00    +0.140 A 
ATOM     24  N   UNL     1      -5.073  -2.410   0.003  0.00  0.00    -0.230 NA
ATOM     25  C   UNL     1      -5.782  -1.304   0.012  0.00  0.00    +0.170 A 
BRANCH  22  26
ATOM     26  C   UNL     1      -2.386   0.018   0.044  0.00  0.00    +0.004 A 
ATOM     27  C   UNL     1      -1.203  -0.580   0.484  0.00  0.00    +0.014 A 
ATOM     28  C   UNL     1      -0.030   0.145   0.501  0.00  0.00    +0.050 A 
ATOM     29  C   UNL     1      -0.018   1.466   0.076  0.00  0.00    +0.162 A 
ATOM     30  C   UNL     1      -1.192   2.067  -0.365  0.00  0.00    +0.163 A 
ATOM     31  C   UNL     1      -2.374   1.346  -0.381  0.00  0.00    +0.059 A 
ATOM     32  O   UNL     1      -1.197   3.362  -0.786  0.00  0.00    -0.485 OA
ATOM     33  C   UNL     1      -0.075   4.166  -0.405  0.00  0.00    +0.270 C 
ATOM     34  C   UNL     1       1.205   3.364  -0.675  0.00  0.00    +0.270 C 
ATOM     35  O   UNL     1       1.152   2.163   0.102  0.00  0.00    -0.485 OA
ENDBRANCH  22  26
BRANCH  21  37
ATOM     36  C   UNL     1      -5.557   1.651  -1.389  0.00  0.00    +0.027 C 
ATOM     37  C   UNL     1      -5.304   1.175   0.043  0.00  0.00    +0.121 C 
ENDBRANCH  21  37
ENDBRANCH  20  25
ENDBRANCH   1  20
TORSDOF 7
