REMARK  Name = ZINC66918015
REMARK  7 active torsions:
REMARK  status: ('A' for Active; 'I' for Inactive)
REMARK    1  A    between atoms: C_1  and  C_2
REMARK    2  A    between atoms: C_2  and  C_4
REMARK    3  A    between atoms: C_2  and  O_20
REMARK    4  A    between atoms: N_6  and  C_7
REMARK    5  A    between atoms: C_10  and  C_13
REMARK    6  A    between atoms: O_20  and  C_21
REMARK    7  A    between atoms: C_21  and  C_22
REMARK                            x       y       z     vdW  Elec       q    Type
REMARK                         _______ _______ _______ _____ _____    ______ ____
ROOT
ATOM      1  C   UNL     1      -1.412  -0.526   0.013  0.00  0.00    +0.278 C 
ATOM      2  O   UNL     1      -1.997  -0.860   1.179  0.00  0.00    -0.268 OA
ATOM      3  N   UNL     1      -2.067  -0.653  -1.105  0.00  0.00    -0.174 NA
ENDROOT
BRANCH   3   4
ATOM      4  C   UNL     1      -3.346  -1.125  -1.096  0.00  0.00    +0.249 A 
ATOM      5  N   UNL     1      -4.033  -1.486  -0.029  0.00  0.00    -0.190 NA
ATOM      6  H   UNL     1      -3.914  -1.118  -3.108  0.00  0.00    +0.192 HD
ATOM      7  C   UNL     1      -5.253  -1.898  -0.396  0.00  0.00    +0.185 A 
ATOM      8  N   UNL     1      -5.363  -1.805  -1.703  0.00  0.00    -0.151 NA
ATOM      9  N   UNL     1      -4.144  -1.301  -2.184  0.00  0.00    -0.243 N 
BRANCH   7  10
ATOM     10  C   UNL     1      -6.311  -2.382   0.524  0.00  0.00    +0.039 A 
ATOM     11  C   UNL     1      -6.075  -2.429   1.897  0.00  0.00    +0.013 A 
ATOM     12  C   UNL     1      -7.063  -2.880   2.749  0.00  0.00    +0.001 A 
ATOM     13  C   UNL     1      -8.286  -3.285   2.243  0.00  0.00    +0.001 A 
ATOM     14  C   UNL     1      -8.526  -3.240   0.882  0.00  0.00    +0.021 A 
ATOM     15  C   UNL     1      -7.546  -2.785   0.020  0.00  0.00    +0.052 A 
ATOM     16 CL   UNL     1      -7.851  -2.723  -1.688  0.00  0.00    -0.083 Cl
ENDBRANCH   7  10
ENDBRANCH   3   4
BRANCH   1  18
ATOM     17  C   UNL     1      -0.019   1.526   0.010  0.00  0.00    +0.048 C 
ATOM     18  C   UNL     1       0.002  -0.004   0.002  0.00  0.00    +0.205 C 
BRANCH  18  19
ATOM     19  O   UNL     1       0.693  -0.477   1.160  0.00  0.00    -0.365 OA
BRANCH  19  20
ATOM     20  C   UNL     1       2.099  -0.651   0.967  0.00  0.00    +0.192 C 
BRANCH  20  21
ATOM     21  C   UNL     1       2.732  -1.158   2.264  0.00  0.00    +0.144 C 
ATOM     22  C   UNL     1       4.213  -1.462   2.024  0.00  0.00    +0.034 C 
ATOM     23  C   UNL     1       4.854  -1.912   3.341  0.00  0.00    +0.005 C 
ATOM     24  C   UNL     1       4.649  -0.819   4.395  0.00  0.00    +0.028 C 
ATOM     25  C   UNL     1       3.151  -0.540   4.543  0.00  0.00    +0.160 C 
ATOM     26  O   UNL     1       2.611  -0.157   3.277  0.00  0.00    -0.374 OA
ENDBRANCH  20  21
ENDBRANCH  19  20
ENDBRANCH  18  19
ENDBRANCH   1  18
TORSDOF 6
