REMARK  Name = ZINC18341079
REMARK  7 active torsions:
REMARK  status: ('A' for Active; 'I' for Inactive)
REMARK    1  A    between atoms: C_1  and  C_2
REMARK    2  A    between atoms: C_2  and  C_4
REMARK    3  A    between atoms: C_2  and  O_16
REMARK    4  A    between atoms: O_16  and  C_17
REMARK    5  A    between atoms: C_17  and  C_19
REMARK    6  A    between atoms: N_27  and  S_28
REMARK    7  A    between atoms: S_28  and  C_31
REMARK                            x       y       z     vdW  Elec       q    Type
REMARK                         _______ _______ _______ _____ _____    ______ ____
ROOT
ATOM      1  O   UNL     1       0.002  -0.004   0.002  0.00  0.00    -0.450 OA
ENDROOT
BRANCH   1   3
ATOM      2  C   UNL     1      -0.758   1.955  -1.230  0.00  0.00    +0.060 C 
ATOM      3  C   UNL     1      -0.018   1.448   0.010  0.00  0.00    +0.239 C 
BRANCH   3   4
ATOM      4  C   UNL     1      -0.723   1.934   1.250  0.00  0.00    +0.151 A 
ATOM      5  N   UNL     1      -0.068   1.854   2.437  0.00  0.00    -0.307 N 
ATOM      6  H   UNL     1       0.831   1.490   2.467  0.00  0.00    +0.170 HD
ATOM      7  C   UNL     1      -0.655   2.283   3.579  0.00  0.00    +0.259 A 
ATOM      8  O   UNL     1      -0.078   2.221   4.649  0.00  0.00    -0.267 OA
ATOM      9  C   UNL     1      -2.021   2.819   3.477  0.00  0.00    +0.065 A 
ATOM     10  C   UNL     1      -2.716   3.281   4.593  0.00  0.00    +0.015 A 
ATOM     11  C   UNL     1      -3.994   3.773   4.440  0.00  0.00    +0.001 A 
ATOM     12  C   UNL     1      -4.591   3.812   3.187  0.00  0.00    +0.002 A 
ATOM     13  C   UNL     1      -3.920   3.361   2.072  0.00  0.00    +0.028 A 
ATOM     14  C   UNL     1      -2.624   2.858   2.201  0.00  0.00    +0.078 A 
ATOM     15  N   UNL     1      -1.928   2.402   1.129  0.00  0.00    -0.230 NA
ENDBRANCH   3   4
ENDBRANCH   1   3
BRANCH   1  16
ATOM     16  C   UNL     1       1.044  -0.598  -0.612  0.00  0.00    +0.340 C 
ATOM     17  O   UNL     1       1.913   0.078  -1.126  0.00  0.00    -0.245 OA
BRANCH  16  18
ATOM     18  C   UNL     1       1.131  -2.069  -0.659  0.00  0.00    +0.059 A 
ATOM     19  C   UNL     1       0.137  -2.853  -0.064  0.00  0.00    +0.017 A 
ATOM     20  C   UNL     1       0.215  -4.212  -0.112  0.00  0.00    +0.026 A 
ATOM     21  C   UNL     1       1.292  -4.843  -0.746  0.00  0.00    +0.054 A 
ATOM     22  C   UNL     1       2.283  -4.065  -1.333  0.00  0.00    -0.022 A 
ATOM     23  C   UNL     1       2.210  -2.691  -1.294  0.00  0.00    +0.020 A 
ATOM     24  C   UNL     1       3.317  -4.986  -1.942  0.00  0.00    +0.058 C 
ATOM     25  C   UNL     1       2.800  -6.400  -1.633  0.00  0.00    +0.136 C 
ATOM     26  N   UNL     1       1.551  -6.200  -0.895  0.00  0.00    -0.207 N 
BRANCH  26  27
ATOM     27  S   UNL     1       0.584  -7.416  -0.322  0.00  0.00    +0.043 S 
ATOM     28  O   UNL     1       1.461  -8.519  -0.137  0.00  0.00    -0.155 OA
ATOM     29  O   UNL     1      -0.103  -6.844   0.783  0.00  0.00    -0.155 OA
ATOM     30  C   UNL     1      -0.579  -7.762  -1.670  0.00  0.00    +0.218 C 
ENDBRANCH  26  27
ENDBRANCH  16  18
ENDBRANCH   1  16
TORSDOF 5
