REMARK  Name = ZINC08324722
REMARK  4 active torsions:
REMARK  status: ('A' for Active; 'I' for Inactive)
REMARK    1  A    between atoms: C_6  and  C_7
REMARK    2  A    between atoms: C_12  and  C_13
REMARK    3  A    between atoms: C_12  and  N_54
REMARK    4  A    between atoms: N_15  and  C_16
REMARK                            x       y       z     vdW  Elec       q    Type
REMARK                         _______ _______ _______ _____ _____    ______ ____
ROOT
ATOM      1  C   UNL     1       4.862   1.053  -0.253  0.00  0.00    +0.020 C 
ENDROOT
BRANCH   1   6
ATOM      2  C   UNL     1       7.224   1.349  -0.738  0.00  0.00    -0.037 C 
ATOM      3  C   UNL     1       8.333   2.147  -0.009  0.00  0.00    -0.013 C 
ATOM      4  C   UNL     1       7.642   2.486   1.337  0.00  0.00    -0.020 C 
ATOM      5  C   UNL     1       6.173   2.719   0.925  0.00  0.00    -0.077 C 
ATOM      6  N   UNL     1       5.972   2.035  -0.363  0.00  0.00    +0.390 N 
ATOM      7  H   UNL     1       5.735   2.729  -1.082  0.00  0.00    -0.080 HD
BRANCH   2  13
ATOM      8  C   UNL     1       7.102   2.574  -2.916  0.00  0.00    +0.006 A 
ATOM      9  C   UNL     1       7.282   2.644  -4.286  0.00  0.00    +0.049 A 
ATOM     10  C   UNL     1       7.784   1.550  -4.969  0.00  0.00    +0.162 A 
ATOM     11  C   UNL     1       8.106   0.389  -4.281  0.00  0.00    +0.162 A 
ATOM     12  C   UNL     1       7.930   0.324  -2.910  0.00  0.00    +0.051 A 
ATOM     13  C   UNL     1       7.423   1.417  -2.231  0.00  0.00    -0.057 A 
ATOM     14  O   UNL     1       8.600  -0.685  -4.964  0.00  0.00    -0.488 OA
ATOM     15  C   UNL     1       9.908  -0.525  -5.517  0.00  0.00    +0.232 C 
ATOM     16  C   UNL     1       9.840   0.164  -6.871  0.00  0.00    +0.082 C 
ATOM     17  C   UNL     1       9.322   1.589  -6.770  0.00  0.00    +0.232 C 
ATOM     18  O   UNL     1       7.966   1.605  -6.321  0.00  0.00    -0.488 OA
ENDBRANCH   2  13
ENDBRANCH   1   6
BRANCH   1  19
ATOM     19  C   UNL     1       3.555   1.792  -0.123  0.00  0.00    +0.201 C 
ATOM     20  O   UNL     1       3.542   3.004  -0.117  0.00  0.00    -0.278 OA
ATOM     21  N   UNL     1       2.401   1.105  -0.014  0.00  0.00    -0.287 N 
ATOM     22  H   UNL     1       2.417   0.137   0.058  0.00  0.00    +0.155 HD
BRANCH  21  23
ATOM     23  C   UNL     1       1.177   1.787  -0.005  0.00  0.00    +0.035 A 
ATOM     24  C   UNL     1       0.116   1.300   0.749  0.00  0.00    +0.025 A 
ATOM     25  C   UNL     1      -1.091   1.968   0.763  0.00  0.00    +0.029 A 
ATOM     26  C   UNL     1      -1.248   3.129   0.021  0.00  0.00    +0.067 A 
ATOM     27  C   UNL     1      -0.183   3.624  -0.734  0.00  0.00    +0.069 A 
ATOM     28  C   UNL     1       1.027   2.948  -0.749  0.00  0.00    +0.051 A 
ATOM     29  N   UNL     1      -0.638   4.781  -1.362  0.00  0.00    -0.306 N 
ATOM     30  H   UNL     1      -0.119   5.345  -1.957  0.00  0.00    +0.170 HD
ATOM     31  C   UNL     1      -1.918   4.986  -1.000  0.00  0.00    +0.325 A 
ATOM     32  O   UNL     1      -2.611   5.915  -1.371  0.00  0.00    -0.247 OA
ATOM     33  N   UNL     1      -2.316   4.007  -0.166  0.00  0.00    -0.306 N 
ATOM     34  H   UNL     1      -3.195   3.926   0.236  0.00  0.00    +0.170 HD
ENDBRANCH  21  23
ENDBRANCH   1  19
TORSDOF 4
