REMARK  Name = ZINC60330508
REMARK  11 active torsions:
REMARK  status: ('A' for Active; 'I' for Inactive)
REMARK    1  A    between atoms: C_1  and  N_2
REMARK    2  A    between atoms: N_2  and  C_3
REMARK    3  A    between atoms: N_2  and  C_4
REMARK    4  A    between atoms: C_4  and  C_6
REMARK    5  A    between atoms: C_4  and  C_25
REMARK    6  A    between atoms: C_6  and  N_7
REMARK    7  A    between atoms: N_10  and  C_11
REMARK    8  A    between atoms: C_13  and  C_19
REMARK    9  A    between atoms: N_15  and  C_16
REMARK   10  A    between atoms: C_16  and  C_17
REMARK   11  A    between atoms: C_17  and  O_18
REMARK                            x       y       z     vdW  Elec       q    Type
REMARK                         _______ _______ _______ _____ _____    ______ ____
ROOT
ATOM      1  N   UNL     1       0.044  -2.014   1.012  0.00  0.00    -0.300 N 
ATOM      2  C   UNL     1       0.458  -3.278   1.232  0.00  0.00    +0.305 C 
ATOM      3  O   UNL     1       0.107  -4.171   0.484  0.00  0.00    -0.252 OA
ATOM      4  N   UNL     1       1.260  -3.553   2.279  0.00  0.00    -0.254 N 
ATOM      5  H   UNL     1       0.325  -1.302   1.609  0.00  0.00    +0.150 HD
ATOM      6  H   UNL     1       1.540  -2.841   2.875  0.00  0.00    +0.158 HD
ENDROOT
BRANCH   4   7
ATOM      7  C   UNL     1       1.688  -4.861   2.506  0.00  0.00    +0.125 A 
ATOM      8  C   UNL     1       1.379  -5.948   1.751  0.00  0.00    +0.073 A 
ATOM      9  C   UNL     1       2.012  -7.065   2.326  0.00  0.00    +0.095 A 
ATOM     10  N   UNL     1       2.677  -6.659   3.387  0.00  0.00    -0.169 NA
ATOM     11  N   UNL     1       2.494  -5.277   3.518  0.00  0.00    -0.248 N 
BRANCH   9  12
ATOM     12  C   UNL     1       1.943  -8.460   1.824  0.00  0.00    +0.002 A 
ATOM     13  C   UNL     1       1.203  -8.755   0.680  0.00  0.00    +0.010 A 
ATOM     14  C   UNL     1       1.142 -10.054   0.217  0.00  0.00    +0.001 A 
ATOM     15  C   UNL     1       1.813 -11.062   0.886  0.00  0.00    +0.000 A 
ATOM     16  C   UNL     1       2.549 -10.774   2.022  0.00  0.00    +0.001 A 
ATOM     17  C   UNL     1       2.621  -9.478   2.490  0.00  0.00    +0.010 A 
ENDBRANCH   9  12
BRANCH  11  18
ATOM     18  C   UNL     1       3.068  -4.428   4.565  0.00  0.00    +0.173 C 
BRANCH  18  19
ATOM     19  C   UNL     1       2.109  -4.367   5.756  0.00  0.00    +0.179 C 
BRANCH  19  20
ATOM     20  O   UNL     1       2.669  -3.539   6.777  0.00  0.00    -0.393 OA
ATOM     21  H   UNL     1       2.114  -3.456   7.564  0.00  0.00    +0.209 HD
ENDBRANCH  19  20
ENDBRANCH  18  19
ENDBRANCH  11  18
ENDBRANCH   4   7
BRANCH   1  22
ATOM     22  C   UNL     1      -0.828  -1.716  -0.126  0.00  0.00    +0.095 C 
BRANCH  22  23
ATOM     23  C   UNL     1      -1.251  -0.247  -0.073  0.00  0.00    -0.014 C 
BRANCH  23  24
ATOM     24  C   UNL     1      -2.102  -0.013   1.148  0.00  0.00    -0.022 A 
ATOM     25  C   UNL     1      -1.753   0.526   2.342  0.00  0.00    +0.009 A 
ATOM     26  C   UNL     1      -2.712   0.645   3.330  0.00  0.00    +0.008 A 
ATOM     27  C   UNL     1      -3.974   0.219   3.076  0.00  0.00    +0.045 A 
ATOM     28  S   UNL     1      -3.835  -0.366   1.395  0.00  0.00    -0.103 S 
ENDBRANCH  23  24
BRANCH  23  30
ATOM     29  C   UNL     1      -2.489   1.475  -1.195  0.00  0.00    -0.096 C 
ATOM     30  N   UNL     1      -2.022   0.085  -1.279  0.00  0.00    +0.382 N 
ATOM     31  C   UNL     1      -1.170  -0.075  -2.465  0.00  0.00    -0.096 C 
ATOM     32  H   UNL     1      -2.817  -0.533  -1.350  0.00  0.00    -0.082 HD
ENDBRANCH  23  30
ENDBRANCH  22  23
ENDBRANCH   1  22
TORSDOF 9
