REMARK  Name = ZINC14472453
REMARK  5 active torsions:
REMARK  status: ('A' for Active; 'I' for Inactive)
REMARK    1  A    between atoms: C_1  and  N_2
REMARK    2  A    between atoms: N_2  and  C_3
REMARK    3  A    between atoms: C_9  and  C_11
REMARK    4  A    between atoms: C_24  and  C_27
REMARK    5  A    between atoms: C_31  and  N_33
REMARK                            x       y       z     vdW  Elec       q    Type
REMARK                         _______ _______ _______ _____ _____    ______ ____
ROOT
ATOM      1  C   UNL     1       5.805   0.223   1.140  0.00  0.00    +0.038 A 
ATOM      2  C   UNL     1       6.280   1.132   0.189  0.00  0.00    +0.015 A 
ATOM      3  C   UNL     1       5.413   2.012  -0.413  0.00  0.00    +0.024 A 
ATOM      4  C   UNL     1       4.059   2.009  -0.085  0.00  0.00    +0.031 A 
ATOM      5  C   UNL     1       3.581   1.089   0.861  0.00  0.00    -0.019 A 
ATOM      6  C   UNL     1       4.446   0.212   1.468  0.00  0.00    +0.019 A 
ATOM      7  C   UNL     1       2.133   1.109   1.160  0.00  0.00    +0.049 C 
ATOM      8  C   UNL     1       1.591   0.641   2.460  0.00  0.00    -0.023 C 
ATOM      9  C   UNL     1       0.493   1.335   2.736  0.00  0.00    -0.030 C 
ATOM     10  C   UNL     1       0.234   2.363   1.633  0.00  0.00    +0.033 C 
ATOM     11  C   UNL     1       1.648   2.587   1.081  0.00  0.00    +0.029 C 
ATOM     12  C   UNL     1       1.767   2.974  -0.382  0.00  0.00    +0.105 C 
ATOM     13  N   UNL     1       3.213   2.938  -0.689  0.00  0.00    -0.336 N 
ATOM     14  H   UNL     1       3.580   3.574  -1.323  0.00  0.00    +0.147 HD
ENDROOT
BRANCH  12  15
ATOM     15  C   UNL     1       1.027   1.983  -1.244  0.00  0.00    -0.025 A 
ATOM     16  C   UNL     1       1.688   0.879  -1.750  0.00  0.00    +0.005 A 
ATOM     17  C   UNL     1       1.009  -0.030  -2.540  0.00  0.00    +0.003 A 
ATOM     18  C   UNL     1      -0.328   0.168  -2.829  0.00  0.00    +0.033 A 
ATOM     19  C   UNL     1      -0.990   1.270  -2.319  0.00  0.00    +0.127 A 
ATOM     20  C   UNL     1      -0.311   2.179  -1.528  0.00  0.00    +0.038 A 
BRANCH  19  21
ATOM     21  N   UNL     1      -2.423   1.479  -2.624  0.00  0.00    +0.056 N 
ATOM     22  O   UNL     1      -3.005   2.452  -2.178  0.00  0.00    -0.126 OA
ATOM     23  O   UNL     1      -3.021   0.678  -3.320  0.00  0.00    -0.126 OA
ENDBRANCH  19  21
ENDBRANCH  12  15
BRANCH   1  26
ATOM     24  C   UNL     1       7.957  -0.898  -0.305  0.00  0.00    +0.138 C 
ATOM     25  N   UNL     1       7.702  -1.319   1.075  0.00  0.00    -0.271 N 
ATOM     26  C   UNL     1       6.733  -0.719   1.794  0.00  0.00    +0.251 C 
ATOM     27  O   UNL     1       6.623  -0.954   2.982  0.00  0.00    -0.270 OA
BRANCH  25  28
ATOM     28  C   UNL     1       8.464  -2.343   1.645  0.00  0.00    +0.036 A 
ATOM     29  C   UNL     1       8.124  -2.851   2.892  0.00  0.00    +0.023 A 
ATOM     30  C   UNL     1       8.875  -3.866   3.451  0.00  0.00    +0.002 A 
ATOM     31  C   UNL     1       9.973  -4.369   2.775  0.00  0.00    +0.000 A 
ATOM     32  C   UNL     1      10.317  -3.860   1.536  0.00  0.00    +0.002 A 
ATOM     33  C   UNL     1       9.566  -2.849   0.969  0.00  0.00    +0.023 A 
ENDBRANCH  25  28
ENDBRANCH   1  26
TORSDOF 4
