REMARK  Name = ZINC42828149
REMARK  7 active torsions:
REMARK  status: ('A' for Active; 'I' for Inactive)
REMARK    1  A    between atoms: C_1  and  C_2
REMARK    2  A    between atoms: C_2  and  C_3
REMARK    3  A    between atoms: C_3  and  C_4
REMARK    4  A    between atoms: C_3  and  C_11
REMARK    5  A    between atoms: C_3  and  N_14
REMARK    6  A    between atoms: N_14  and  C_15
REMARK    7  A    between atoms: C_15  and  C_16
REMARK                            x       y       z     vdW  Elec       q    Type
REMARK                         _______ _______ _______ _____ _____    ______ ____
ROOT
ATOM      1  C   UNL     1      -1.439  -0.541   0.002  0.00  0.00    +0.061 C 
ENDROOT
BRANCH   1   2
ATOM      2  C   UNL     1      -2.332  -0.116  -1.135  0.00  0.00    -0.048 A 
ATOM      3  C   UNL     1      -3.367   0.772  -0.907  0.00  0.00    +0.004 A 
ATOM      4  C   UNL     1      -4.185   1.163  -1.950  0.00  0.00    +0.015 A 
ATOM      5  C   UNL     1      -3.969   0.666  -3.222  0.00  0.00    +0.018 A 
ATOM      6  C   UNL     1      -2.933  -0.222  -3.450  0.00  0.00    +0.015 A 
ATOM      7  C   UNL     1      -2.112  -0.608  -2.408  0.00  0.00    +0.004 A 
ATOM      8 BR   UNL     1      -5.088   1.200  -4.649  0.00  0.00    -0.050 Br
ENDBRANCH   1   2
BRANCH   1   9
ATOM      9  C   UNL     1      -1.520  -2.036   0.172  0.00  0.00    +0.350 C 
ATOM     10  O   UNL     1      -2.024  -2.510   1.175  0.00  0.00    -0.248 OA
ATOM     11  O   UNL     1      -1.081  -2.773  -0.695  0.00  0.00    -0.248 OA
ENDBRANCH   1   9
BRANCH   1  12
ATOM     12  N   UNL     1      -1.877   0.116   1.241  0.00  0.00    +0.394 N 
ATOM     13  H   UNL     1      -1.912   1.115   1.097  0.00  0.00    -0.084 HD
ATOM     14  H   UNL     1      -2.795  -0.219   1.493  0.00  0.00    -0.084 HD
BRANCH  12  15
ATOM     15  C   UNL     1      -0.929  -0.191   2.320  0.00  0.00    -0.049 C 
BRANCH  15  16
ATOM     16  C   UNL     1      -1.453   0.383   3.638  0.00  0.00    +0.101 C 
ATOM     17  C   UNL     1      -0.409   0.172   4.737  0.00  0.00    +0.030 C 
ATOM     18  C   UNL     1      -0.965   0.694   6.066  0.00  0.00    +0.005 C 
ATOM     19  C   UNL     1      -2.284  -0.023   6.371  0.00  0.00    +0.028 C 
ATOM     20  C   UNL     1      -3.256   0.195   5.209  0.00  0.00    +0.160 C 
ATOM     21  O   UNL     1      -2.665  -0.284   3.999  0.00  0.00    -0.378 OA
ENDBRANCH  15  16
ENDBRANCH  12  15
ENDBRANCH   1  12
BRANCH   1  23
ATOM     22  C   UNL     1       0.111   1.386  -0.354  0.00  0.00    +0.003 C 
ATOM     23  C   UNL     1       0.005  -0.140  -0.305  0.00  0.00    -0.000 C 
ENDBRANCH   1  23
TORSDOF 6
