REMARK  Name = ZINC39674186
REMARK  8 active torsions:
REMARK  status: ('A' for Active; 'I' for Inactive)
REMARK    1  A    between atoms: C_1  and  C_2
REMARK    2  A    between atoms: C_4  and  C_9
REMARK    3  A    between atoms: C_5  and  C_8
REMARK    4  A    between atoms: C_9  and  C_11
REMARK    5  A    between atoms: C_9  and  N_12
REMARK    6  A    between atoms: C_13  and  C_15
REMARK    7  A    between atoms: C_26  and  C_28
REMARK    8  A    between atoms: C_34  and  C_36
REMARK                            x       y       z     vdW  Elec       q    Type
REMARK                         _______ _______ _______ _____ _____    ______ ____
ROOT
ATOM      1  C   UNL     1      -2.957  -1.302  -4.401  0.00  0.00    +0.100 C 
ATOM      2  C   UNL     1      -2.449  -0.042  -5.137  0.00  0.00    +0.121 C 
ATOM      3  N   UNL     1      -3.003  -0.160  -6.507  0.00  0.00    -0.299 N 
ATOM      4  C   UNL     1      -4.371  -0.696  -6.306  0.00  0.00    +0.115 C 
ATOM      5  C   UNL     1      -4.218  -1.727  -5.170  0.00  0.00    -0.004 C 
ATOM      6  C   UNL     1      -5.436  -1.685  -4.253  0.00  0.00    -0.010 C 
ATOM      7  C   UNL     1      -6.668  -2.168  -5.024  0.00  0.00    -0.082 C 
ATOM      8  N   UNL     1      -6.441  -3.535  -5.505  0.00  0.00    +0.379 N 
ATOM      9  C   UNL     1      -5.326  -3.552  -6.460  0.00  0.00    -0.082 C 
ATOM     10  C   UNL     1      -4.037  -3.127  -5.749  0.00  0.00    -0.010 C 
ATOM     11  C   UNL     1      -2.400   0.150  -7.671  0.00  0.00    +0.236 C 
ATOM     12  O   UNL     1      -2.991  -0.003  -8.720  0.00  0.00    -0.274 OA
ATOM     13  H   UNL     1      -6.221  -4.134  -4.723  0.00  0.00    -0.086 HD
ATOM     14  H   UNL     1      -7.276  -3.874  -5.960  0.00  0.00    -0.086 HD
ENDROOT
BRANCH  11  15
ATOM     15  C   UNL     1      -0.992   0.687  -7.671  0.00  0.00    +0.162 C 
ATOM     16  C   UNL     1      -1.004   2.193  -7.336  0.00  0.00    +0.033 C 
ATOM     17  C   UNL     1       0.097   2.766  -8.267  0.00  0.00    +0.021 C 
ATOM     18  C   UNL     1      -0.073   1.883  -9.529  0.00  0.00    +0.109 C 
ATOM     19  N   UNL     1      -0.400   0.539  -9.009  0.00  0.00    -0.283 N 
ATOM     20  C   UNL     1      -0.193  -0.627  -9.652  0.00  0.00    +0.320 C 
ATOM     21  O   UNL     1      -0.503  -1.674  -9.124  0.00  0.00    -0.266 OA
BRANCH  20  22
ATOM     22  C   UNL     1       0.425  -0.631 -11.026  0.00  0.00    +0.470 C 
ATOM     23  F   UNL     1       0.539  -1.948 -11.483  0.00  0.00    -0.162 F 
ATOM     24  F   UNL     1      -0.384   0.099 -11.903  0.00  0.00    -0.162 F 
ATOM     25  F   UNL     1       1.695  -0.046 -10.968  0.00  0.00    -0.162 F 
ENDBRANCH  20  22
ENDBRANCH  11  15
BRANCH   1  27
ATOM     26  N   UNL     1      -3.221  -1.924  -2.022  0.00  0.00    -0.309 N 
ATOM     27  C   UNL     1      -3.300  -0.971  -2.971  0.00  0.00    +0.219 C 
ATOM     28  O   UNL     1      -3.648   0.152  -2.676  0.00  0.00    -0.275 OA
ATOM     29  H   UNL     1      -2.942  -2.823  -2.258  0.00  0.00    +0.149 HD
BRANCH  26  30
ATOM     30  C   UNL     1      -3.555  -1.603  -0.632  0.00  0.00    +0.100 C 
ATOM     31  C   UNL     1      -2.327  -1.013   0.065  0.00  0.00    +0.033 C 
BRANCH  30  34
ATOM     32  C   UNL     1      -1.898  -3.985   0.903  0.00  0.00    +0.039 C 
ATOM     33  C   UNL     1      -3.239  -4.176   0.190  0.00  0.00    +0.154 C 
ATOM     34  C   UNL     1      -3.984  -2.857   0.085  0.00  0.00    -0.001 C 
ATOM     35  C   UNL     1      -5.108  -3.067   0.774  0.00  0.00    +0.063 C 
ATOM     36  N   UNL     1      -5.137  -4.322   1.274  0.00  0.00    -0.159 NA
ATOM     37  N   UNL     1      -4.145  -5.009   1.000  0.00  0.00    -0.180 NA
ATOM     38  C   UNL     1      -6.196  -2.043   0.968  0.00  0.00    +0.067 C 
ENDBRANCH  30  34
ENDBRANCH  26  30
ENDBRANCH   1  27
TORSDOF 5
