REMARK  Name = ZINC43277621
REMARK  8 active torsions:
REMARK  status: ('A' for Active; 'I' for Inactive)
REMARK    1  A    between atoms: C_3  and  N_31
REMARK    2  A    between atoms: N_15  and  C_16
REMARK    3  A    between atoms: C_16  and  C_17
REMARK    4  A    between atoms: C_17  and  C_18
REMARK    5  A    between atoms: C_18  and  C_19
REMARK    6  A    between atoms: N_21  and  C_22
REMARK    7  A    between atoms: C_22  and  C_23
REMARK    8  A    between atoms: C_23  and  N_24
REMARK                            x       y       z     vdW  Elec       q    Type
REMARK                         _______ _______ _______ _____ _____    ______ ____
ROOT
ATOM      1  C   UNL     1      -0.017   1.407   0.010  0.00  0.00    +0.012 A 
ATOM      2  C   UNL     1       1.148   2.101   0.002  0.00  0.00    +0.023 A 
ATOM      3  C   UNL     1       2.382   1.425  -0.013  0.00  0.00    +0.027 A 
ATOM      4  C   UNL     1       2.422   0.031  -0.021  0.00  0.00    +0.049 A 
ATOM      5  C   UNL     1       1.242  -0.692  -0.013  0.00  0.00    +0.051 A 
ATOM      6  C   UNL     1       0.002  -0.004   0.002  0.00  0.00    -0.001 A 
ATOM      7  C   UNL     1      -1.196  -0.728   0.009  0.00  0.00    +0.020 A 
ATOM      8  C   UNL     1      -1.151  -2.128   0.002  0.00  0.00    -0.001 A 
ATOM      9  C   UNL     1      -2.344  -2.881   0.008  0.00  0.00    +0.012 A 
ATOM     10  C   UNL     1      -2.291  -4.236   0.000  0.00  0.00    +0.026 A 
ATOM     11  C   UNL     1      -1.051  -4.902  -0.015  0.00  0.00    +0.035 A 
ATOM     12  N   UNL     1      -1.014  -6.263  -0.023  0.00  0.00    -0.398 N 
ATOM     13  C   UNL     1       0.139  -4.176  -0.022  0.00  0.00    +0.051 A 
ATOM     14  C   UNL     1       0.102  -2.792  -0.014  0.00  0.00    +0.051 A 
ATOM     15  N   UNL     1       1.272  -2.068  -0.021  0.00  0.00    -0.340 N 
ATOM     16  H   UNL     1      -1.841  -6.771  -0.018  0.00  0.00    +0.156 HD
ATOM     17  H   UNL     1      -0.162  -6.725  -0.033  0.00  0.00    +0.156 HD
ENDROOT
BRANCH   3  18
ATOM     18  N   UNL     1       3.544   2.136  -0.021  0.00  0.00    -0.358 N 
ATOM     19  H   UNL     1       3.519   3.105  -0.016  0.00  0.00    +0.142 HD
ATOM     20  H   UNL     1       4.396   1.672  -0.031  0.00  0.00    +0.142 HD
ENDBRANCH   3  18
BRANCH  15  21
ATOM     21  C   UNL     1       2.559  -2.767  -0.038  0.00  0.00    +0.123 C 
BRANCH  21  22
ATOM     22  C   UNL     1       3.021  -3.018   1.399  0.00  0.00    +0.031 C 
BRANCH  22  23
ATOM     23  C   UNL     1       4.366  -3.748   1.382  0.00  0.00    +0.097 C 
BRANCH  23  24
ATOM     24  C   UNL     1       4.821  -3.995   2.797  0.00  0.00    +0.213 C 
ATOM     25  O   UNL     1       4.137  -3.625   3.728  0.00  0.00    -0.276 OA
ATOM     26  N   UNL     1       5.988  -4.629   3.028  0.00  0.00    -0.314 N 
ATOM     27  H   UNL     1       6.535  -4.925   2.284  0.00  0.00    +0.149 HD
BRANCH  26  28
ATOM     28  C   UNL     1       6.431  -4.869   4.404  0.00  0.00    +0.123 C 
BRANCH  28  29
ATOM     29  C   UNL     1       7.775  -5.599   4.387  0.00  0.00    +0.135 C 
BRANCH  29  30
ATOM     30  N   UNL     1       8.218  -5.840   5.763  0.00  0.00    -0.234 N 
ATOM     31  C   UNL     1       8.971  -4.999   6.493  0.00  0.00    +0.246 C 
ATOM     32  O   UNL     1       9.394  -3.922   6.125  0.00  0.00    -0.270 OA
ATOM     33  C   UNL     1       9.197  -5.608   7.823  0.00  0.00    +0.073 C 
ATOM     34  C   UNL     1       8.562  -6.792   7.820  0.00  0.00    +0.073 C 
ATOM     35  C   UNL     1       7.928  -6.933   6.490  0.00  0.00    +0.246 C 
ATOM     36  O   UNL     1       7.261  -7.877   6.119  0.00  0.00    -0.270 OA
ENDBRANCH  29  30
ENDBRANCH  28  29
ENDBRANCH  26  28
ENDBRANCH  23  24
ENDBRANCH  22  23
ENDBRANCH  21  22
ENDBRANCH  15  21
TORSDOF 8
