REMARK  Name = ZINC18201246
REMARK  3 active torsions:
REMARK  status: ('A' for Active; 'I' for Inactive)
REMARK    1  A    between atoms: C_1  and  S_2
REMARK    2  A    between atoms: S_2  and  C_3
REMARK    3  A    between atoms: C_6  and  C_9
REMARK                            x       y       z     vdW  Elec       q    Type
REMARK                         _______ _______ _______ _____ _____    ______ ____
ROOT
ATOM      1  C   UNL     1      -5.834  -1.544   0.050  0.00  0.00    +0.093 C 
ATOM      2  C   UNL     1      -6.128  -2.360   1.282  0.00  0.00    +0.067 A 
ATOM      3  C   UNL     1      -6.345  -3.703   1.236  0.00  0.00    +0.114 A 
ATOM      4  N   UNL     1      -6.601  -4.386   2.404  0.00  0.00    -0.295 N 
ATOM      5  C   UNL     1      -6.643  -3.738   3.581  0.00  0.00    +0.328 A 
ATOM      6  O   UNL     1      -6.871  -4.361   4.601  0.00  0.00    -0.247 OA
ATOM      7  N   UNL     1      -6.436  -2.410   3.647  0.00  0.00    -0.275 N 
ATOM      8  C   UNL     1      -6.180  -1.704   2.529  0.00  0.00    +0.260 A 
ATOM      9  O   UNL     1      -5.992  -0.502   2.596  0.00  0.00    -0.267 OA
ATOM     10  N   UNL     1      -6.324  -4.410   0.053  0.00  0.00    -0.300 N 
ATOM     11  C   UNL     1      -6.370  -3.711  -1.132  0.00  0.00    +0.048 C 
ATOM     12  C   UNL     1      -6.149  -2.358  -1.179  0.00  0.00    +0.034 C 
ATOM     13  C   UNL     1      -6.264  -1.903  -2.511  0.00  0.00    +0.193 C 
ATOM     14  O   UNL     1      -6.130  -0.757  -2.894  0.00  0.00    -0.287 OA
ATOM     15  C   UNL     1      -6.578  -3.076  -3.356  0.00  0.00    +0.031 A 
ATOM     16  C   UNL     1      -6.642  -4.197  -2.489  0.00  0.00    +0.007 A 
ATOM     17  C   UNL     1      -6.919  -5.463  -2.981  0.00  0.00    +0.010 A 
ATOM     18  C   UNL     1      -7.133  -5.575  -4.358  0.00  0.00    +0.001 A 
ATOM     19  C   UNL     1      -7.074  -4.486  -5.194  0.00  0.00    +0.001 A 
ATOM     20  C   UNL     1      -6.790  -3.202  -4.715  0.00  0.00    +0.012 A 
ATOM     21  H   UNL     1      -6.277  -5.379   0.056  0.00  0.00    +0.154 HD
ATOM     22  H   UNL     1      -6.472  -1.959   4.504  0.00  0.00    +0.173 HD
ATOM     23  H   UNL     1      -6.753  -5.344   2.377  0.00  0.00    +0.172 HD
ENDROOT
BRANCH   1  27
ATOM     24  C   UNL     1      -1.702  -0.454   0.016  0.00  0.00    +0.008 A 
ATOM     25  C   UNL     1      -2.682   0.531   0.025  0.00  0.00    +0.015 A 
ATOM     26  C   UNL     1      -4.016   0.176   0.036  0.00  0.00    +0.005 A 
ATOM     27  C   UNL     1      -4.377  -1.159   0.038  0.00  0.00    -0.035 A 
ATOM     28  C   UNL     1      -3.404  -2.143   0.029  0.00  0.00    +0.005 A 
ATOM     29  C   UNL     1      -2.068  -1.794   0.012  0.00  0.00    +0.015 A 
BRANCH  24  31
ATOM     30  C   UNL     1      -0.022   1.810   0.012  0.00  0.00    +0.090 C 
ATOM     31  S   UNL     1       0.002  -0.004   0.002  0.00  0.00    -0.129 S 
ENDBRANCH  24  31
ENDBRANCH   1  27
TORSDOF 2
