REMARK  Name = ZINC26571818
REMARK  9 active torsions:
REMARK  status: ('A' for Active; 'I' for Inactive)
REMARK    1  A    between atoms: C_1  and  C_2
REMARK    2  A    between atoms: C_2  and  O_3
REMARK    3  A    between atoms: O_3  and  C_4
REMARK    4  A    between atoms: C_4  and  C_6
REMARK    5  A    between atoms: C_7  and  C_15
REMARK    6  A    between atoms: C_12  and  C_14
REMARK    7  A    between atoms: C_15  and  O_16
REMARK    8  A    between atoms: O_16  and  C_17
REMARK    9  A    between atoms: C_17  and  C_19
REMARK                            x       y       z     vdW  Elec       q    Type
REMARK                         _______ _______ _______ _____ _____    ______ ____
ROOT
ATOM      1  C   UNL     1      -1.264  -0.821  -0.060  0.00  0.00    +0.283 C 
ENDROOT
BRANCH   1   3
ATOM      2  C   UNL     1       0.304   0.733   1.046  0.00  0.00    +0.077 C 
ATOM      3  C   UNL     1       0.019  -0.031  -0.031  0.00  0.00    +0.061 C 
ATOM      4  N   UNL     1       0.874  -0.099  -1.093  0.00  0.00    -0.269 N 
ATOM      5  C   UNL     1       2.034   0.566  -1.157  0.00  0.00    +0.304 C 
ATOM      6  O   UNL     1       2.729   0.442  -2.146  0.00  0.00    -0.252 OA
ATOM      7  N   UNL     1       2.455   1.369  -0.160  0.00  0.00    -0.292 N 
ATOM      8  C   UNL     1       1.604   1.511   1.034  0.00  0.00    +0.110 C 
ATOM      9  C   UNL     1       1.268   2.994   1.199  0.00  0.00    +0.033 C 
ATOM     10  H   UNL     1       0.624  -0.727  -1.961  0.00  0.00    +0.156 HD
ATOM     11  H   UNL     1       3.410   1.911  -0.222  0.00  0.00    +0.151 HD
BRANCH   2  12
ATOM     12  C   UNL     1      -0.584   0.809   2.145  0.00  0.00    +0.339 C 
ATOM     13  O   UNL     1      -1.671   0.266   2.087  0.00  0.00    -0.245 OA
BRANCH  12  14
ATOM     14  O   UNL     1      -0.224   1.483   3.257  0.00  0.00    -0.462 OA
BRANCH  14  16
ATOM     15  C   UNL     1      -0.590   2.322   5.494  0.00  0.00    +0.048 C 
ATOM     16  C   UNL     1      -1.169   1.519   4.328  0.00  0.00    +0.229 C 
ENDBRANCH  14  16
ENDBRANCH  12  14
ENDBRANCH   2  12
ENDBRANCH   1   3
BRANCH   1  17
ATOM     17  O   UNL     1      -1.298  -1.647  -1.254  0.00  0.00    -0.455 OA
BRANCH  17  18
ATOM     18  C   UNL     1      -2.386  -2.421  -1.433  0.00  0.00    +0.340 C 
ATOM     19  O   UNL     1      -3.283  -2.406  -0.613  0.00  0.00    -0.245 OA
BRANCH  18  20
ATOM     20  C   UNL     1      -2.489  -3.285  -2.623  0.00  0.00    +0.064 A 
ATOM     21  C   UNL     1      -3.616  -4.093  -2.807  0.00  0.00    +0.064 A 
ATOM     22  C   UNL     1      -3.705  -4.895  -3.926  0.00  0.00    +0.164 A 
ATOM     23  C   UNL     1      -2.676  -4.908  -4.862  0.00  0.00    +0.180 A 
ATOM     24  C   UNL     1      -1.554  -4.111  -4.680  0.00  0.00    +0.087 A 
ATOM     25  C   UNL     1      -1.458  -3.302  -3.566  0.00  0.00    +0.039 A 
ATOM     26 CL   UNL     1      -0.274  -4.132  -5.852  0.00  0.00    -0.080 Cl
ATOM     27  O   UNL     1      -2.776  -5.710  -5.960  0.00  0.00    -0.487 OA
ATOM     28  C   UNL     1      -3.778  -5.346  -6.911  0.00  0.00    +0.232 C 
ATOM     29  C   UNL     1      -5.131  -5.914  -6.514  0.00  0.00    +0.082 C 
ATOM     30  C   UNL     1      -5.648  -5.322  -5.213  0.00  0.00    +0.232 C 
ATOM     31  O   UNL     1      -4.802  -5.685  -4.120  0.00  0.00    -0.488 OA
ENDBRANCH  18  20
ENDBRANCH  17  18
ENDBRANCH   1  17
TORSDOF 7
