REMARK  Name = ZINC62749534
REMARK  4 active torsions:
REMARK  status: ('A' for Active; 'I' for Inactive)
REMARK    1  A    between atoms: C_1  and  C_2
REMARK    2  A    between atoms: C_10  and  C_11
REMARK    3  A    between atoms: C_11  and  C_13
REMARK    4  A    between atoms: C_11  and  N_19
REMARK                            x       y       z     vdW  Elec       q    Type
REMARK                         _______ _______ _______ _____ _____    ______ ____
ROOT
ATOM      1  C   UNL     1      -0.018   1.503   0.010  0.00  0.00    +0.048 C 
ATOM      2  C   UNL     1       0.002  -0.004   0.002  0.00  0.00    -0.003 A 
ATOM      3  C   UNL     1       0.009  -0.879  -1.177  0.00  0.00    +0.023 A 
ATOM      4  C   UNL     1       0.000  -0.659  -2.553  0.00  0.00    +0.015 A 
ATOM      5  C   UNL     1       0.011  -1.724  -3.410  0.00  0.00    +0.039 A 
ATOM      6  C   UNL     1       0.030  -3.023  -2.917  0.00  0.00    +0.127 A 
ATOM      7  C   UNL     1       0.039  -3.259  -1.557  0.00  0.00    +0.085 A 
ATOM      8  C   UNL     1       0.029  -2.190  -0.671  0.00  0.00    +0.138 A 
ATOM      9  O   UNL     1       0.033  -2.100   0.674  0.00  0.00    -0.461 OA
ATOM     10  C   UNL     1       0.023  -0.814   1.069  0.00  0.00    +0.100 A 
ATOM     11  F   UNL     1       0.040  -4.065  -3.777  0.00  0.00    -0.205 F 
ENDROOT
BRANCH  10  12
ATOM     12  C   UNL     1       0.031  -0.352   2.503  0.00  0.00    +0.031 C 
BRANCH  12  13
ATOM     13  C   UNL     1       1.412  -0.530   3.080  0.00  0.00    -0.016 A 
ATOM     14  C   UNL     1       2.386   0.394   3.263  0.00  0.00    +0.011 A 
ATOM     15  C   UNL     1       3.590  -0.000   3.817  0.00  0.00    +0.023 A 
ATOM     16  C   UNL     1       3.759  -1.301   4.163  0.00  0.00    +0.055 A 
ATOM     17  S   UNL     1       2.185  -2.011   3.709  0.00  0.00    -0.088 S 
ATOM     18 BR   UNL     1       5.268  -2.142   4.932  0.00  0.00    -0.043 Br
ENDBRANCH  12  13
BRANCH  12  19
ATOM     19  N   UNL     1      -0.930  -1.147   3.279  0.00  0.00    +0.388 N 
ATOM     20  H   UNL     1      -0.671  -2.121   3.238  0.00  0.00    -0.089 HD
ATOM     21  H   UNL     1      -0.925  -0.837   4.239  0.00  0.00    -0.089 HD
ATOM     22  H   UNL     1      -1.855  -1.028   2.893  0.00  0.00    -0.089 HD
ENDBRANCH  12  19
ENDBRANCH  10  12
TORSDOF 3
