REMARK  Name = ZINC00508249
REMARK  6 active torsions:
REMARK  status: ('A' for Active; 'I' for Inactive)
REMARK    1  A    between atoms: C_1  and  C_2
REMARK    2  A    between atoms: C_5  and  C_7
REMARK    3  A    between atoms: C_5  and  O_13
REMARK    4  A    between atoms: C_14  and  C_16
REMARK    5  A    between atoms: C_16  and  C_17
REMARK    6  A    between atoms: C_20  and  N_23
REMARK                            x       y       z     vdW  Elec       q    Type
REMARK                         _______ _______ _______ _____ _____    ______ ____
ROOT
ATOM      1  C   UNL     1      -0.018   1.503   0.010  0.00  0.00    +0.062 C 
ATOM      2  C   UNL     1       0.002  -0.004   0.002  0.00  0.00    +0.039 C 
ATOM      3  N   UNL     1       0.008  -0.729  -1.041  0.00  0.00    -0.184 NA
ATOM      4  N   UNL     1       0.028  -2.099  -0.791  0.00  0.00    -0.157 N 
ATOM      5  C   UNL     1       0.038  -2.314   0.665  0.00  0.00    +0.187 C 
ATOM      6  C   UNL     1       0.026  -0.880   1.234  0.00  0.00    +0.114 C 
ATOM      7  C   UNL     1       0.037  -3.068  -1.728  0.00  0.00    +0.242 C 
ATOM      8  O   UNL     1       0.055  -4.234  -1.394  0.00  0.00    -0.273 OA
ENDROOT
BRANCH   5   9
ATOM      9  C   UNL     1       1.290  -3.038   1.088  0.00  0.00    +0.004 A 
ATOM     10  C   UNL     1       1.275  -3.849   2.207  0.00  0.00    +0.008 A 
ATOM     11  C   UNL     1       2.423  -4.514   2.595  0.00  0.00    +0.000 A 
ATOM     12  C   UNL     1       3.587  -4.367   1.863  0.00  0.00    +0.000 A 
ATOM     13  C   UNL     1       3.602  -3.557   0.744  0.00  0.00    +0.000 A 
ATOM     14  C   UNL     1       2.452  -2.896   0.353  0.00  0.00    +0.008 A 
ENDBRANCH   5   9
BRANCH   5  15
ATOM     15  O   UNL     1      -1.126  -3.034   1.077  0.00  0.00    -0.366 OA
ATOM     16  H   UNL     1      -1.200  -3.916   0.689  0.00  0.00    +0.212 HD
ENDBRANCH   5  15
BRANCH   7  17
ATOM     17  C   UNL     1       0.026  -2.703  -3.190  0.00  0.00    +0.133 C 
BRANCH  17  18
ATOM     18  C   UNL     1       0.040  -3.960  -4.022  0.00  0.00    -0.038 A 
ATOM     19  C   UNL     1       1.244  -4.523  -4.404  0.00  0.00    +0.006 A 
ATOM     20  C   UNL     1       1.256  -5.675  -5.167  0.00  0.00    +0.033 A 
ATOM     21  C   UNL     1       0.066  -6.265  -5.548  0.00  0.00    +0.126 A 
ATOM     22  C   UNL     1      -1.138  -5.703  -5.165  0.00  0.00    +0.033 A 
ATOM     23  C   UNL     1      -1.151  -4.553  -4.398  0.00  0.00    +0.006 A 
BRANCH  21  24
ATOM     24  N   UNL     1       0.079  -7.499  -6.365  0.00  0.00    +0.056 N 
ATOM     25  O   UNL     1       1.132  -7.990  -6.700  0.00  0.00    -0.126 OA
ATOM     26  O   UNL     1      -0.962  -8.015  -6.699  0.00  0.00    -0.126 OA
ENDBRANCH  21  24
ENDBRANCH  17  18
ENDBRANCH   7  17
TORSDOF 5
