REMARK  Name = ZINC23893517
REMARK  7 active torsions:
REMARK  status: ('A' for Active; 'I' for Inactive)
REMARK    1  A    between atoms: C_1  and  C_2
REMARK    2  A    between atoms: C_2  and  C_4
REMARK    3  A    between atoms: C_2  and  S_18
REMARK    4  A    between atoms: C_4  and  C_6
REMARK    5  A    between atoms: C_6  and  C_16
REMARK    6  A    between atoms: S_18  and  C_19
REMARK    7  A    between atoms: N_24  and  C_25
REMARK                            x       y       z     vdW  Elec       q    Type
REMARK                         _______ _______ _______ _____ _____    ______ ____
ROOT
ATOM      1  C   UNL     1      -0.019   1.526   0.010  0.00  0.00    +0.028 C 
ATOM      2  C   UNL     1       0.002  -0.004   0.002  0.00  0.00    +0.122 C 
ENDROOT
BRANCH   2   3
ATOM      3  C   UNL     1       0.731  -0.503   1.223  0.00  0.00    +0.189 C 
ATOM      4  O   UNL     1       1.914  -0.776   1.156  0.00  0.00    -0.290 OA
BRANCH   3   5
ATOM      5  C   UNL     1       0.044  -0.653   2.439  0.00  0.00    +0.123 C 
ATOM      6  C   UNL     1       0.725  -1.120   3.579  0.00  0.00    +0.091 C 
ATOM      7  N   UNL     1       2.033  -1.463   3.684  0.00  0.00    -0.307 N 
ATOM      8  C   UNL     1       2.533  -1.903   4.894  0.00  0.00    +0.046 A 
ATOM      9  C   UNL     1       3.836  -2.304   5.221  0.00  0.00    +0.024 A 
ATOM     10  C   UNL     1       4.143  -2.717   6.496  0.00  0.00    +0.002 A 
ATOM     11  C   UNL     1       3.179  -2.748   7.491  0.00  0.00    +0.001 A 
ATOM     12  C   UNL     1       1.885  -2.357   7.195  0.00  0.00    +0.017 A 
ATOM     13  C   UNL     1       1.577  -1.945   5.920  0.00  0.00    +0.035 A 
ATOM     14  S   UNL     1       0.102  -1.371   5.120  0.00  0.00    -0.071 S 
ATOM     15  H   UNL     1       2.616  -1.399   2.912  0.00  0.00    +0.153 HD
BRANCH   5  16
ATOM     16  C   UNL     1      -1.349  -0.332   2.518  0.00  0.00    +0.105 C 
ATOM     17  N   UNL     1      -2.455  -0.077   2.581  0.00  0.00    -0.191 NA
ENDBRANCH   5  16
ENDBRANCH   3   5
ENDBRANCH   2   3
BRANCH   2  18
ATOM     18  S   UNL     1       0.851  -0.589  -1.490  0.00  0.00    -0.086 S 
BRANCH  18  19
ATOM     19  C   UNL     1      -0.189  -0.057  -2.809  0.00  0.00    +0.161 A 
ATOM     20  N   UNL     1      -1.322   0.617  -2.760  0.00  0.00    -0.133 NA
ATOM     21  N   UNL     1      -1.981   0.934  -3.926  0.00  0.00    -0.125 NA
ATOM     22  C   UNL     1      -1.477   0.562  -5.086  0.00  0.00    +0.183 A 
ATOM     23  S   UNL     1       0.012  -0.278  -4.570  0.00  0.00    -0.025 S 
ATOM     24  N   UNL     1      -1.970   0.773  -6.369  0.00  0.00    -0.319 N 
ATOM     25  H   UNL     1      -1.483   0.437  -7.137  0.00  0.00    +0.148 HD
BRANCH  24  26
ATOM     26  C   UNL     1      -3.225   1.505  -6.560  0.00  0.00    +0.072 C 
ATOM     27  C   UNL     1      -4.404   0.539  -6.424  0.00  0.00    +0.022 C 
ATOM     28  C   UNL     1      -5.714   1.303  -6.624  0.00  0.00    +0.002 C 
ATOM     29  C   UNL     1      -5.730   1.934  -8.018  0.00  0.00    +0.000 C 
ATOM     30  C   UNL     1      -4.551   2.899  -8.153  0.00  0.00    +0.002 C 
ATOM     31  C   UNL     1      -3.240   2.136  -7.954  0.00  0.00    +0.022 C 
ENDBRANCH  24  26
ENDBRANCH  18  19
ENDBRANCH   2  18
TORSDOF 6
