REMARK  Name = ZINC04077471
REMARK  12 active torsions:
REMARK  status: ('A' for Active; 'I' for Inactive)
REMARK    1  A    between atoms: C_1  and  C_2
REMARK    2  A    between atoms: C_6  and  C_32
REMARK    3  A    between atoms: C_7  and  N_8
REMARK    4  A    between atoms: N_8  and  C_9
REMARK    5  A    between atoms: C_9  and  C_10
REMARK    6  A    between atoms: N_12  and  N_13
REMARK    7  A    between atoms: C_14  and  C_15
REMARK    8  A    between atoms: C_17  and  N_22
REMARK    9  A    between atoms: C_20  and  O_21
REMARK   10  A    between atoms: N_23  and  C_24
REMARK   11  A    between atoms: C_27  and  C_31
REMARK   12  A    between atoms: C_28  and  C_30
REMARK                            x       y       z     vdW  Elec       q    Type
REMARK                         _______ _______ _______ _____ _____    ______ ____
ROOT
ATOM      1  C   UNL     1       3.308   0.079   9.127  0.00  0.00    +0.038 A 
ATOM      2  C   UNL     1       3.303  -0.394  10.437  0.00  0.00    +0.042 A 
ATOM      3  C   UNL     1       3.980   0.314  11.431  0.00  0.00    +0.087 A 
ATOM      4  C   UNL     1       4.661   1.494  11.107  0.00  0.00    +0.033 A 
ATOM      5  C   UNL     1       4.665   1.960   9.811  0.00  0.00    +0.048 A 
ATOM      6  C   UNL     1       3.998   1.260   8.815  0.00  0.00    +0.126 A 
ENDROOT
BRANCH   1   8
ATOM      7  N   UNL     1       2.605  -0.223   6.850  0.00  0.00    -0.188 NA
ATOM      8  C   UNL     1       2.595  -0.662   8.071  0.00  0.00    +0.142 C 
BRANCH   7  11
ATOM      9  C   UNL     1       1.938  -0.470   4.578  0.00  0.00    +0.249 C 
ATOM     10  O   UNL     1       2.535   0.550   4.306  0.00  0.00    -0.272 OA
ATOM     11  N   UNL     1       1.928  -0.927   5.846  0.00  0.00    -0.206 N 
ATOM     12  H   UNL     1       1.451  -1.743   6.064  0.00  0.00    +0.177 HD
BRANCH   9  13
ATOM     13  C   UNL     1       1.210  -1.228   3.498  0.00  0.00    +0.199 C 
BRANCH  13  14
ATOM     14  N   UNL     1       1.372  -0.533   2.219  0.00  0.00    -0.335 N 
ATOM     15  H   UNL     1       1.999   0.204   2.143  0.00  0.00    +0.147 HD
BRANCH  14  22
ATOM     16  C   UNL     1       0.797   1.412   0.223  0.00  0.00    +0.045 C 
ATOM     17  C   UNL     1       0.320  -0.013   0.110  0.00  0.00    -0.029 A 
ATOM     18  C   UNL     1      -0.415  -0.411  -0.990  0.00  0.00    +0.005 A 
ATOM     19  C   UNL     1      -0.854  -1.718  -1.095  0.00  0.00    +0.001 A 
ATOM     20  C   UNL     1      -0.557  -2.632  -0.100  0.00  0.00    +0.005 A 
ATOM     21  C   UNL     1       0.178  -2.241   1.002  0.00  0.00    -0.029 A 
ATOM     22  C   UNL     1       0.624  -0.930   1.108  0.00  0.00    +0.033 A 
ATOM     23  C   UNL     1       0.500  -3.238   2.086  0.00  0.00    +0.045 C 
ENDBRANCH  14  22
ENDBRANCH  13  14
ENDBRANCH   9  13
ENDBRANCH   7  11
ENDBRANCH   1   8
BRANCH   6  24
ATOM     24  O   UNL     1       4.010   1.721   7.538  0.00  0.00    -0.506 OA
ATOM     25  H   UNL     1       3.284   2.325   7.331  0.00  0.00    +0.292 HD
ENDBRANCH   6  24
BRANCH   3  26
ATOM     26  N   UNL     1       3.979  -0.143  12.717  0.00  0.00    -0.149 NA
ATOM     27  N   UNL     1       4.606   0.511  13.635  0.00  0.00    -0.149 NA
BRANCH  27  28
ATOM     28  C   UNL     1       4.605   0.053  14.923  0.00  0.00    +0.086 A 
ATOM     29  C   UNL     1       3.930  -1.127  15.248  0.00  0.00    +0.030 A 
ATOM     30  C   UNL     1       3.934  -1.584  16.549  0.00  0.00    +0.006 A 
ATOM     31  C   UNL     1       4.603  -0.876  17.533  0.00  0.00    -0.047 A 
ATOM     32  C   UNL     1       5.272   0.294  17.219  0.00  0.00    -0.045 A 
ATOM     33  C   UNL     1       5.283   0.759  15.920  0.00  0.00    +0.033 A 
ATOM     34  C   UNL     1       5.998   1.057  18.297  0.00  0.00    +0.044 C 
ATOM     35  C   UNL     1       4.602  -1.381  18.952  0.00  0.00    +0.044 C 
ENDBRANCH  27  28
ENDBRANCH   3  26
TORSDOF 8
