REMARK  Name = ZINC15816315
REMARK  8 active torsions:
REMARK  status: ('A' for Active; 'I' for Inactive)
REMARK    1  A    between atoms: C_1  and  C_2
REMARK    2  A    between atoms: C_2  and  C_4
REMARK    3  A    between atoms: C_2  and  O_15
REMARK    4  A    between atoms: N_9  and  C_10
REMARK    5  A    between atoms: O_15  and  C_16
REMARK    6  A    between atoms: C_16  and  C_18
REMARK    7  A    between atoms: N_21  and  S_24
REMARK    8  A    between atoms: S_24  and  C_27
REMARK                            x       y       z     vdW  Elec       q    Type
REMARK                         _______ _______ _______ _____ _____    ______ ____
ROOT
ATOM      1  O   UNL     1      -2.091   1.077   1.277  0.00  0.00    -0.452 OA
ENDROOT
BRANCH   1   3
ATOM      2  C   UNL     1      -0.013   1.086   0.008  0.00  0.00    +0.062 C 
ATOM      3  C   UNL     1      -0.729   1.579   1.267  0.00  0.00    +0.259 C 
BRANCH   3   4
ATOM      4  C   UNL     1      -0.749   3.086   1.275  0.00  0.00    +0.261 C 
ATOM      5  O   UNL     1      -1.804   3.678   1.197  0.00  0.00    -0.271 OA
ATOM      6  N   UNL     1       0.405   3.775   1.369  0.00  0.00    -0.237 N 
ATOM      7  C   UNL     1       0.387   5.123   1.377  0.00  0.00    +0.306 C 
ATOM      8  O   UNL     1      -0.671   5.717   1.298  0.00  0.00    -0.252 OA
ATOM      9  N   UNL     1       1.541   5.812   1.471  0.00  0.00    -0.296 N 
ATOM     10  H   UNL     1       1.249   3.301   1.432  0.00  0.00    +0.159 HD
ATOM     11  H   UNL     1       2.385   5.338   1.534  0.00  0.00    +0.151 HD
BRANCH   9  12
ATOM     12  C   UNL     1       1.521   7.277   1.479  0.00  0.00    +0.074 C 
ATOM     13  C   UNL     1       1.572   7.814   0.034  0.00  0.00    +0.022 C 
ATOM     14  C   UNL     1       2.458   9.081   0.131  0.00  0.00    +0.002 C 
ATOM     15  C   UNL     1       3.541   8.664   1.157  0.00  0.00    +0.002 C 
ATOM     16  C   UNL     1       2.773   7.817   2.193  0.00  0.00    +0.022 C 
ENDBRANCH   9  12
ENDBRANCH   3   4
ENDBRANCH   1   3
BRANCH   1  17
ATOM     17  C   UNL     1      -2.299  -0.109   1.871  0.00  0.00    +0.311 C 
ATOM     18  O   UNL     1      -1.373  -0.708   2.365  0.00  0.00    -0.251 OA
BRANCH  17  19
ATOM     19  C   UNL     1      -3.687  -0.694   1.920  0.00  0.00    +0.100 C 
ATOM     20  C   UNL     1      -4.617   0.263   2.668  0.00  0.00    +0.032 C 
ATOM     21  C   UNL     1      -6.034  -0.319   2.687  0.00  0.00    +0.110 C 
ATOM     22  N   UNL     1      -5.982  -1.674   3.252  0.00  0.00    -0.176 NA
ATOM     23  C   UNL     1      -5.052  -2.649   2.665  0.00  0.00    +0.110 C 
ATOM     24  C   UNL     1      -3.646  -2.041   2.647  0.00  0.00    +0.032 C 
BRANCH  22  25
ATOM     25  S   UNL     1      -6.951  -2.094   4.527  0.00  0.00    +0.067 S 
ATOM     26  O   UNL     1      -8.064  -1.212   4.499  0.00  0.00    -0.152 OA
ATOM     27  O   UNL     1      -7.097  -3.507   4.478  0.00  0.00    -0.152 OA
BRANCH  25  28
ATOM     28  C   UNL     1      -6.058  -1.732   6.002  0.00  0.00    +0.143 A 
ATOM     29  C   UNL     1      -6.030  -0.584   6.723  0.00  0.00    +0.036 A 
ATOM     30  C   UNL     1      -5.251  -0.527   7.863  0.00  0.00    +0.010 A 
ATOM     31  C   UNL     1      -4.529  -1.617   8.221  0.00  0.00    +0.047 A 
ATOM     32  S   UNL     1      -4.949  -2.778   6.931  0.00  0.00    -0.077 S 
ENDBRANCH  25  28
ENDBRANCH  22  25
ENDBRANCH  17  19
ENDBRANCH   1  17
TORSDOF 7
