REMARK  Name = ZINC31811208
REMARK  9 active torsions:
REMARK  status: ('A' for Active; 'I' for Inactive)
REMARK    1  A    between atoms: C_1  and  O_2
REMARK    2  A    between atoms: O_2  and  C_3
REMARK    3  A    between atoms: C_3  and  C_5
REMARK    4  A    between atoms: C_5  and  C_6
REMARK    5  A    between atoms: C_6  and  C_8
REMARK    6  A    between atoms: C_6  and  N_12
REMARK    7  A    between atoms: C_8  and  O_10
REMARK    8  A    between atoms: O_10  and  C_11
REMARK    9  A    between atoms: C_24  and  C_26
REMARK                            x       y       z     vdW  Elec       q    Type
REMARK                         _______ _______ _______ _____ _____    ______ ____
ROOT
ATOM      1  N   UNL     1       2.493  -2.076  -4.832  0.00  0.00    -0.286 N 
ATOM      2  C   UNL     1       1.163  -1.879  -4.742  0.00  0.00    +0.304 C 
ATOM      3  O   UNL     1       0.579  -2.138  -3.708  0.00  0.00    -0.253 OA
ATOM      4  N   UNL     1       0.481  -1.395  -5.799  0.00  0.00    -0.273 N 
ATOM      5  C   UNL     1      -0.949  -1.069  -5.689  0.00  0.00    +0.116 C 
ATOM      6  C   UNL     1      -1.140   0.439  -5.892  0.00  0.00    +0.076 C 
ATOM      7  C   UNL     1      -0.323   0.877  -7.082  0.00  0.00    +0.066 A 
ATOM      8  C   UNL     1       0.693   0.164  -7.614  0.00  0.00    +0.064 A 
ATOM      9  N   UNL     1       1.183   0.880  -8.661  0.00  0.00    -0.346 N 
ATOM     10  H   UNL     1       1.920   0.626  -9.239  0.00  0.00    +0.167 HD
ATOM     11  C   UNL     1       0.448   2.013  -8.744  0.00  0.00    +0.197 A 
ATOM     12  N   UNL     1      -0.451   2.001  -7.795  0.00  0.00    -0.240 NA
ATOM     13  C   UNL     1       1.150  -1.172  -7.094  0.00  0.00    +0.156 C 
ATOM     14  H   UNL     1       2.947  -1.944  -5.679  0.00  0.00    +0.151 HD
ENDROOT
BRANCH  13  15
ATOM     15  C   UNL     1       0.761  -2.256  -8.066  0.00  0.00    -0.021 A 
ATOM     16  C   UNL     1      -0.554  -2.380  -8.473  0.00  0.00    +0.007 A 
ATOM     17  C   UNL     1      -0.911  -3.373  -9.364  0.00  0.00    +0.015 A 
ATOM     18  C   UNL     1       0.048  -4.244  -9.850  0.00  0.00    +0.018 A 
ATOM     19  C   UNL     1       1.364  -4.120  -9.442  0.00  0.00    +0.015 A 
ATOM     20  C   UNL     1       1.721  -3.122  -8.555  0.00  0.00    +0.007 A 
ATOM     21 BR   UNL     1      -0.440  -5.605 -11.069  0.00  0.00    -0.050 Br
ENDBRANCH  13  15
BRANCH   1  22
ATOM     22  C   UNL     1       3.254  -2.489  -3.651  0.00  0.00    +0.194 C 
BRANCH  22  23
ATOM     23  C   UNL     1       3.634  -1.273  -2.847  0.00  0.00    +0.328 C 
ATOM     24  O   UNL     1       3.304  -0.173  -3.222  0.00  0.00    -0.249 OA
BRANCH  23  25
ATOM     25  O   UNL     1       4.340  -1.411  -1.713  0.00  0.00    -0.467 OA
ATOM     26  C   UNL     1       4.666  -0.215  -1.002  0.00  0.00    +0.280 C 
ENDBRANCH  23  25
ENDBRANCH  22  23
BRANCH  22  27
ATOM     27  C   UNL     1       4.521  -3.226  -4.091  0.00  0.00    +0.154 C 
BRANCH  27  28
ATOM     28  C   UNL     1       4.140  -4.506  -4.789  0.00  0.00    +0.309 C 
ATOM     29  O   UNL     1       2.975  -4.800  -4.920  0.00  0.00    -0.251 OA
BRANCH  28  31
ATOM     30  C   UNL     1       4.662  -6.518  -5.915  0.00  0.00    +0.280 C 
ATOM     31  O   UNL     1       5.095  -5.321  -5.264  0.00  0.00    -0.468 OA
ENDBRANCH  28  31
ENDBRANCH  27  28
ENDBRANCH  22  27
ENDBRANCH   1  22
TORSDOF 7
