REMARK  Name = ZINC36500364
REMARK  12 active torsions:
REMARK  status: ('A' for Active; 'I' for Inactive)
REMARK    1  A    between atoms: C_1  and  C_2
REMARK    2  A    between atoms: C_2  and  C_3
REMARK    3  A    between atoms: C_2  and  C_4
REMARK    4  A    between atoms: C_2  and  N_5
REMARK    5  A    between atoms: C_6  and  C_8
REMARK    6  A    between atoms: C_8  and  C_10
REMARK    7  A    between atoms: C_8  and  N_19
REMARK    8  A    between atoms: C_13  and  N_16
REMARK    9  A    between atoms: N_19  and  C_20
REMARK   10  A    between atoms: C_20  and  C_21
REMARK   11  A    between atoms: C_26  and  C_28
REMARK   12  A    between atoms: C_31  and  O_34
REMARK                            x       y       z     vdW  Elec       q    Type
REMARK                         _______ _______ _______ _____ _____    ______ ____
ROOT
ATOM      1  C   UNL     1       3.241  -2.090  -4.385  0.00  0.00    +0.193 C 
ENDROOT
BRANCH   1   2
ATOM      2  C   UNL     1       3.199  -2.191  -5.888  0.00  0.00    -0.018 A 
ATOM      3  C   UNL     1       3.032  -1.052  -6.653  0.00  0.00    +0.008 A 
ATOM      4  C   UNL     1       2.992  -1.144  -8.032  0.00  0.00    +0.033 A 
ATOM      5  C   UNL     1       3.121  -2.376  -8.646  0.00  0.00    +0.126 A 
ATOM      6  C   UNL     1       3.288  -3.515  -7.881  0.00  0.00    +0.033 A 
ATOM      7  C   UNL     1       3.332  -3.422  -6.502  0.00  0.00    +0.008 A 
BRANCH   5   8
ATOM      8  N   UNL     1       3.078  -2.476 -10.122  0.00  0.00    +0.056 N 
ATOM      9  O   UNL     1       2.930  -1.479 -10.791  0.00  0.00    -0.126 OA
ATOM     10  O   UNL     1       3.190  -3.553 -10.659  0.00  0.00    -0.126 OA
ENDBRANCH   5   8
ENDBRANCH   1   2
BRANCH   1  12
ATOM     11  N   UNL     1       2.813  -4.496  -4.000  0.00  0.00    -0.309 N 
ATOM     12  C   UNL     1       2.444  -3.218  -3.783  0.00  0.00    +0.239 C 
ATOM     13  O   UNL     1       1.469  -2.976  -3.103  0.00  0.00    -0.273 OA
ATOM     14  H   UNL     1       3.592  -4.689  -4.545  0.00  0.00    +0.149 HD
BRANCH  11  16
ATOM     15  C   UNL     1       0.598  -5.531  -3.930  0.00  0.00    +0.031 C 
ATOM     16  C   UNL     1       2.037  -5.592  -3.415  0.00  0.00    +0.026 C 
ATOM     17  C   UNL     1       2.039  -5.461  -1.891  0.00  0.00    +0.031 C 
ATOM     18  C   UNL     1       2.665  -6.930  -3.813  0.00  0.00    +0.031 C 
ENDBRANCH  11  16
ENDBRANCH   1  12
BRANCH   1  19
ATOM     19  N   UNL     1       2.669  -0.808  -3.966  0.00  0.00    -0.275 N 
ATOM     20  C   UNL     1       3.407   0.053  -3.237  0.00  0.00    +0.248 C 
ATOM     21  O   UNL     1       2.866   0.970  -2.650  0.00  0.00    -0.270 OA
BRANCH  20  22
ATOM     22  C   UNL     1       4.870  -0.118  -3.151  0.00  0.00    +0.037 A 
ATOM     23  C   UNL     1       5.577  -0.652  -4.232  0.00  0.00    +0.016 A 
ATOM     24  C   UNL     1       6.943  -0.810  -4.148  0.00  0.00    +0.046 A 
ATOM     25  C   UNL     1       7.618  -0.439  -2.991  0.00  0.00    +0.117 A 
ATOM     26  C   UNL     1       6.918   0.093  -1.915  0.00  0.00    +0.046 A 
ATOM     27  C   UNL     1       5.553   0.259  -1.992  0.00  0.00    +0.016 A 
BRANCH  25  28
ATOM     28  O   UNL     1       8.963  -0.596  -2.913  0.00  0.00    -0.507 OA
ATOM     29  H   UNL     1       9.467   0.171  -3.217  0.00  0.00    +0.292 HD
ENDBRANCH  25  28
ENDBRANCH  20  22
BRANCH  19  30
ATOM     30  C   UNL     1       1.295  -0.463  -4.338  0.00  0.00    +0.183 C 
BRANCH  30  31
ATOM     31  C   UNL     1       0.520  -0.082  -3.102  0.00  0.00    +0.122 A 
ATOM     32  C   UNL     1       0.369   1.165  -2.622  0.00  0.00    +0.046 A 
ATOM     33  C   UNL     1      -0.424   1.062  -1.456  0.00  0.00    +0.041 A 
ATOM     34  C   UNL     1      -0.711  -0.242  -1.294  0.00  0.00    +0.195 A 
ATOM     35  O   UNL     1      -0.141  -0.930  -2.297  0.00  0.00    -0.466 OA
ENDBRANCH  30  31
ENDBRANCH  19  30
ENDBRANCH   1  19
TORSDOF 9
