REMARK  Name = ZINC50901437
REMARK  8 active torsions:
REMARK  status: ('A' for Active; 'I' for Inactive)
REMARK    1  A    between atoms: C_1  and  C_2
REMARK    2  A    between atoms: C_2  and  C_3
REMARK    3  A    between atoms: C_3  and  C_4
REMARK    4  A    between atoms: C_4  and  C_6
REMARK    5  A    between atoms: C_4  and  N_7
REMARK    6  A    between atoms: C_8  and  C_10
REMARK    7  A    between atoms: N_15  and  C_17
REMARK    8  A    between atoms: C_17  and  N_18
REMARK                            x       y       z     vdW  Elec       q    Type
REMARK                         _______ _______ _______ _____ _____    ______ ____
ROOT
ATOM      1  C   UNL     1       2.131  -4.220  -1.602  0.00  0.00    +0.058 C 
ATOM      2  C   UNL     1       1.930  -3.272  -2.788  0.00  0.00    +0.009 C 
ATOM      3  C   UNL     1       2.694  -3.816  -3.998  0.00  0.00    -0.018 C 
ATOM      4  C   UNL     1       2.214  -5.237  -4.302  0.00  0.00    -0.077 C 
ATOM      5  N   UNL     1       2.458  -6.099  -3.139  0.00  0.00    +0.391 N 
ATOM      6  C   UNL     1       1.672  -5.626  -1.994  0.00  0.00    -0.064 C 
ATOM      7  H   UNL     1       3.439  -6.076  -2.905  0.00  0.00    -0.079 HD
ENDROOT
BRANCH   1   9
ATOM      8  N   UNL     1       1.551  -2.512   0.092  0.00  0.00    -0.313 N 
ATOM      9  C   UNL     1       1.321  -3.735  -0.427  0.00  0.00    +0.215 C 
ATOM     10  O   UNL     1       0.461  -4.444   0.051  0.00  0.00    -0.276 OA
ATOM     11  H   UNL     1       2.238  -1.944  -0.291  0.00  0.00    +0.149 HD
BRANCH   8  12
ATOM     12  C   UNL     1       0.763  -2.041   1.233  0.00  0.00    +0.070 C 
ATOM     13  C   UNL     1       1.392  -2.549   2.532  0.00  0.00    +0.028 C 
BRANCH  12  14
ATOM     14  C   UNL     1       0.742  -0.511   1.242  0.00  0.00    +0.022 C 
BRANCH  14  16
ATOM     15  C   UNL     1      -0.019   1.526   0.010  0.00  0.00    +0.004 C 
ATOM     16  C   UNL     1       0.002  -0.004   0.002  0.00  0.00    -0.002 C 
ENDBRANCH  14  16
ENDBRANCH  12  14
ENDBRANCH   8  12
ENDBRANCH   1   9
BRANCH   5  17
ATOM     17  C   UNL     1       2.067  -7.478  -3.463  0.00  0.00    +0.043 C 
BRANCH  17  18
ATOM     18  N   UNL     1       2.937  -7.996  -4.521  0.00  0.00    -0.241 N 
ATOM     19  C   UNL     1       2.681  -7.878  -5.838  0.00  0.00    +0.245 C 
ATOM     20  O   UNL     1       1.721  -7.343  -6.350  0.00  0.00    -0.273 OA
ATOM     21  C   UNL     1       3.843  -8.551  -6.549  0.00  0.00    +0.112 C 
ATOM     22  C   UNL     1       4.623  -7.460  -7.317  0.00  0.00    +0.035 C 
ATOM     23  C   UNL     1       6.033  -7.934  -7.533  0.00  0.00    +0.003 C 
ATOM     24  C   UNL     1       6.226  -8.626  -8.897  0.00  0.00    +0.000 C 
ATOM     25  C   UNL     1       5.060  -9.566  -9.259  0.00  0.00    +0.000 C 
ATOM     26  C   UNL     1       4.592 -10.375  -8.079  0.00  0.00    +0.003 C 
ATOM     27  C   UNL     1       3.411  -9.637  -7.420  0.00  0.00    +0.035 C 
ATOM     28  N   UNL     1       4.695  -9.018  -5.436  0.00  0.00    -0.285 N 
ATOM     29  C   UNL     1       4.087  -8.641  -4.298  0.00  0.00    +0.308 C 
ATOM     30  O   UNL     1       4.532  -8.865  -3.189  0.00  0.00    -0.252 OA
ATOM     31  H   UNL     1       5.533  -9.501  -5.513  0.00  0.00    +0.151 HD
ENDBRANCH  17  18
ENDBRANCH   5  17
TORSDOF 6
