REMARK  Name = ZINC04348778
REMARK  4 active torsions:
REMARK  status: ('A' for Active; 'I' for Inactive)
REMARK    1  A    between atoms: C_1  and  N_2
REMARK    2  A    between atoms: C_3  and  C_5
REMARK    3  A    between atoms: C_9  and  N_10
REMARK    4  A    between atoms: C_11  and  C_13
REMARK                            x       y       z     vdW  Elec       q    Type
REMARK                         _______ _______ _______ _____ _____    ______ ____
ROOT
ATOM      1  N   UNL     1      -4.943   4.998   0.072  0.00  0.00    -0.273 N 
ATOM      2  C   UNL     1      -3.836   5.768   0.066  0.00  0.00    +0.284 C 
ATOM      3  O   UNL     1      -3.938   6.979   0.072  0.00  0.00    -0.266 OA
ATOM      4  H   UNL     1      -4.862   4.032   0.067  0.00  0.00    +0.156 HD
ENDROOT
BRANCH   2   5
ATOM      5  C   UNL     1      -2.496   5.137   0.051  0.00  0.00    +0.194 A 
ATOM      6  C   UNL     1      -1.401   5.935   0.044  0.00  0.00    +0.103 A 
ATOM      7  C   UNL     1      -0.070   5.311   0.029  0.00  0.00    +0.193 A 
ATOM      8  O   UNL     1       0.949   5.979   0.024  0.00  0.00    -0.287 OA
ATOM      9  C   UNL     1      -0.027   3.836   0.022  0.00  0.00    +0.064 A 
ATOM     10  C   UNL     1       1.184   3.146   0.007  0.00  0.00    +0.015 A 
ATOM     11  C   UNL     1       1.184   1.778   0.000  0.00  0.00    +0.001 A 
ATOM     12  C   UNL     1      -0.013   1.076   0.008  0.00  0.00    +0.004 A 
ATOM     13  C   UNL     1      -1.220   1.741   0.017  0.00  0.00    +0.047 A 
ATOM     14  C   UNL     1      -1.244   3.132   0.030  0.00  0.00    +0.139 A 
ATOM     15  O   UNL     1      -2.414   3.799   0.044  0.00  0.00    -0.450 OA
ENDBRANCH   2   5
BRANCH   1  20
ATOM     16  C   UNL     1      -7.439   4.971   0.090  0.00  0.00    +0.069 A 
ATOM     17  C   UNL     1      -8.613   5.827   0.111  0.00  0.00    -0.023 A 
ATOM     18  C   UNL     1      -8.358   7.154   0.114  0.00  0.00    -0.004 A 
ATOM     19  S   UNL     1      -6.592   7.275   0.098  0.00  0.00    -0.077 S 
ATOM     20  C   UNL     1      -6.196   5.588   0.087  0.00  0.00    +0.085 A 
ATOM     21  C   UNL     1      -9.361   8.266   0.127  0.00  0.00    +0.043 C 
ATOM     22  C   UNL     1     -10.733   7.684  -0.241  0.00  0.00    +0.005 C 
ATOM     23  C   UNL     1     -10.974   6.423   0.592  0.00  0.00    +0.005 C 
ATOM     24  C   UNL     1     -10.044   5.303   0.122  0.00  0.00    +0.037 C 
BRANCH  16  27
ATOM     25  C   UNL     1      -7.752   1.390  -1.109  0.00  0.00    +0.128 C 
ATOM     26  N   UNL     1      -7.628   2.849  -1.096  0.00  0.00    -0.314 N 
ATOM     27  C   UNL     1      -7.564   3.510   0.077  0.00  0.00    +0.246 C 
ATOM     28  O   UNL     1      -7.608   2.894   1.125  0.00  0.00    -0.270 OA
ATOM     29  H   UNL     1      -7.593   3.341  -1.932  0.00  0.00    +0.149 HD
ENDBRANCH  16  27
ENDBRANCH   1  20
TORSDOF 3
