REMARK  Name = ZINC21617692
REMARK  9 active torsions:
REMARK  status: ('A' for Active; 'I' for Inactive)
REMARK    1  A    between atoms: C_1  and  C_2
REMARK    2  A    between atoms: C_7  and  S_15
REMARK    3  A    between atoms: S_15  and  C_16
REMARK    4  A    between atoms: C_16  and  C_18
REMARK    5  A    between atoms: C_16  and  C_19
REMARK    6  A    between atoms: C_19  and  C_21
REMARK    7  A    between atoms: C_22  and  N_31
REMARK    8  A    between atoms: N_23  and  C_30
REMARK    9  A    between atoms: N_26  and  C_29
REMARK                            x       y       z     vdW  Elec       q    Type
REMARK                         _______ _______ _______ _____ _____    ______ ____
ROOT
ATOM      1  C   UNL     1       0.060  -0.504   0.810  0.00  0.00    +0.122 C 
ATOM      2  C   UNL     1       0.672  -1.371   1.912  0.00  0.00    +0.028 C 
ENDROOT
BRANCH   1   3
ATOM      3  C   UNL     1      -1.360  -0.941   0.556  0.00  0.00    +0.185 C 
ATOM      4  O   UNL     1      -2.279  -0.373   1.112  0.00  0.00    -0.291 OA
BRANCH   3   5
ATOM      5  C   UNL     1      -1.622  -2.010  -0.327  0.00  0.00    +0.121 A 
ATOM      6  C   UNL     1      -2.938  -2.356  -0.677  0.00  0.00    +0.116 A 
ATOM      7  N   UNL     1      -3.141  -3.395  -1.540  0.00  0.00    -0.284 N 
ATOM      8  C   UNL     1      -2.112  -4.093  -2.045  0.00  0.00    +0.333 A 
ATOM      9  O   UNL     1      -2.346  -5.013  -2.805  0.00  0.00    -0.246 OA
ATOM     10  N   UNL     1      -0.834  -3.813  -1.742  0.00  0.00    -0.263 N 
ATOM     11  C   UNL     1      -0.527  -2.802  -0.904  0.00  0.00    +0.269 A 
ATOM     12  O   UNL     1       0.632  -2.551  -0.631  0.00  0.00    -0.267 OA
ATOM     13  C   UNL     1       0.241  -4.616  -2.330  0.00  0.00    +0.157 C 
ATOM     14  C   UNL     1      -4.509  -3.760  -1.915  0.00  0.00    +0.155 C 
BRANCH   6  15
ATOM     15  N   UNL     1      -3.993  -1.662  -0.170  0.00  0.00    -0.344 N 
ATOM     16  H   UNL     1      -5.020  -1.940  -0.450  0.00  0.00    +0.144 HD
ATOM     17  H   UNL     1      -3.820  -0.824   0.521  0.00  0.00    +0.144 HD
ENDBRANCH   6  15
ENDBRANCH   3   5
ENDBRANCH   1   3
BRANCH   1  18
ATOM     18  S   UNL     1       0.073   1.230   1.329  0.00  0.00    -0.075 S 
BRANCH  18  25
ATOM     19  C   UNL     1       5.309   5.756   2.662  0.00  0.00    +0.044 C 
ATOM     20  C   UNL     1       4.306   4.678   2.343  0.00  0.00    -0.038 A 
ATOM     21  C   UNL     1       4.721   3.446   1.971  0.00  0.00    +0.052 A 
ATOM     22  C   UNL     1       3.779   2.433   1.672  0.00  0.00    +0.162 A 
ATOM     23  N   UNL     1       3.914   1.175   1.294  0.00  0.00    -0.129 NA
ATOM     24  N   UNL     1       2.756   0.639   1.139  0.00  0.00    -0.122 NA
ATOM     25  C   UNL     1       1.811   1.513   1.406  0.00  0.00    +0.197 A 
ATOM     26  N   UNL     1       2.426   2.682   1.747  0.00  0.00    -0.270 N 
ATOM     27  C   UNL     1       1.954   3.926   2.129  0.00  0.00    +0.058 A 
ATOM     28  C   UNL     1       2.868   4.951   2.432  0.00  0.00    +0.002 A 
ATOM     29  C   UNL     1       2.398   6.211   2.813  0.00  0.00    +0.010 A 
ATOM     30  C   UNL     1       1.042   6.438   2.889  0.00  0.00    +0.001 A 
ATOM     31  C   UNL     1       0.143   5.426   2.589  0.00  0.00    +0.002 A 
ATOM     32  C   UNL     1       0.591   4.177   2.212  0.00  0.00    +0.027 A 
ENDBRANCH  18  25
ENDBRANCH   1  18
TORSDOF 5
