REMARK  Name = ZINC39533310
REMARK  10 active torsions:
REMARK  status: ('A' for Active; 'I' for Inactive)
REMARK    1  A    between atoms: C_1  and  C_2
REMARK    2  A    between atoms: C_2  and  C_3
REMARK    3  A    between atoms: C_2  and  C_4
REMARK    4  A    between atoms: C_4  and  C_5
REMARK    5  A    between atoms: C_8  and  C_11
REMARK    6  A    between atoms: C_11  and  C_13
REMARK    7  A    between atoms: C_11  and  N_16
REMARK    8  A    between atoms: C_13  and  N_14
REMARK    9  A    between atoms: C_20  and  C_23
REMARK   10  A    between atoms: C_23  and  C_24
REMARK                            x       y       z     vdW  Elec       q    Type
REMARK                         _______ _______ _______ _____ _____    ______ ____
ROOT
ATOM      1  C   UNL     1      -1.367  -6.290  -0.493  0.00  0.00    +0.103 C 
ENDROOT
BRANCH   1   2
ATOM      2  N   UNL     1      -2.104  -6.925   0.607  0.00  0.00    -0.297 NA
ATOM      3  C   UNL     1      -1.269  -7.023   1.812  0.00  0.00    +0.066 C 
ATOM      4  C   UNL     1      -2.090  -7.635   2.950  0.00  0.00    -0.067 C 
ATOM      5  N   UNL     1      -2.563  -8.967   2.551  0.00  0.00    +0.383 N 
ATOM      6  C   UNL     1      -3.416  -8.849   1.361  0.00  0.00    -0.053 C 
ATOM      7  C   UNL     1      -2.606  -8.248   0.210  0.00  0.00    +0.069 C 
ATOM      8  H   UNL     1      -1.772  -9.556   2.341  0.00  0.00    -0.085 HD
ATOM      9  H   UNL     1      -3.095  -9.374   3.306  0.00  0.00    -0.085 HD
BRANCH   6  10
ATOM     10  C   UNL     1      -3.923 -10.236   0.958  0.00  0.00    +0.020 C 
BRANCH  10  11
ATOM     11  C   UNL     1      -4.822 -10.776   2.041  0.00  0.00    -0.049 A 
ATOM     12  C   UNL     1      -4.287 -11.520   3.075  0.00  0.00    +0.003 A 
ATOM     13  C   UNL     1      -5.111 -12.016   4.068  0.00  0.00    +0.000 A 
ATOM     14  C   UNL     1      -6.470 -11.767   4.027  0.00  0.00    +0.000 A 
ATOM     15  C   UNL     1      -7.005 -11.021   2.992  0.00  0.00    +0.000 A 
ATOM     16  C   UNL     1      -6.180 -10.522   2.002  0.00  0.00    +0.003 A 
ENDBRANCH  10  11
ENDBRANCH   6  10
ENDBRANCH   1   2
BRANCH   1  20
ATOM     17  C   UNL     1      -1.144  -2.078   0.186  0.00  0.00    -0.047 A 
ATOM     18  C   UNL     1      -0.697  -2.610  -1.008  0.00  0.00    +0.004 A 
ATOM     19  C   UNL     1      -0.768  -3.973  -1.228  0.00  0.00    +0.005 A 
ATOM     20  C   UNL     1      -1.288  -4.804  -0.253  0.00  0.00    -0.029 A 
ATOM     21  C   UNL     1      -1.735  -4.272   0.942  0.00  0.00    +0.005 A 
ATOM     22  C   UNL     1      -1.659  -2.910   1.163  0.00  0.00    +0.004 A 
BRANCH  17  23
ATOM     23  C   UNL     1      -1.066  -0.593   0.426  0.00  0.00    +0.038 C 
BRANCH  23  25
ATOM     24  C   UNL     1       0.412   1.269   1.196  0.00  0.00    +0.007 C 
ATOM     25  C   UNL     1       0.281  -0.250   1.066  0.00  0.00    -0.013 C 
ATOM     26  C   UNL     1       0.363  -0.889   2.454  0.00  0.00    +0.007 C 
ENDBRANCH  23  25
ENDBRANCH  17  23
ENDBRANCH   1  20
BRANCH   1  27
ATOM     27  C   UNL     1       0.046  -6.871  -0.564  0.00  0.00    +0.140 C 
BRANCH  27  28
ATOM     28  N   UNL     1      -0.032  -8.324  -0.764  0.00  0.00    -0.157 NA
ATOM     29  F   UNL     1       1.156  -8.850  -0.829  0.00  0.00    -0.136 F 
ATOM     30  H   UNL     1      -0.571  -8.547  -1.588  0.00  0.00    +0.159 HD
ENDBRANCH  27  28
ENDBRANCH   1  27
TORSDOF 8
