REMARK  Name = ZINC02883290
REMARK  5 active torsions:
REMARK  status: ('A' for Active; 'I' for Inactive)
REMARK    1  A    between atoms: C_1  and  C_2
REMARK    2  A    between atoms: C_2  and  O_3
REMARK    3  A    between atoms: O_3  and  C_4
REMARK    4  A    between atoms: C_7  and  N_26
REMARK    5  A    between atoms: C_9  and  C_10
REMARK                            x       y       z     vdW  Elec       q    Type
REMARK                         _______ _______ _______ _____ _____    ______ ____
ROOT
ATOM      1  C   UNL     1       0.002  -0.004   0.002  0.00  0.00    +0.064 C 
ATOM      2  C   UNL     1       0.606  -0.497  -1.313  0.00  0.00    +0.109 C 
ATOM      3  C   UNL     1       0.894  -1.973  -1.214  0.00  0.00    +0.218 C 
ATOM      4  O   UNL     1       0.718  -2.687  -2.179  0.00  0.00    -0.275 OA
ATOM      5  N   UNL     1       1.345  -2.503  -0.066  0.00  0.00    -0.285 N 
ATOM      6  C   UNL     1       1.457  -1.725   1.091  0.00  0.00    +0.038 A 
ATOM      7  C   UNL     1       0.830  -0.500   1.159  0.00  0.00    -0.011 A 
ATOM      8  C   UNL     1       0.964   0.285   2.315  0.00  0.00    -0.012 A 
ATOM      9  C   UNL     1       0.364   1.553   2.407  0.00  0.00    +0.009 A 
ATOM     10  C   UNL     1       0.516   2.289   3.542  0.00  0.00    +0.001 A 
ATOM     11  C   UNL     1       1.258   1.804   4.617  0.00  0.00    +0.001 A 
ATOM     12  C   UNL     1       1.853   0.581   4.564  0.00  0.00    +0.008 A 
ATOM     13  C   UNL     1       1.718  -0.208   3.409  0.00  0.00    -0.017 A 
ATOM     14  C   UNL     1       2.317  -1.477   3.321  0.00  0.00    +0.010 A 
ATOM     15  C   UNL     1       2.183  -2.211   2.186  0.00  0.00    +0.024 A 
ATOM     16  H   UNL     1       1.598  -3.440  -0.038  0.00  0.00    +0.155 HD
ENDROOT
BRANCH   1  22
ATOM     17  C   UNL     1      -1.228   2.181  -0.015  0.00  0.00    +0.124 A 
ATOM     18  C   UNL     1      -1.244   3.568  -0.001  0.00  0.00    +0.048 A 
ATOM     19  C   UNL     1      -0.055   4.271   0.026  0.00  0.00    +0.036 A 
ATOM     20  C   UNL     1       1.150   3.592   0.045  0.00  0.00    +0.127 A 
ATOM     21  C   UNL     1       1.168   2.210   0.037  0.00  0.00    +0.040 A 
ATOM     22  C   UNL     1      -0.018   1.503   0.010  0.00  0.00    +0.004 A 
BRANCH  20  23
ATOM     23  N   UNL     1       2.422   4.348   0.074  0.00  0.00    +0.056 N 
ATOM     24  O   UNL     1       3.484   3.752   0.092  0.00  0.00    -0.126 OA
ATOM     25  O   UNL     1       2.408   5.566   0.081  0.00  0.00    -0.126 OA
ENDBRANCH  20  23
BRANCH  17  26
ATOM     26  O   UNL     1      -2.397   1.487  -0.048  0.00  0.00    -0.492 OA
BRANCH  26  28
ATOM     27  C   UNL     1      -4.806   1.305  -0.107  0.00  0.00    +0.048 C 
ATOM     28  C   UNL     1      -3.604   2.251  -0.073  0.00  0.00    +0.225 C 
ENDBRANCH  26  28
ENDBRANCH  17  26
ENDBRANCH   1  22
TORSDOF 4
