REMARK  Name = ZINC08961487
REMARK  6 active torsions:
REMARK  status: ('A' for Active; 'I' for Inactive)
REMARK    1  A    between atoms: C_1  and  C_2
REMARK    2  A    between atoms: N_8  and  C_28
REMARK    3  A    between atoms: C_13  and  N_18
REMARK    4  A    between atoms: N_18  and  S_19
REMARK    5  A    between atoms: S_19  and  C_22
REMARK    6  A    between atoms: C_25  and  C_27
REMARK                            x       y       z     vdW  Elec       q    Type
REMARK                         _______ _______ _______ _____ _____    ______ ____
ROOT
ATOM      1  C   UNL     1      -1.792  -0.472  -0.290  0.00  0.00    +0.044 C 
ATOM      2  C   UNL     1      -0.485   0.275  -0.218  0.00  0.00    -0.048 A 
ATOM      3  C   UNL     1       0.703  -0.423  -0.105  0.00  0.00    +0.007 A 
ATOM      4  C   UNL     1       1.903   0.261  -0.052  0.00  0.00    +0.048 A 
ATOM      5  C   UNL     1       1.920   1.648  -0.106  0.00  0.00    +0.150 A 
ATOM      6  C   UNL     1       0.726   2.351  -0.199  0.00  0.00    +0.079 A 
ATOM      7  C   UNL     1      -0.476   1.655  -0.267  0.00  0.00    +0.030 A 
ATOM      8  N   UNL     1       0.697   3.745  -0.186  0.00  0.00    -0.267 N 
ATOM      9  C   UNL     1       1.554   4.552  -0.796  0.00  0.00    +0.254 C 
ATOM     10  O   UNL     1       1.368   5.750  -0.694  0.00  0.00    -0.270 OA
ATOM     11  C   UNL     1       2.711   4.109  -1.585  0.00  0.00    +0.081 A 
ATOM     12  C   UNL     1       3.075   4.813  -2.737  0.00  0.00    +0.041 A 
ATOM     13  C   UNL     1       4.199   4.435  -3.451  0.00  0.00    +0.049 A 
ATOM     14  C   UNL     1       4.965   3.355  -3.026  0.00  0.00    +0.028 A 
ATOM     15  C   UNL     1       4.604   2.649  -1.897  0.00  0.00    +0.049 A 
ATOM     16  C   UNL     1       3.474   3.010  -1.177  0.00  0.00    +0.141 A 
ATOM     17  O   UNL     1       3.114   2.290  -0.089  0.00  0.00    -0.453 OA
ATOM     18  C   UNL     1      -0.385   4.379   0.572  0.00  0.00    +0.139 C 
ENDROOT
BRANCH  13  19
ATOM     19  N   UNL     1       4.564   5.140  -4.604  0.00  0.00    -0.216 N 
ATOM     20  H   UNL     1       4.975   6.015  -4.528  0.00  0.00    +0.174 HD
BRANCH  19  21
ATOM     21  S   UNL     1       4.294   4.479  -6.099  0.00  0.00    +0.079 S 
ATOM     22  O   UNL     1       4.723   5.442  -7.052  0.00  0.00    -0.149 OA
ATOM     23  O   UNL     1       4.818   3.159  -6.060  0.00  0.00    -0.149 OA
BRANCH  21  24
ATOM     24  C   UNL     1       2.549   4.323  -6.292  0.00  0.00    +0.146 A 
ATOM     25  C   UNL     1       1.676   5.176  -6.882  0.00  0.00    +0.037 A 
ATOM     26  C   UNL     1       0.335   4.843  -6.918  0.00  0.00    +0.013 A 
ATOM     27  C   UNL     1      -0.067   3.674  -6.362  0.00  0.00    -0.011 A 
ATOM     28  S   UNL     1       1.474   2.998  -5.767  0.00  0.00    -0.074 S 
ATOM     29  C   UNL     1      -1.455   3.093  -6.274  0.00  0.00    +0.051 C 
ENDBRANCH  21  24
ENDBRANCH  19  21
ENDBRANCH  13  19
TORSDOF 3
