REMARK  Name = ZINC19519936
REMARK  11 active torsions:
REMARK  status: ('A' for Active; 'I' for Inactive)
REMARK    1  A    between atoms: C_1  and  C_2
REMARK    2  A    between atoms: C_2  and  O_3
REMARK    3  A    between atoms: O_3  and  C_4
REMARK    4  A    between atoms: C_11  and  C_16
REMARK    5  A    between atoms: C_16  and  N_17
REMARK    6  A    between atoms: N_17  and  C_18
REMARK    7  A    between atoms: N_17  and  C_21
REMARK    8  A    between atoms: C_18  and  C_19
REMARK    9  A    between atoms: C_19  and  O_20
REMARK   10  A    between atoms: C_21  and  C_27
REMARK   11  A    between atoms: N_31  and  C_32
REMARK                            x       y       z     vdW  Elec       q    Type
REMARK                         _______ _______ _______ _____ _____    ______ ____
ROOT
ATOM      1  N   UNL     1       4.262  -6.605  -4.498  0.00  0.00    +0.393 N 
ATOM      2  H   UNL     1       4.100  -7.529  -4.128  0.00  0.00    -0.080 HD
ENDROOT
BRANCH   1   3
ATOM      3  C   UNL     1       5.222  -6.683  -5.608  0.00  0.00    -0.002 C 
ATOM      4  C   UNL     1       4.708  -7.670  -6.658  0.00  0.00    -0.004 C 
ATOM      5  C   UNL     1       4.549  -9.053  -6.024  0.00  0.00    -0.001 C 
ATOM      6  C   UNL     1       5.903  -9.530  -5.494  0.00  0.00    -0.000 C 
ATOM      7  C   UNL     1       6.416  -8.543  -4.444  0.00  0.00    -0.001 C 
ATOM      8  C   UNL     1       6.575  -7.160  -5.078  0.00  0.00    -0.004 C 
BRANCH   3   9
ATOM      9  C   UNL     1       5.379  -5.320  -6.233  0.00  0.00    +0.141 A 
ATOM     10  N   UNL     1       4.774  -4.217  -5.866  0.00  0.00    -0.115 NA
ATOM     11  N   UNL     1       5.171  -3.268  -6.643  0.00  0.00    -0.023 NA
ATOM     12  N   UNL     1       6.012  -3.739  -7.496  0.00  0.00    -0.044 NA
ATOM     13  N   UNL     1       6.171  -5.000  -7.272  0.00  0.00    -0.228 N 
BRANCH  13  14
ATOM     14  C   UNL     1       7.046  -5.911  -8.013  0.00  0.00    +0.111 C 
ATOM     15  C   UNL     1       8.494  -5.429  -7.904  0.00  0.00    +0.027 C 
ATOM     16  C   UNL     1       9.408  -6.382  -8.678  0.00  0.00    +0.002 C 
ATOM     17  C   UNL     1       8.989  -6.408 -10.149  0.00  0.00    +0.000 C 
ATOM     18  C   UNL     1       7.541  -6.891 -10.258  0.00  0.00    +0.002 C 
ATOM     19  C   UNL     1       6.627  -5.938  -9.484  0.00  0.00    +0.027 C 
ENDBRANCH  13  14
ENDBRANCH   3   9
ENDBRANCH   1   3
BRANCH   1  20
ATOM     20  C   UNL     1       4.805  -5.742  -3.441  0.00  0.00    -0.036 C 
BRANCH  20  28
ATOM     21  C   UNL     1       2.496  -7.436   2.058  0.00  0.00    +0.121 A 
ATOM     22  C   UNL     1       1.420  -6.552   2.047  0.00  0.00    +0.047 A 
ATOM     23  C   UNL     1       1.222  -5.700   0.983  0.00  0.00    +0.030 A 
ATOM     24  C   UNL     1       2.103  -5.717  -0.094  0.00  0.00    +0.049 A 
ATOM     25  C   UNL     1       3.191  -6.609  -0.087  0.00  0.00    +0.002 A 
ATOM     26  C   UNL     1       3.385  -7.466   1.002  0.00  0.00    +0.055 A 
ATOM     27  C   UNL     1       4.110  -6.616  -1.227  0.00  0.00    +0.017 A 
ATOM     28  C   UNL     1       3.878  -5.760  -2.253  0.00  0.00    +0.001 A 
ATOM     29  C   UNL     1       2.771  -4.886  -2.211  0.00  0.00    +0.251 A 
ATOM     30  O   UNL     1       2.580  -4.124  -3.144  0.00  0.00    -0.268 OA
ATOM     31  N   UNL     1       1.922  -4.871  -1.169  0.00  0.00    -0.322 N 
ATOM     32  H   UNL     1       1.171  -4.257  -1.173  0.00  0.00    +0.169 HD
BRANCH  21  33
ATOM     33  O   UNL     1       2.676  -8.270   3.116  0.00  0.00    -0.492 OA
BRANCH  33  35
ATOM     34  C   UNL     1       2.085  -9.195   5.269  0.00  0.00    +0.048 C 
ATOM     35  C   UNL     1       1.721  -8.189   4.176  0.00  0.00    +0.225 C 
ENDBRANCH  33  35
ENDBRANCH  21  33
ENDBRANCH  20  28
ENDBRANCH   1  20
BRANCH   1  36
ATOM     36  C   UNL     1       2.995  -6.043  -4.986  0.00  0.00    -0.049 C 
BRANCH  36  37
ATOM     37  C   UNL     1       2.135  -7.162  -5.576  0.00  0.00    +0.137 C 
BRANCH  37  38
ATOM     38  O   UNL     1       1.875  -8.144  -4.571  0.00  0.00    -0.397 OA
ATOM     39  H   UNL     1       1.333  -8.885  -4.876  0.00  0.00    +0.209 HD
ENDBRANCH  37  38
ENDBRANCH  36  37
ENDBRANCH   1  36
TORSDOF 10
