REMARK  Name = ZINC03841416
REMARK  6 active torsions:
REMARK  status: ('A' for Active; 'I' for Inactive)
REMARK    1  A    between atoms: C_1  and  C_2
REMARK    2  A    between atoms: C_2  and  C_3
REMARK    3  A    between atoms: C_3  and  S_4
REMARK    4  A    between atoms: S_4  and  N_7
REMARK    5  A    between atoms: N_7  and  C_8
REMARK    6  A    between atoms: N_26  and  C_27
REMARK                            x       y       z     vdW  Elec       q    Type
REMARK                         _______ _______ _______ _____ _____    ______ ____
ROOT
ATOM      1  C   UNL     1      -0.802   1.345  -4.820  0.00  0.00    +0.112 A 
ATOM      2  C   UNL     1      -0.250   0.094  -4.864  0.00  0.00    +0.031 A 
ATOM      3  C   UNL     1       0.226  -0.478  -3.678  0.00  0.00    +0.024 A 
ATOM      4  C   UNL     1       0.119   0.186  -2.498  0.00  0.00    +0.027 A 
ATOM      5  N   UNL     1      -0.508   1.387  -2.437  0.00  0.00    -0.310 N 
ATOM      6  C   UNL     1      -0.895   2.006  -3.579  0.00  0.00    +0.274 A 
ATOM      7  O   UNL     1      -1.327   3.147  -3.533  0.00  0.00    -0.266 OA
ATOM      8  C   UNL     1      -0.855   2.045  -1.177  0.00  0.00    +0.130 C 
ATOM      9  C   UNL     1      -0.035   1.528  -0.009  0.00  0.00    +0.027 C 
ATOM     10  C   UNL     1      -0.018  -0.001  -0.021  0.00  0.00    +0.018 C 
ATOM     11  C   UNL     1       0.724  -0.466  -1.276  0.00  0.00    +0.054 C 
ATOM     12  C   UNL     1       2.187  -0.001  -1.174  0.00  0.00    +0.119 C 
ATOM     13  N   UNL     1       2.174   1.467  -1.075  0.00  0.00    -0.284 N 
ATOM     14  C   UNL     1       1.380   2.091  -0.011  0.00  0.00    +0.114 C 
ATOM     15  C   UNL     1       2.876   2.221  -1.944  0.00  0.00    +0.306 C 
ATOM     16  O   UNL     1       3.601   1.690  -2.763  0.00  0.00    -0.252 OA
ATOM     17  N   UNL     1       2.776   3.565  -1.904  0.00  0.00    -0.269 N 
ATOM     18  H   UNL     1       2.260   3.992  -1.202  0.00  0.00    +0.156 HD
ENDROOT
BRANCH  17  19
ATOM     19  C   UNL     1       3.415   4.344  -2.876  0.00  0.00    +0.035 A 
ATOM     20  C   UNL     1       3.942   5.583  -2.538  0.00  0.00    +0.026 A 
ATOM     21  C   UNL     1       4.578   6.348  -3.497  0.00  0.00    +0.040 A 
ATOM     22  C   UNL     1       4.678   5.884  -4.798  0.00  0.00    +0.124 A 
ATOM     23  C   UNL     1       4.147   4.652  -5.139  0.00  0.00    +0.040 A 
ATOM     24  C   UNL     1       3.517   3.882  -4.181  0.00  0.00    +0.026 A 
ATOM     25  F   UNL     1       5.295   6.636  -5.736  0.00  0.00    -0.205 F 
ENDBRANCH  17  19
BRANCH   1  26
ATOM     26  N   UNL     1      -1.268   1.958  -5.989  0.00  0.00    -0.215 N 
ATOM     27  H   UNL     1      -1.659   2.845  -5.950  0.00  0.00    +0.173 HD
BRANCH  26  28
ATOM     28  S   UNL     1      -1.153   1.168  -7.441  0.00  0.00    +0.043 S 
ATOM     29  O   UNL     1      -1.688   2.078  -8.392  0.00  0.00    -0.155 OA
ATOM     30  O   UNL     1       0.204   0.752  -7.520  0.00  0.00    -0.155 OA
BRANCH  28  31
ATOM     31  C   UNL     1      -2.240  -0.274  -7.274  0.00  0.00    +0.188 C 
BRANCH  31  33
ATOM     32  C   UNL     1      -3.128  -2.303  -8.431  0.00  0.00    +0.005 C 
ATOM     33  C   UNL     1      -2.211  -1.086  -8.571  0.00  0.00    +0.021 C 
ENDBRANCH  31  33
ENDBRANCH  28  31
ENDBRANCH  26  28
ENDBRANCH   1  26
TORSDOF 5
