REMARK  Name = ZINC65586845
REMARK  11 active torsions:
REMARK  status: ('A' for Active; 'I' for Inactive)
REMARK    1  A    between atoms: C_1  and  C_2
REMARK    2  A    between atoms: C_2  and  C_3
REMARK    3  A    between atoms: C_3  and  C_4
REMARK    4  A    between atoms: C_4  and  C_5
REMARK    5  A    between atoms: C_5  and  C_6
REMARK    6  A    between atoms: C_5  and  N_24
REMARK    7  A    between atoms: N_8  and  C_9
REMARK    8  A    between atoms: C_9  and  C_10
REMARK    9  A    between atoms: C_13  and  C_16
REMARK   10  A    between atoms: C_16  and  N_17
REMARK   11  A    between atoms: C_22  and  C_23
REMARK                            x       y       z     vdW  Elec       q    Type
REMARK                         _______ _______ _______ _____ _____    ______ ____
ROOT
ATOM      1  C   UNL     1       1.369  -4.024  -2.595  0.00  0.00    +0.234 C 
ATOM      2  O   UNL     1       2.312  -4.702  -2.247  0.00  0.00    -0.274 OA
ATOM      3  N   UNL     1       0.243  -4.613  -3.045  0.00  0.00    -0.310 N 
ATOM      4  H   UNL     1      -0.511  -4.071  -3.323  0.00  0.00    +0.149 HD
ENDROOT
BRANCH   1   5
ATOM      5  C   UNL     1       1.455  -2.521  -2.524  0.00  0.00    +0.160 C 
BRANCH   5   6
ATOM      6  N   UNL     1       2.862  -2.114  -2.477  0.00  0.00    -0.288 N 
ATOM      7  C   UNL     1       3.651  -2.534  -1.468  0.00  0.00    +0.298 C 
ATOM      8  O   UNL     1       3.195  -3.249  -0.597  0.00  0.00    -0.253 OA
ATOM      9  N   UNL     1       4.945  -2.160  -1.424  0.00  0.00    -0.313 N 
ATOM     10  H   UNL     1       3.225  -1.543  -3.171  0.00  0.00    +0.151 HD
ATOM     11  H   UNL     1       5.309  -1.589  -2.119  0.00  0.00    +0.146 HD
ATOM     12  H   UNL     1       5.513  -2.462  -0.698  0.00  0.00    +0.146 HD
ENDBRANCH   5   6
BRANCH   5  13
ATOM     13  C   UNL     1       0.739  -2.027  -1.265  0.00  0.00    +0.032 C 
BRANCH  13  14
ATOM     14  C   UNL     1       0.718  -0.497  -1.257  0.00  0.00    +0.002 C 
BRANCH  14  16
ATOM     15  C   UNL     1      -0.019   1.526   0.010  0.00  0.00    +0.004 C 
ATOM     16  C   UNL     1       0.002  -0.004   0.002  0.00  0.00    -0.003 C 
ENDBRANCH  14  16
ENDBRANCH  13  14
ENDBRANCH   5  13
ENDBRANCH   1   5
BRANCH   3  17
ATOM     17  C   UNL     1       0.159  -6.074  -3.113  0.00  0.00    +0.139 C 
BRANCH  17  18
ATOM     18  C   UNL     1      -1.192  -6.475  -3.646  0.00  0.00    -0.030 A 
ATOM     19  C   UNL     1      -2.245  -6.681  -2.774  0.00  0.00    +0.005 A 
ATOM     20  C   UNL     1      -3.485  -7.049  -3.263  0.00  0.00    +0.002 A 
ATOM     21  C   UNL     1      -3.672  -7.210  -4.623  0.00  0.00    -0.064 A 
ATOM     22  C   UNL     1      -2.619  -7.003  -5.495  0.00  0.00    +0.002 A 
ATOM     23  C   UNL     1      -1.381  -6.631  -5.006  0.00  0.00    +0.005 A 
BRANCH  21  24
ATOM     24  C   UNL     1      -5.024  -7.612  -5.155  0.00  0.00    -0.043 C 
BRANCH  24  25
ATOM     25  N   UNL     1      -5.816  -6.408  -5.438  0.00  0.00    +0.384 N 
ATOM     26  C   UNL     1      -6.081  -5.692  -4.184  0.00  0.00    -0.078 C 
ATOM     27  C   UNL     1      -6.836  -4.396  -4.482  0.00  0.00    -0.019 C 
ATOM     28  C   UNL     1      -8.163  -4.731  -5.170  0.00  0.00    -0.003 C 
ATOM     29  C   UNL     1      -7.879  -5.541  -6.438  0.00  0.00    -0.016 C 
ATOM     30  C   UNL     1      -7.084  -6.795  -6.067  0.00  0.00    -0.071 C 
ATOM     31  C   UNL     1      -6.798  -7.608  -7.332  0.00  0.00    -0.013 C 
ATOM     32  H   UNL     1      -5.301  -5.806  -6.064  0.00  0.00    -0.081 HD
ENDBRANCH  24  25
ENDBRANCH  21  24
ENDBRANCH  17  18
ENDBRANCH   3  17
TORSDOF 9
