REMARK  Name = ZINC16283364
REMARK  8 active torsions:
REMARK  status: ('A' for Active; 'I' for Inactive)
REMARK    1  A    between atoms: C_1  and  C_2
REMARK    2  A    between atoms: C_4  and  N_13
REMARK    3  A    between atoms: N_5  and  C_7
REMARK    4  A    between atoms: C_14  and  C_15
REMARK    5  A    between atoms: C_14  and  C_16
REMARK    6  A    between atoms: C_17  and  C_28
REMARK    7  A    between atoms: N_19  and  C_22
REMARK    8  A    between atoms: C_20  and  O_21
REMARK                            x       y       z     vdW  Elec       q    Type
REMARK                         _______ _______ _______ _____ _____    ______ ____
ROOT
ATOM      1  N   UNL     1      -0.089  -0.642  -1.081  0.00  0.00    -0.232 NA
ATOM      2  C   UNL     1      -0.201   0.071   0.009  0.00  0.00    +0.055 C 
ATOM      3  C   UNL     1      -0.073   1.571  -0.054  0.00  0.00    +0.066 C 
ENDROOT
BRANCH   1   7
ATOM      4  C   UNL     1      -2.222  -5.133  -1.043  0.00  0.00    +0.067 C 
ATOM      5  C   UNL     1      -1.197  -4.029  -1.013  0.00  0.00    +0.063 A 
ATOM      6  C   UNL     1      -1.470  -2.664  -1.096  0.00  0.00    +0.073 A 
ATOM      7  C   UNL     1      -0.266  -1.991  -1.034  0.00  0.00    +0.157 A 
ATOM      8  N   UNL     1       0.716  -2.937  -0.921  0.00  0.00    -0.214 N 
ATOM      9  N   UNL     1       0.098  -4.193  -0.906  0.00  0.00    -0.170 NA
BRANCH   8  10
ATOM     10  C   UNL     1       2.092  -2.692  -0.835  0.00  0.00    +0.068 A 
ATOM     11  C   UNL     1       2.656  -1.636  -1.538  0.00  0.00    +0.028 A 
ATOM     12  C   UNL     1       4.013  -1.394  -1.446  0.00  0.00    +0.002 A 
ATOM     13  C   UNL     1       4.811  -2.208  -0.663  0.00  0.00    +0.000 A 
ATOM     14  C   UNL     1       4.252  -3.264   0.035  0.00  0.00    +0.002 A 
ATOM     15  C   UNL     1       2.895  -3.508  -0.049  0.00  0.00    +0.028 A 
ENDBRANCH   8  10
ENDBRANCH   1   7
BRANCH   2  16
ATOM     16  C   UNL     1      -0.451  -0.589   1.294  0.00  0.00    +0.080 A 
ATOM     17  C   UNL     1      -1.715  -0.854   1.872  0.00  0.00    +0.073 A 
ATOM     18  N   UNL     1      -1.523  -1.456   3.013  0.00  0.00    -0.168 NA
ATOM     19  N   UNL     1      -0.149  -1.600   3.232  0.00  0.00    -0.200 N 
ATOM     20  C   UNL     1       0.510  -1.068   2.179  0.00  0.00    +0.225 A 
ATOM     21  C   UNL     1      -3.053  -0.505   1.272  0.00  0.00    +0.068 C 
BRANCH  19  22
ATOM     22  C   UNL     1       0.444  -2.194   4.354  0.00  0.00    +0.069 A 
ATOM     23  C   UNL     1       1.614  -2.930   4.215  0.00  0.00    +0.028 A 
ATOM     24  C   UNL     1       2.199  -3.510   5.323  0.00  0.00    +0.002 A 
ATOM     25  C   UNL     1       1.616  -3.368   6.569  0.00  0.00    +0.000 A 
ATOM     26  C   UNL     1       0.448  -2.641   6.709  0.00  0.00    +0.002 A 
ATOM     27  C   UNL     1      -0.139  -2.054   5.606  0.00  0.00    +0.028 A 
ENDBRANCH  19  22
BRANCH  20  28
ATOM     28  O   UNL     1       1.853  -1.013   2.015  0.00  0.00    -0.492 OA
ATOM     29  H   UNL     1       2.260  -0.212   2.374  0.00  0.00    +0.294 HD
ENDBRANCH  20  28
ENDBRANCH   2  16
TORSDOF 5
