REMARK  Name = ZINC00810566
REMARK  5 active torsions:
REMARK  status: ('A' for Active; 'I' for Inactive)
REMARK    1  A    between atoms: C_1  and  C_2
REMARK    2  A    between atoms: C_6  and  S_8
REMARK    3  A    between atoms: S_8  and  C_9
REMARK    4  A    between atoms: C_9  and  C_10
REMARK    5  A    between atoms: C_13  and  C_16
REMARK                            x       y       z     vdW  Elec       q    Type
REMARK                         _______ _______ _______ _____ _____    ______ ____
ROOT
ATOM      1  C   UNL     1      -0.018   1.503   0.010  0.00  0.00    +0.066 C 
ATOM      2  C   UNL     1       0.002  -0.004   0.002  0.00  0.00    +0.046 A 
ATOM      3  C   UNL     1       0.006  -0.699  -1.203  0.00  0.00    -0.005 A 
ATOM      4  C   UNL     1       0.028  -2.077  -1.169  0.00  0.00    +0.049 A 
ATOM      5  N   UNL     1       0.038  -2.692   0.008  0.00  0.00    -0.227 NA
ATOM      6  C   UNL     1       0.033  -2.002   1.137  0.00  0.00    +0.189 A 
ATOM      7  N   UNL     1       0.022  -0.676   1.139  0.00  0.00    -0.227 NA
ATOM      8  C   UNL     1       0.048  -2.917  -2.417  0.00  0.00    +0.056 C 
ATOM      9  C   UNL     1      -0.395  -2.091  -3.625  0.00  0.00    +0.006 C 
ATOM     10  C   UNL     1       0.423  -0.795  -3.656  0.00  0.00    +0.005 C 
ATOM     11  C   UNL     1      -0.017   0.084  -2.486  0.00  0.00    +0.039 C 
ENDROOT
BRANCH   6  12
ATOM     12  S   UNL     1       0.048  -2.865   2.674  0.00  0.00    -0.081 S 
BRANCH  12  13
ATOM     13  C   UNL     1       0.036  -1.546   3.918  0.00  0.00    +0.112 C 
BRANCH  13  14
ATOM     14  C   UNL     1       0.047  -2.155   5.297  0.00  0.00    -0.037 A 
ATOM     15  C   UNL     1      -1.148  -2.454   5.928  0.00  0.00    +0.005 A 
ATOM     16  C   UNL     1      -1.145  -3.011   7.189  0.00  0.00    +0.015 A 
ATOM     17  C   UNL     1       0.069  -3.275   7.830  0.00  0.00    +0.063 A 
ATOM     18  C   UNL     1       1.271  -2.972   7.186  0.00  0.00    +0.015 A 
ATOM     19  C   UNL     1       1.253  -2.419   5.923  0.00  0.00    +0.005 A 
BRANCH  17  20
ATOM     20  C   UNL     1       0.080  -3.871   9.180  0.00  0.00    +0.387 C 
ATOM     21  O   UNL     1      -0.974  -4.135   9.740  0.00  0.00    -0.241 OA
ATOM     22  O   UNL     1       1.143  -4.101   9.738  0.00  0.00    -0.241 OA
ENDBRANCH  17  20
ENDBRANCH  13  14
ENDBRANCH  12  13
ENDBRANCH   6  12
TORSDOF 4
