REMARK  Name = ZINC33022275
REMARK  8 active torsions:
REMARK  status: ('A' for Active; 'I' for Inactive)
REMARK    1  A    between atoms: C_1  and  C_2
REMARK    2  A    between atoms: C_5  and  N_9
REMARK    3  A    between atoms: C_10  and  C_12
REMARK    4  A    between atoms: C_12  and  S_13
REMARK    5  A    between atoms: S_13  and  C_14
REMARK    6  A    between atoms: C_18  and  C_32
REMARK    7  A    between atoms: N_24  and  C_25
REMARK    8  A    between atoms: C_25  and  C_26
REMARK                            x       y       z     vdW  Elec       q    Type
REMARK                         _______ _______ _______ _____ _____    ______ ____
ROOT
ATOM      1  C   UNL     1      -3.755   1.604   2.034  0.00  0.00    +0.173 A 
ATOM      2  N   UNL     1      -4.151   1.413   3.270  0.00  0.00    -0.221 NA
ATOM      3  C   UNL     1      -3.786   0.302   3.953  0.00  0.00    +0.097 A 
ATOM      4  C   UNL     1      -4.046  -0.168   5.255  0.00  0.00    +0.056 A 
ATOM      5  C   UNL     1      -3.411  -1.364   5.401  0.00  0.00    +0.049 A 
ATOM      6  N   UNL     1      -2.757  -1.670   4.238  0.00  0.00    -0.349 N 
ATOM      7  H   UNL     1      -2.182  -2.604   4.160  0.00  0.00    +0.166 HD
ATOM      8  C   UNL     1      -2.974  -0.654   3.329  0.00  0.00    +0.131 A 
ATOM      9  C   UNL     1      -2.565  -0.432   2.001  0.00  0.00    +0.279 A 
ATOM     10  O   UNL     1      -1.862  -1.243   1.422  0.00  0.00    -0.265 OA
ATOM     11  N   UNL     1      -2.964   0.701   1.383  0.00  0.00    -0.282 N 
ENDROOT
BRANCH   5  12
ATOM     12  C   UNL     1      -3.427  -2.200   6.621  0.00  0.00    -0.002 A 
ATOM     13  C   UNL     1      -2.740  -3.414   6.648  0.00  0.00    +0.010 A 
ATOM     14  C   UNL     1      -2.753  -4.186   7.791  0.00  0.00    +0.001 A 
ATOM     15  C   UNL     1      -3.456  -3.764   8.906  0.00  0.00    +0.000 A 
ATOM     16  C   UNL     1      -4.144  -2.564   8.884  0.00  0.00    +0.001 A 
ATOM     17  C   UNL     1      -4.133  -1.780   7.749  0.00  0.00    +0.010 A 
ENDBRANCH   5  12
BRANCH   1  18
ATOM     18  S   UNL     1      -4.258   3.067   1.189  0.00  0.00    -0.078 S 
BRANCH  18  19
ATOM     19  C   UNL     1      -5.246   3.853   2.485  0.00  0.00    +0.173 C 
BRANCH  19  21
ATOM     20  N   UNL     1      -6.567   5.925   2.772  0.00  0.00    -0.284 N 
ATOM     21  C   UNL     1      -5.796   5.160   1.974  0.00  0.00    +0.228 C 
ATOM     22  O   UNL     1      -5.543   5.524   0.845  0.00  0.00    -0.275 OA
ATOM     23  H   UNL     1      -6.857   5.562   3.769  0.00  0.00    +0.155 HD
BRANCH  20  28
ATOM     24  C   UNL     1      -8.323  11.017   0.987  0.00  0.00    +0.044 C 
ATOM     25  C   UNL     1      -7.856   9.665   1.461  0.00  0.00    -0.049 A 
ATOM     26  C   UNL     1      -7.726   8.625   0.560  0.00  0.00    +0.005 A 
ATOM     27  C   UNL     1      -7.298   7.384   0.991  0.00  0.00    +0.025 A 
ATOM     28  C   UNL     1      -7.000   7.181   2.332  0.00  0.00    +0.052 A 
ATOM     29  C   UNL     1      -7.137   8.227   3.237  0.00  0.00    +0.062 A 
ATOM     30  C   UNL     1      -7.560   9.468   2.797  0.00  0.00    +0.025 A 
ATOM     31 CL   UNL     1      -6.771   7.978   4.915  0.00  0.00    -0.082 Cl
ENDBRANCH  20  28
ENDBRANCH  19  21
ENDBRANCH  18  19
ENDBRANCH   1  18
BRANCH  11  32
ATOM     32  C   UNL     1      -2.549   0.960   0.003  0.00  0.00    +0.162 C 
BRANCH  32  33
ATOM     33  C   UNL     1      -1.248   1.722   0.004  0.00  0.00    -0.028 A 
ATOM     34  C   UNL     1      -0.047   1.039  -0.008  0.00  0.00    +0.005 A 
ATOM     35  C   UNL     1       1.146   1.738  -0.013  0.00  0.00    +0.000 A 
ATOM     36  C   UNL     1       1.137   3.120  -0.001  0.00  0.00    +0.000 A 
ATOM     37  C   UNL     1      -0.065   3.804   0.016  0.00  0.00    +0.000 A 
ATOM     38  C   UNL     1      -1.257   3.105   0.021  0.00  0.00    +0.005 A 
ENDBRANCH  32  33
ENDBRANCH  11  32
TORSDOF 7
