REMARK  Name = ZINC63308275
REMARK  8 active torsions:
REMARK  status: ('A' for Active; 'I' for Inactive)
REMARK    1  A    between atoms: C_1  and  C_2
REMARK    2  A    between atoms: C_5  and  N_8
REMARK    3  A    between atoms: C_9  and  N_11
REMARK    4  A    between atoms: N_13  and  C_14
REMARK    5  A    between atoms: C_14  and  C_15
REMARK    6  A    between atoms: C_15  and  C_16
REMARK    7  A    between atoms: C_28  and  C_33
REMARK    8  A    between atoms: C_30  and  C_32
REMARK                            x       y       z     vdW  Elec       q    Type
REMARK                         _______ _______ _______ _____ _____    ______ ____
ROOT
ATOM      1  N   UNL     1       0.546  -6.169   1.074  0.00  0.00    -0.129 NA
ATOM      2  C   UNL     1       0.553  -6.867   2.197  0.00  0.00    +0.198 C 
ATOM      3  N   UNL     1       0.445  -6.228   3.398  0.00  0.00    -0.357 N 
ATOM      4  N   UNL     1       0.669  -8.229   2.156  0.00  0.00    -0.297 N 
ATOM      5  C   UNL     1       0.890  -8.870   0.944  0.00  0.00    +0.231 A 
ATOM      6  N   UNL     1       1.098  -8.143  -0.143  0.00  0.00    -0.217 NA
ATOM      7  C   UNL     1       1.313  -8.722  -1.313  0.00  0.00    +0.044 A 
ATOM      8  C   UNL     1       1.318 -10.106  -1.392  0.00  0.00    +0.046 A 
ATOM      9  C   UNL     1       1.097 -10.836  -0.234  0.00  0.00    +0.044 A 
ATOM     10  N   UNL     1       0.894 -10.194   0.904  0.00  0.00    -0.217 NA
ATOM     11  C   UNL     1       1.094 -12.343  -0.271  0.00  0.00    +0.066 C 
ATOM     12  C   UNL     1       1.548  -7.887  -2.546  0.00  0.00    +0.066 C 
ATOM     13  H   UNL     1       0.276  -5.273   3.426  0.00  0.00    +0.162 HD
ATOM     14  H   UNL     1       0.596  -8.748   2.972  0.00  0.00    +0.171 HD
ENDROOT
BRANCH   1  16
ATOM     15  N   UNL     1       0.201  -4.156  -0.044  0.00  0.00    -0.268 N 
ATOM     16  C   UNL     1       0.317  -4.848   1.107  0.00  0.00    +0.330 C 
ATOM     17  O   UNL     1       0.214  -4.274   2.176  0.00  0.00    -0.250 OA
ATOM     18  H   UNL     1       0.210  -4.623  -0.894  0.00  0.00    +0.156 HD
BRANCH  15  23
ATOM     19  C   UNL     1      -0.340   1.490   0.087  0.00  0.00    +0.044 C 
ATOM     20  C   UNL     1      -0.196  -0.010   0.052  0.00  0.00    -0.050 A 
ATOM     21  C   UNL     1      -0.729  -0.730  -1.001  0.00  0.00    +0.005 A 
ATOM     22  C   UNL     1      -0.599  -2.105  -1.036  0.00  0.00    +0.023 A 
ATOM     23  C   UNL     1       0.068  -2.764  -0.012  0.00  0.00    +0.035 A 
ATOM     24  C   UNL     1       0.603  -2.038   1.045  0.00  0.00    +0.023 A 
ATOM     25  C   UNL     1       0.473  -0.663   1.071  0.00  0.00    +0.005 A 
ENDBRANCH  15  23
ENDBRANCH   1  16
BRANCH   3  26
ATOM     26  C   UNL     1       0.583  -6.984   4.645  0.00  0.00    +0.120 C 
BRANCH  26  27
ATOM     27  C   UNL     1       0.299  -6.064   5.834  0.00  0.00    +0.054 C 
BRANCH  27  28
ATOM     28  C   UNL     1       0.560  -6.807   7.118  0.00  0.00    -0.040 C 
ATOM     29  C   UNL     1       1.701  -6.800   7.845  0.00  0.00    -0.001 A 
ATOM     30  C   UNL     1       2.991  -6.125   7.663  0.00  0.00    +0.010 A 
ATOM     31  C   UNL     1       3.967  -6.317   8.580  0.00  0.00    +0.001 A 
ATOM     32  C   UNL     1       3.777  -7.142   9.697  0.00  0.00    +0.002 A 
ATOM     33  C   UNL     1       2.619  -7.796   9.932  0.00  0.00    +0.026 A 
ATOM     34  C   UNL     1       1.525  -7.666   9.033  0.00  0.00    +0.043 A 
ATOM     35  N   UNL     1       0.323  -8.188   9.040  0.00  0.00    -0.380 N 
ATOM     36  C   UNL     1      -0.404  -7.707   7.860  0.00  0.00    +0.144 C 
ATOM     37  H   UNL     1      -0.030  -8.789   9.715  0.00  0.00    +0.160 HD
ENDBRANCH  27  28
ENDBRANCH  26  27
ENDBRANCH   3  26
TORSDOF 5
