REMARK  Name = ZINC34759779
REMARK  12 active torsions:
REMARK  status: ('A' for Active; 'I' for Inactive)
REMARK    1  A    between atoms: C_1  and  C_2
REMARK    2  A    between atoms: C_2  and  N_3
REMARK    3  A    between atoms: N_3  and  C_4
REMARK    4  A    between atoms: C_4  and  C_5
REMARK    5  A    between atoms: C_6  and  C_8
REMARK    6  A    between atoms: C_8  and  S_9
REMARK    7  A    between atoms: S_9  and  C_10
REMARK    8  A    between atoms: C_14  and  C_20
REMARK    9  A    between atoms: C_15  and  C_19
REMARK   10  A    between atoms: N_24  and  C_27
REMARK   11  A    between atoms: C_27  and  C_28
REMARK   12  A    between atoms: N_30  and  C_31
REMARK                            x       y       z     vdW  Elec       q    Type
REMARK                         _______ _______ _______ _____ _____    ______ ____
ROOT
ATOM      1  C   UNL     1      -1.165   0.847   5.651  0.00  0.00    +0.191 A 
ATOM      2  N   UNL     1      -1.743   0.582   6.817  0.00  0.00    -0.206 NA
ATOM      3  C   UNL     1      -1.664  -0.609   7.386  0.00  0.00    +0.134 A 
ATOM      4  C   UNL     1      -0.939  -1.645   6.734  0.00  0.00    +0.051 A 
ATOM      5  C   UNL     1      -0.711  -3.019   7.149  0.00  0.00    -0.028 A 
ATOM      6  C   UNL     1       0.013  -3.829   6.363  0.00  0.00    -0.008 A 
ATOM      7  S   UNL     1       0.450  -2.788   4.983  0.00  0.00    -0.073 S 
ATOM      8  C   UNL     1      -0.352  -1.293   5.500  0.00  0.00    +0.115 A 
ATOM      9  N   UNL     1      -0.481  -0.081   4.995  0.00  0.00    -0.214 NA
ATOM     10  C   UNL     1       0.373  -5.274   6.592  0.00  0.00    +0.052 C 
ATOM     11  C   UNL     1      -1.281  -3.528   8.448  0.00  0.00    +0.045 C 
ATOM     12  N   UNL     1      -2.279  -0.844   8.602  0.00  0.00    -0.318 N 
ATOM     13  C   UNL     1      -1.625  -0.471   9.865  0.00  0.00    +0.088 C 
ATOM     14  C   UNL     1      -2.619   0.338  10.706  0.00  0.00    -0.059 C 
ATOM     15  N   UNL     1      -3.859  -0.431  10.870  0.00  0.00    +0.387 N 
ATOM     16  C   UNL     1      -4.507  -0.619   9.565  0.00  0.00    -0.059 C 
ATOM     17  C   UNL     1      -3.609  -1.469   8.668  0.00  0.00    +0.088 C 
ATOM     18  H   UNL     1      -3.645  -1.332  11.270  0.00  0.00    -0.081 HD
ENDROOT
BRANCH   1  19
ATOM     19  S   UNL     1      -1.316   2.460   4.958  0.00  0.00    -0.077 S 
BRANCH  19  20
ATOM     20  C   UNL     1      -0.397   2.355   3.397  0.00  0.00    +0.173 C 
BRANCH  20  22
ATOM     21  N   UNL     1       0.171   3.846   1.507  0.00  0.00    -0.301 N 
ATOM     22  C   UNL     1      -0.447   3.687   2.694  0.00  0.00    +0.226 C 
ATOM     23  O   UNL     1      -1.044   4.615   3.196  0.00  0.00    -0.275 OA
BRANCH  21  25
ATOM     24  C   UNL     1       2.348   2.739   1.371  0.00  0.00    +0.024 C 
ATOM     25  C   UNL     1       0.892   2.724   0.900  0.00  0.00    +0.104 C 
ENDBRANCH  21  25
BRANCH  21  26
ATOM     26  C   UNL     1       0.122   5.140   0.823  0.00  0.00    +0.104 C 
ATOM     27  C   UNL     1      -1.099   5.185  -0.097  0.00  0.00    +0.024 C 
ENDBRANCH  21  26
ENDBRANCH  20  22
ENDBRANCH  19  20
ENDBRANCH   1  19
BRANCH  15  28
ATOM     28  C   UNL     1      -4.769   0.296  11.766  0.00  0.00    +0.019 C 
BRANCH  28  29
ATOM     29  C   UNL     1      -5.989  -0.546  12.033  0.00  0.00    +0.197 C 
ATOM     30  O   UNL     1      -6.092  -1.643  11.527  0.00  0.00    -0.278 OA
ATOM     31  N   UNL     1      -6.968  -0.080  12.834  0.00  0.00    -0.314 N 
ATOM     32  H   UNL     1      -6.886   0.798  13.239  0.00  0.00    +0.149 HD
BRANCH  31  33
ATOM     33  C   UNL     1      -8.155  -0.898  13.094  0.00  0.00    +0.073 C 
ATOM     34  C   UNL     1      -9.174  -0.688  11.973  0.00  0.00    +0.022 C 
ATOM     35  C   UNL     1     -10.414  -1.543  12.244  0.00  0.00    +0.002 C 
ATOM     36  C   UNL     1     -11.034  -1.132  13.581  0.00  0.00    +0.000 C 
ATOM     37  C   UNL     1     -10.014  -1.343  14.702  0.00  0.00    +0.002 C 
ATOM     38  C   UNL     1      -8.775  -0.488  14.431  0.00  0.00    +0.022 C 
ENDBRANCH  31  33
ENDBRANCH  28  29
ENDBRANCH  15  28
TORSDOF 8
