REMARK  Name = ZINC05244305
REMARK  5 active torsions:
REMARK  status: ('A' for Active; 'I' for Inactive)
REMARK    1  A    between atoms: C_1  and  C_2
REMARK    2  A    between atoms: C_5  and  C_8
REMARK    3  A    between atoms: C_11  and  C_13
REMARK    4  A    between atoms: C_11  and  O_17
REMARK    5  A    between atoms: C_20  and  C_23
REMARK                            x       y       z     vdW  Elec       q    Type
REMARK                         _______ _______ _______ _____ _____    ______ ____
ROOT
ATOM      1  C   UNK     1      -0.842   7.238   0.046  0.00  0.00    +0.071 C 
ATOM      2  N   UNK     1      -0.164   6.143   0.040  0.00  0.00    -0.179 NA
ATOM      3  N   UNK     1      -0.945   4.989   0.036  0.00  0.00    -0.160 N 
ATOM      4  C   UNK     1      -2.365   5.376   0.051  0.00  0.00    +0.256 C 
ATOM      5  C   UNK     1      -2.320   6.917   0.058  0.00  0.00    +0.124 C 
ATOM      6  C   UNK     1      -0.465   3.691   0.025  0.00  0.00    +0.184 A 
ATOM      7  N   UNK     1       0.783   3.267   0.011  0.00  0.00    -0.217 NA
ATOM      8  C   UNK     1       1.038   1.956   0.003  0.00  0.00    +0.161 A 
ATOM      9  C   UNK     1      -0.013   1.076   0.008  0.00  0.00    +0.083 A 
ATOM     10  S   UNK     1      -1.373   2.154   0.019  0.00  0.00    -0.058 S 
ENDROOT
BRANCH   1  15
ATOM     11  C   UNK     1       1.403  12.533   0.052  0.00  0.00    +0.044 C 
ATOM     12  C   UNK     1       0.815  11.146   0.050  0.00  0.00    -0.050 A 
ATOM     13  C   UNK     1       1.651  10.043   0.036  0.00  0.00    +0.004 A 
ATOM     14  C   UNK     1       1.120   8.770   0.035  0.00  0.00    +0.010 A 
ATOM     15  C   UNK     1      -0.267   8.596   0.047  0.00  0.00    -0.002 A 
ATOM     16  C   UNK     1      -1.105   9.714   0.054  0.00  0.00    +0.010 A 
ATOM     17  C   UNK     1      -0.559  10.980   0.061  0.00  0.00    +0.004 A 
ENDBRANCH   1  15
BRANCH   4  18
ATOM     18  C   UNK     1      -3.053   4.849   1.311  0.00  0.00    +0.438 C 
ATOM     19  F   UNK     1      -2.406   5.355   2.443  0.00  0.00    -0.166 F 
ATOM     20  F   UNK     1      -4.391   5.258   1.317  0.00  0.00    -0.166 F 
ATOM     21  F   UNK     1      -2.993   3.451   1.325  0.00  0.00    -0.166 F 
ENDBRANCH   4  18
BRANCH   8  22
ATOM     22  C   UNK     1       2.424   1.465  -0.012  0.00  0.00    +0.405 C 
ATOM     23  O   UNK     1       2.644   0.269  -0.020  0.00  0.00    -0.239 OA
ATOM     24  O   UNK     1       3.449   2.340  -0.017  0.00  0.00    -0.239 OA
ENDBRANCH   8  22
BRANCH   4  25
ATOM     25  O   UNK     1      -3.029   4.898  -1.121  0.00  0.00    -0.363 OA
ATOM     26  H   UNK     1      -3.026   3.935  -1.209  0.00  0.00    +0.212 HD
ENDBRANCH   4  25
TORSDOF 4
