REMARK  Name = ZINC28823566
REMARK  8 active torsions:
REMARK  status: ('A' for Active; 'I' for Inactive)
REMARK    1  A    between atoms: C_1  and  C_2
REMARK    2  A    between atoms: C_6  and  C_8
REMARK    3  A    between atoms: C_18  and  C_24
REMARK    4  A    between atoms: C_20  and  C_22
REMARK    5  A    between atoms: C_20  and  C_23
REMARK    6  A    between atoms: C_29  and  O_33
REMARK    7  A    between atoms: C_30  and  O_31
REMARK    8  A    between atoms: O_31  and  C_32
REMARK                            x       y       z     vdW  Elec       q    Type
REMARK                         _______ _______ _______ _____ _____    ______ ____
ROOT
ATOM      1  C   UNL     1      -2.429   5.157  -0.107  0.00  0.00    +0.074 C 
ATOM      2  C   UNL     1      -2.451   3.846   0.249  0.00  0.00    +0.135 C 
ATOM      3  C   UNL     1      -1.292   3.113   0.494  0.00  0.00    +0.009 C 
ATOM      4  C   UNL     1      -1.271   1.813  -0.011  0.00  0.00    -0.004 C 
ATOM      5  C   UNL     1      -0.014   1.058   0.026  0.00  0.00    +0.003 C 
ATOM      6  C   UNL     1       1.154   1.725   0.027  0.00  0.00    -0.041 C 
ATOM      7  C   UNL     1       1.084   3.229   0.117  0.00  0.00    -0.035 C 
ATOM      8  C   UNL     1      -0.020   3.551   1.138  0.00  0.00    +0.038 C 
ATOM      9  C   UNL     1       0.081   4.938   1.649  0.00  0.00    -0.072 C 
ATOM     10  C   UNL     1       1.075   5.730   1.346  0.00  0.00    -0.040 C 
ATOM     11  C   UNL     1       2.239   5.311   0.499  0.00  0.00    -0.054 C 
ATOM     12  N   UNL     1       2.345   3.845   0.479  0.00  0.00    +0.389 N 
ATOM     13  C   UNL     1       3.522   5.890   1.105  0.00  0.00    -0.006 C 
ATOM     14  C   UNL     1       2.072   5.854  -0.917  0.00  0.00    -0.006 C 
ATOM     15  C   UNL     1      -0.973   5.484   2.588  0.00  0.00    +0.039 C 
ATOM     16  C   UNL     1      -2.526   1.270  -0.552  0.00  0.00    +0.070 A 
ATOM     17  C   UNL     1      -3.712   2.006  -0.363  0.00  0.00    +0.140 A 
ATOM     18  C   UNL     1      -4.919   1.514  -0.826  0.00  0.00    +0.051 A 
ATOM     19  C   UNL     1      -4.966   0.302  -1.489  0.00  0.00    +0.053 A 
ATOM     20  C   UNL     1      -3.804  -0.420  -1.706  0.00  0.00    +0.159 A 
ATOM     21  C   UNL     1      -2.582   0.059  -1.244  0.00  0.00    +0.172 A 
ATOM     22  O   UNL     1      -3.658   3.215   0.257  0.00  0.00    -0.455 OA
ATOM     23  H   UNL     1       2.646   3.503   1.480  0.00  0.00    -0.084 HD
ATOM     24  H   UNL     1       3.116   3.561  -0.252  0.00  0.00    -0.084 HD
ENDROOT
BRANCH   1  30
ATOM     25  C   UNL     1      -7.283   5.076  -0.274  0.00  0.00    +0.065 C 
ATOM     26  C   UNL     1      -5.995   5.843  -0.433  0.00  0.00    +0.039 A 
ATOM     27  C   UNL     1      -6.036   7.175  -0.797  0.00  0.00    +0.023 A 
ATOM     28  C   UNL     1      -4.848   7.882  -0.943  0.00  0.00    +0.004 A 
ATOM     29  C   UNL     1      -3.655   7.224  -0.717  0.00  0.00    +0.028 A 
ATOM     30  C   UNL     1      -3.684   5.872  -0.350  0.00  0.00    +0.068 A 
ATOM     31  N   UNL     1      -4.846   5.231  -0.226  0.00  0.00    -0.252 NA
ENDBRANCH   1  30
BRANCH  21  32
ATOM     32  O   UNL     1      -1.460  -0.671  -1.480  0.00  0.00    -0.491 OA
ATOM     33  C   UNL     1      -0.819  -0.485  -2.743  0.00  0.00    +0.277 C 
ENDBRANCH  21  32
BRANCH  20  34
ATOM     34  O   UNL     1      -3.854  -1.605  -2.375  0.00  0.00    -0.503 OA
ATOM     35  H   UNL     1      -2.932  -2.179  -2.547  0.00  0.00    +0.292 HD
ENDBRANCH  20  34
TORSDOF 3
