REMARK  Name = ZINC35355958
REMARK  3 active torsions:
REMARK  status: ('A' for Active; 'I' for Inactive)
REMARK    1  A    between atoms: C_6  and  N_7
REMARK    2  A    between atoms: N_7  and  C_8
REMARK    3  A    between atoms: C_13  and  N_14
REMARK                            x       y       z     vdW  Elec       q    Type
REMARK                         _______ _______ _______ _____ _____    ______ ____
ROOT
ATOM      1  C   UNL     1      -1.180  -2.116  -0.103  0.00  0.00    +0.054 A 
ATOM      2  C   UNL     1       0.028  -2.796  -0.114  0.00  0.00    +0.048 A 
ATOM      3  C   UNL     1       0.043  -4.180  -0.226  0.00  0.00    +0.038 A 
ATOM      4  C   UNL     1      -1.151  -4.882  -0.328  0.00  0.00    -0.024 A 
ATOM      5  C   UNL     1      -2.357  -4.205  -0.318  0.00  0.00    +0.030 A 
ATOM      6  C   UNL     1      -2.377  -2.824  -0.200  0.00  0.00    +0.046 A 
ATOM      7  C   UNL     1      -1.130  -6.384  -0.448  0.00  0.00    +0.046 C 
ATOM      8  C   UNL     1       0.101  -6.815  -1.246  0.00  0.00    +0.101 C 
ATOM      9  C   UNL     1       1.328  -6.129  -0.706  0.00  0.00    +0.218 C 
ATOM     10  O   UNL     1       2.388  -6.718  -0.696  0.00  0.00    -0.275 OA
ATOM     11  N   UNL     1       1.261  -4.870  -0.236  0.00  0.00    -0.285 N 
ATOM     12  H   UNL     1       2.063  -4.438   0.098  0.00  0.00    +0.155 HD
ENDROOT
BRANCH   6  13
ATOM     13  N   UNL     1      -3.601  -2.140  -0.184  0.00  0.00    -0.357 N 
ATOM     14  H   UNL     1      -3.615  -1.173  -0.106  0.00  0.00    +0.142 HD
ATOM     15  H   UNL     1      -4.433  -2.633  -0.252  0.00  0.00    +0.142 HD
ENDBRANCH   6  13
BRANCH   1  16
ATOM     16  N   UNL     1      -1.198  -0.721   0.010  0.00  0.00    -0.313 N 
ATOM     17  H   UNL     1      -2.031  -0.236  -0.094  0.00  0.00    +0.152 HD
BRANCH  16  23
ATOM     18  C   UNL     1       0.265   1.155  -0.403  0.00  0.00    +0.024 A 
ATOM     19  C   UNL     1       1.435   1.840  -0.140  0.00  0.00    +0.017 A 
ATOM     20  C   UNL     1       2.330   1.350   0.794  0.00  0.00    +0.018 A 
ATOM     21  C   UNL     1       2.055   0.174   1.469  0.00  0.00    +0.017 A 
ATOM     22  C   UNL     1       0.887  -0.515   1.211  0.00  0.00    +0.024 A 
ATOM     23  C   UNL     1      -0.014  -0.026   0.273  0.00  0.00    +0.031 A 
ATOM     24 BR   UNL     1       3.931   2.290   1.151  0.00  0.00    -0.050 Br
ENDBRANCH  16  23
ENDBRANCH   1  16
TORSDOF 3
