REMARK  Name = ZINC02793790
REMARK  15 active torsions:
REMARK  status: ('A' for Active; 'I' for Inactive)
REMARK    1  A    between atoms: C_1  and  C_2
REMARK    2  A    between atoms: C_2  and  C_3
REMARK    3  A    between atoms: C_2  and  C_4
REMARK    4  A    between atoms: C_7  and  C_10
REMARK    5  A    between atoms: C_13  and  C_34
REMARK    6  A    between atoms: C_18  and  C_20
REMARK    7  A    between atoms: N_22  and  N_23
REMARK    8  A    between atoms: N_23  and  C_24
REMARK    9  A    between atoms: C_24  and  N_26
REMARK   10  A    between atoms: N_26  and  C_27
REMARK   11  A    between atoms: C_27  and  C_28
REMARK   12  A    between atoms: C_28  and  C_29
REMARK   13  A    between atoms: C_29  and  N_30
REMARK   14  A    between atoms: N_30  and  C_31
REMARK   15  A    between atoms: N_30  and  C_32
REMARK                            x       y       z     vdW  Elec       q    Type
REMARK                         _______ _______ _______ _____ _____    ______ ____
ROOT
ATOM      1  C   UNL     1      -3.426   2.574  -0.245  0.00  0.00    +0.104 C 
ATOM      2  C   UNL     1      -2.997   3.820   0.538  0.00  0.00    +0.063 C 
ATOM      3  C   UNL     1      -1.627   4.300   0.046  0.00  0.00    +0.215 C 
ATOM      4  N   UNL     1      -0.705   3.161   0.027  0.00  0.00    -0.238 N 
ATOM      5  C   UNL     1      -1.111   1.857   0.017  0.00  0.00    +0.119 A 
ATOM      6  C   UNL     1      -0.013   1.076   0.008  0.00  0.00    +0.078 A 
ATOM      7  C   UNL     1       1.116   1.926   0.002  0.00  0.00    +0.150 A 
ATOM      8  N   UNL     1       0.690   3.177   0.013  0.00  0.00    -0.164 NA
ATOM      9  N   UNL     1      -2.460   1.492   0.029  0.00  0.00    -0.322 N 
ATOM     10  H   UNL     1      -2.819   0.471   0.227  0.00  0.00    +0.148 HD
ENDROOT
BRANCH   1  14
ATOM     11  C   UNL     1      -7.327   1.365   1.005  0.00  0.00    -0.045 A 
ATOM     12  C   UNL     1      -7.169   2.088  -0.162  0.00  0.00    +0.004 A 
ATOM     13  C   UNL     1      -5.906   2.480  -0.566  0.00  0.00    +0.006 A 
ATOM     14  C   UNL     1      -4.802   2.147   0.196  0.00  0.00    -0.027 A 
ATOM     15  C   UNL     1      -4.960   1.419   1.360  0.00  0.00    +0.006 A 
ATOM     16  C   UNL     1      -6.223   1.032   1.768  0.00  0.00    +0.004 A 
BRANCH  11  18
ATOM     17  C   UNL     1      -8.761  -0.588   1.534  0.00  0.00    +0.012 C 
ATOM     18  C   UNL     1      -8.704   0.938   1.447  0.00  0.00    +0.013 C 
ATOM     19  C   UNL     1      -9.008   1.540   2.820  0.00  0.00    +0.012 C 
ENDBRANCH  11  18
ENDBRANCH   1  14
BRANCH   7  20
ATOM     20  C   UNL     1       2.528   1.492  -0.014  0.00  0.00    +0.280 C 
ATOM     21  O   UNL     1       2.800   0.307  -0.023  0.00  0.00    -0.267 OA
ATOM     22  N   UNL     1       3.515   2.410  -0.019  0.00  0.00    -0.230 N 
ATOM     23  H   UNL     1       3.269   3.482  -0.010  0.00  0.00    +0.173 HD
BRANCH  22  24
ATOM     24  N   UNL     1       4.854   1.998  -0.034  0.00  0.00    -0.246 N 
ATOM     25  H   UNL     1       5.100   0.926  -0.042  0.00  0.00    +0.172 HD
BRANCH  24  26
ATOM     26  C   UNL     1       5.841   2.916  -0.038  0.00  0.00    +0.147 C 
ATOM     27  S   UNL     1       7.478   2.413  -0.057  0.00  0.00    -0.017 S 
BRANCH  26  28
ATOM     28  N   UNL     1       5.540   4.230  -0.028  0.00  0.00    -0.326 N 
ATOM     29  H   UNL     1       4.489   4.553  -0.016  0.00  0.00    +0.148 HD
BRANCH  28  30
ATOM     30  C   UNL     1       6.613   5.227  -0.033  0.00  0.00    +0.101 C 
BRANCH  30  31
ATOM     31  C   UNL     1       6.004   6.631  -0.020  0.00  0.00    +0.000 C 
BRANCH  31  32
ATOM     32  C   UNL     1       7.125   7.673  -0.025  0.00  0.00    -0.078 C 
BRANCH  32  33
ATOM     33  N   UNL     1       6.540   9.021  -0.012  0.00  0.00    +0.376 N 
ATOM     34  C   UNL     1       7.572  10.040   0.222  0.00  0.00    -0.097 C 
ATOM     35  C   UNL     1       5.808   9.289  -1.257  0.00  0.00    -0.097 C 
ATOM     36  H   UNL     1       5.822   9.070   0.820  0.00  0.00    -0.083 HD
ENDBRANCH  32  33
ENDBRANCH  31  32
ENDBRANCH  30  31
ENDBRANCH  28  30
ENDBRANCH  26  28
ENDBRANCH  24  26
ENDBRANCH  22  24
ENDBRANCH   7  20
BRANCH   3  37
ATOM     37  C   UNL     1      -1.092   5.378   0.991  0.00  0.00    +0.412 C 
ATOM     38  F   UNL     1       0.164   5.804   0.548  0.00  0.00    -0.168 F 
ATOM     39  F   UNL     1      -1.974   6.463   1.007  0.00  0.00    -0.168 F 
ATOM     40  F   UNL     1      -0.977   4.851   2.282  0.00  0.00    -0.168 F 
ENDBRANCH   3  37
TORSDOF 11
