REMARK  Name = ZINC09579739
REMARK  7 active torsions:
REMARK  status: ('A' for Active; 'I' for Inactive)
REMARK    1  A    between atoms: C_7  and  C_11
REMARK    2  A    between atoms: C_11  and  C_12
REMARK    3  A    between atoms: C_12  and  N_13
REMARK    4  A    between atoms: C_14  and  C_16
REMARK    5  A    between atoms: C_16  and  N_53
REMARK    6  A    between atoms: N_19  and  S_22
REMARK    7  A    between atoms: S_22  and  C_25
REMARK                            x       y       z     vdW  Elec       q    Type
REMARK                         _______ _______ _______ _____ _____    ______ ____
ROOT
ATOM      1  N   UNL     1      -0.571   3.897  -7.767  0.00  0.00    -0.317 N 
ATOM      2  C   UNL     1      -0.994   3.982  -6.490  0.00  0.00    +0.196 C 
ATOM      3  O   UNL     1      -1.196   5.068  -5.990  0.00  0.00    -0.278 OA
ATOM      4  H   UNL     1      -0.409   3.029  -8.168  0.00  0.00    +0.149 HD
ENDROOT
BRANCH   1   5
ATOM      5  C   UNL     1      -0.355   5.116  -8.550  0.00  0.00    +0.109 C 
BRANCH   5   6
ATOM      6  C   UNL     1       0.121   4.743  -9.955  0.00  0.00    +0.056 C 
BRANCH   6  13
ATOM      7  C   UNL     1       3.744   7.688 -10.370  0.00  0.00    +0.001 A 
ATOM      8  C   UNL     1       3.494   8.733 -11.249  0.00  0.00    +0.002 A 
ATOM      9  C   UNL     1       2.283   8.831 -11.897  0.00  0.00    +0.026 A 
ATOM     10  C   UNL     1       1.298   7.874 -11.670  0.00  0.00    +0.047 A 
ATOM     11  C   UNL     1       1.557   6.817 -10.779  0.00  0.00    +0.003 A 
ATOM     12  C   UNL     1       2.792   6.737 -10.132  0.00  0.00    +0.010 A 
ATOM     13  C   UNL     1       0.343   5.997 -10.761  0.00  0.00    -0.021 A 
ATOM     14  C   UNL     1      -0.531   6.571 -11.602  0.00  0.00    +0.087 A 
ATOM     15  N   UNL     1       0.020   7.697 -12.150  0.00  0.00    -0.360 N 
ATOM     16  H   UNL     1      -0.423   8.281 -12.786  0.00  0.00    +0.165 HD
ENDBRANCH   6  13
ENDBRANCH   5   6
ENDBRANCH   1   5
BRANCH   2  17
ATOM     17  C   UNL     1      -1.216   2.728  -5.685  0.00  0.00    +0.019 C 
BRANCH  17  23
ATOM     18  C   UNL     1      -2.126   1.899  -3.600  0.00  0.00    -0.061 C 
ATOM     19  C   UNL     1      -2.759   2.334  -2.274  0.00  0.00    +0.091 C 
ATOM     20  N   UNL     1      -1.799   3.183  -1.554  0.00  0.00    -0.180 NA
ATOM     21  C   UNL     1      -1.201   4.320  -2.270  0.00  0.00    +0.091 C 
ATOM     22  C   UNL     1      -0.624   3.803  -3.598  0.00  0.00    -0.061 C 
ATOM     23  N   UNL     1      -1.697   3.105  -4.340  0.00  0.00    +0.387 N 
ATOM     24  H   UNL     1      -2.499   3.738  -4.438  0.00  0.00    -0.081 HD
BRANCH  20  25
ATOM     25  S   UNL     1      -1.406   2.872   0.025  0.00  0.00    +0.067 S 
ATOM     26  O   UNL     1      -2.493   2.143   0.578  0.00  0.00    -0.152 OA
ATOM     27  O   UNL     1      -0.951   4.098   0.579  0.00  0.00    -0.152 OA
BRANCH  25  28
ATOM     28  C   UNL     1      -0.022   1.781   0.012  0.00  0.00    +0.143 A 
ATOM     29  C   UNL     1       1.300   2.079   0.001  0.00  0.00    +0.036 A 
ATOM     30  C   UNL     1       2.220   1.048  -0.013  0.00  0.00    +0.010 A 
ATOM     31  C   UNL     1       1.773  -0.232  -0.016  0.00  0.00    +0.047 A 
ATOM     32  S   UNL     1       0.002  -0.004   0.002  0.00  0.00    -0.077 S 
ENDBRANCH  25  28
ENDBRANCH  20  25
ENDBRANCH  17  23
ENDBRANCH   2  17
TORSDOF 7
