REMARK  Name = ZINC33937815
REMARK  6 active torsions:
REMARK  status: ('A' for Active; 'I' for Inactive)
REMARK    1  A    between atoms: C_1  and  C_2
REMARK    2  A    between atoms: C_2  and  O_4
REMARK    3  A    between atoms: O_4  and  C_5
REMARK    4  A    between atoms: C_9  and  C_32
REMARK    5  A    between atoms: C_14  and  C_31
REMARK    6  A    between atoms: N_26  and  N_27
REMARK                            x       y       z     vdW  Elec       q    Type
REMARK                         _______ _______ _______ _____ _____    ______ ____
ROOT
ATOM      1  C   UNL     1      -2.784  -1.535   0.161  0.00  0.00    +0.180 C 
ATOM      2  C   UNL     1      -3.822  -2.429   0.835  0.00  0.00    +0.046 C 
ATOM      3  C   UNL     1      -3.318  -3.859   0.998  0.00  0.00    +0.015 C 
ATOM      4  C   UNL     1      -2.733  -4.375  -0.325  0.00  0.00    -0.008 C 
ATOM      5  C   UNL     1      -3.206  -5.784  -0.593  0.00  0.00    +0.003 C 
ATOM      6  C   UNL     1      -2.320  -6.617  -1.501  0.00  0.00    +0.005 C 
ATOM      7  C   UNL     1      -2.818  -8.075  -1.559  0.00  0.00    +0.013 C 
ATOM      8  C   UNL     1      -4.243  -8.119  -2.040  0.00  0.00    +0.011 C 
ATOM      9  C   UNL     1      -5.129  -7.160  -1.224  0.00  0.00    +0.005 C 
ATOM     10  C   UNL     1      -4.640  -5.746  -1.180  0.00  0.00    +0.001 C 
ATOM     11  C   UNL     1      -4.586  -5.041  -2.529  0.00  0.00    +0.031 C 
ATOM     12  C   UNL     1      -3.967  -3.678  -2.356  0.00  0.00    -0.027 C 
ATOM     13  C   UNL     1      -3.151  -3.396  -1.393  0.00  0.00    -0.064 C 
ATOM     14  C   UNL     1      -2.583  -1.990  -1.292  0.00  0.00    +0.075 C 
ATOM     15  C   UNL     1      -6.513  -7.465  -1.810  0.00  0.00    +0.010 C 
ATOM     16  C   UNL     1      -6.464  -9.018  -1.933  0.00  0.00    +0.053 C 
ATOM     17  C   UNL     1      -4.995  -9.418  -1.794  0.00  0.00    +0.043 C 
ATOM     18  N   UNL     1      -4.499 -10.558  -1.536  0.00  0.00    -0.187 NA
ATOM     19  C   UNL     1      -4.306  -7.893  -3.549  0.00  0.00    +0.018 C 
ATOM     20  C   UNL     1      -1.212  -4.349  -0.197  0.00  0.00    +0.016 C 
ENDROOT
BRANCH  18  21
ATOM     21  N   UNL     1      -5.341 -11.659  -1.335  0.00  0.00    -0.191 N 
ATOM     22  C   UNL     1      -4.814 -12.869  -1.061  0.00  0.00    +0.317 C 
ATOM     23  O   UNL     1      -5.545 -13.825  -0.886  0.00  0.00    -0.251 OA
ATOM     24  N   UNL     1      -3.477 -13.019  -0.980  0.00  0.00    -0.312 N 
ATOM     25  H   UNL     1      -6.303 -11.551  -1.393  0.00  0.00    +0.179 HD
ATOM     26  H   UNL     1      -2.894 -12.257  -1.119  0.00  0.00    +0.147 HD
ATOM     27  H   UNL     1      -3.098 -13.890  -0.783  0.00  0.00    +0.147 HD
ENDBRANCH  18  21
BRANCH   1  28
ATOM     28  O   UNL     1      -3.242  -0.180   0.174  0.00  0.00    -0.461 OA
BRANCH  28  30
ATOM     29  C   UNL     1      -2.712   2.231   0.233  0.00  0.00    +0.136 C 
ATOM     30  C   UNL     1      -2.304   0.780   0.217  0.00  0.00    +0.304 C 
ATOM     31  O   UNL     1      -1.134   0.481   0.242  0.00  0.00    -0.251 OA
ENDBRANCH  28  30
ENDBRANCH   1  28
TORSDOF 3
