REMARK  Name = ZINC39462952
REMARK  5 active torsions:
REMARK  status: ('A' for Active; 'I' for Inactive)
REMARK    1  A    between atoms: C_4  and  O_7
REMARK    2  A    between atoms: O_7  and  S_8
REMARK    3  A    between atoms: S_8  and  C_11
REMARK    4  A    between atoms: C_16  and  C_21
REMARK    5  A    between atoms: C_26  and  O_27
REMARK                            x       y       z     vdW  Elec       q    Type
REMARK                         _______ _______ _______ _____ _____    ______ ____
ROOT
ATOM      1  C   UNL     1       3.192  -2.273   2.002  0.00  0.00    +0.222 A 
ATOM      2  C   UNL     1       2.116  -2.170   2.811  0.00  0.00    +0.162 A 
ATOM      3  N   UNL     1       1.673  -3.398   3.093  0.00  0.00    -0.234 NA
ATOM      4  C   UNL     1       2.442  -4.289   2.482  0.00  0.00    +0.142 A 
ATOM      5  N   UNL     1       3.405  -3.608   1.782  0.00  0.00    -0.275 N 
ATOM      6  C   UNL     1       4.342  -4.291   1.046  0.00  0.00    +0.063 A 
ATOM      7  C   UNL     1       4.323  -5.654   1.000  0.00  0.00    +0.065 A 
ATOM      8  C   UNL     1       3.345  -6.368   1.705  0.00  0.00    +0.129 A 
ATOM      9  C   UNL     1       2.416  -5.696   2.446  0.00  0.00    +0.085 A 
ATOM     10  F   UNL     1       3.326  -7.718   1.658  0.00  0.00    -0.205 F 
ENDROOT
BRANCH   6  11
ATOM     11  C   UNL     1       5.375  -3.546   0.300  0.00  0.00    +0.040 A 
ATOM     12  C   UNL     1       5.043  -2.876  -0.880  0.00  0.00    +0.013 A 
ATOM     13  C   UNL     1       6.012  -2.181  -1.572  0.00  0.00    +0.001 A 
ATOM     14  C   UNL     1       7.314  -2.144  -1.102  0.00  0.00    +0.004 A 
ATOM     15  C   UNL     1       7.655  -2.803   0.064  0.00  0.00    +0.046 A 
ATOM     16  C   UNL     1       6.692  -3.501   0.774  0.00  0.00    +0.126 A 
BRANCH  16  17
ATOM     17  O   UNL     1       7.025  -4.144   1.923  0.00  0.00    -0.506 OA
ATOM     18  H   UNL     1       7.312  -5.058   1.794  0.00  0.00    +0.292 HD
ENDBRANCH  16  17
ENDBRANCH   6  11
BRANCH   1  19
ATOM     19  S   UNL     1       4.140  -0.941   1.346  0.00  0.00    +0.169 S 
ATOM     20  O   UNL     1       5.480  -1.405   1.249  0.00  0.00    -0.130 OA
ATOM     21  O   UNL     1       3.787   0.215   2.093  0.00  0.00    -0.130 OA
BRANCH  19  22
ATOM     22  O   UNL     1       3.658  -0.703  -0.077  0.00  0.00    -0.341 OA
BRANCH  22  26
ATOM     23  C   UNL     1       0.006   1.201  -0.318  0.00  0.00    +0.000 A 
ATOM     24  C   UNL     1       1.172   1.944  -0.287  0.00  0.00    +0.004 A 
ATOM     25  C   UNL     1       2.396   1.309  -0.207  0.00  0.00    +0.048 A 
ATOM     26  C   UNL     1       2.455  -0.076  -0.156  0.00  0.00    +0.157 A 
ATOM     27  C   UNL     1       1.284  -0.820  -0.186  0.00  0.00    +0.048 A 
ATOM     28  C   UNL     1       0.063  -0.179  -0.267  0.00  0.00    +0.004 A 
ENDBRANCH  22  26
ENDBRANCH  19  22
ENDBRANCH   1  19
TORSDOF 5
