REMARK  Name = ZINC39467086
REMARK  8 active torsions:
REMARK  status: ('A' for Active; 'I' for Inactive)
REMARK    1  A    between atoms: C_1  and  C_2
REMARK    2  A    between atoms: C_2  and  C_3
REMARK    3  A    between atoms: C_2  and  S_4
REMARK    4  A    between atoms: S_4  and  C_7
REMARK    5  A    between atoms: C_19  and  C_20
REMARK    6  A    between atoms: C_20  and  C_21
REMARK    7  A    between atoms: P_29  and  C_32
REMARK    8  A    between atoms: C_37  and  O_38
REMARK                            x       y       z     vdW  Elec       q    Type
REMARK                         _______ _______ _______ _____ _____    ______ ____
ROOT
ATOM      1  C   UNL     1       0.061  -0.010   2.803  0.00  0.00    +0.088 C 
ATOM      2  C   UNL     1      -0.369  -0.888   3.707  0.00  0.00    +0.002 C 
ATOM      3  C   UNL     1      -1.005  -0.393   4.977  0.00  0.00    +0.006 C 
ATOM      4  C   UNL     1      -1.905  -1.462   5.580  0.00  0.00    -0.046 C 
ATOM      5  N   UNL     1      -3.010  -1.804   4.669  0.00  0.00    +0.398 N 
ATOM      6  C   UNL     1      -3.837  -0.624   4.409  0.00  0.00    -0.020 C 
ATOM      7  C   UNL     1      -2.992   0.484   3.768  0.00  0.00    -0.003 C 
ATOM      8  C   UNL     1      -1.845   0.852   4.678  0.00  0.00    +0.016 C 
ATOM      9  C   UNL     1      -0.985   1.856   3.949  0.00  0.00    -0.017 C 
ATOM     10  C   UNL     1      -0.078   1.432   3.070  0.00  0.00    -0.022 C 
ATOM     11  C   UNL     1      -4.976  -0.938   3.430  0.00  0.00    +0.157 C 
ATOM     12  O   UNL     1      -5.836  -1.940   4.000  0.00  0.00    -0.316 OA
ATOM     13  P   UNL     1      -5.139  -3.290   4.583  0.00  0.00    +0.291 P 
ATOM     14  O   UNL     1      -4.831  -4.227   3.479  0.00  0.00    -0.269 OA
ATOM     15  N   UNL     1      -3.744  -2.777   5.312  0.00  0.00    -0.288 NA
ATOM     16  H   UNL     1      -3.450  -3.150   6.157  0.00  0.00    +0.111 HD
ATOM     17  H   UNL     1      -2.638  -2.171   3.806  0.00  0.00    -0.055 HD
ENDROOT
BRANCH  13  18
ATOM     18  C   UNL     1      -6.227  -4.086   5.797  0.00  0.00    +0.091 A 
ATOM     19  C   UNL     1      -6.138  -3.746   7.133  0.00  0.00    +0.018 A 
ATOM     20  C   UNL     1      -6.967  -4.353   8.058  0.00  0.00    +0.001 A 
ATOM     21  C   UNL     1      -7.887  -5.301   7.650  0.00  0.00    +0.004 A 
ATOM     22  C   UNL     1      -7.980  -5.644   6.315  0.00  0.00    +0.046 A 
ATOM     23  C   UNL     1      -7.153  -5.033   5.383  0.00  0.00    +0.131 A 
BRANCH  23  24
ATOM     24  O   UNL     1      -7.246  -5.365   4.069  0.00  0.00    -0.506 OA
ATOM     25  H   UNL     1      -6.673  -6.099   3.807  0.00  0.00    +0.292 HD
ENDBRANCH  23  24
ENDBRANCH  13  18
BRANCH   1  26
ATOM     26  S   UNL     1       0.796  -0.568   1.303  0.00  0.00    -0.001 S 
ATOM     27  O   UNL     1       0.987  -1.963   1.489  0.00  0.00    -0.169 OA
ATOM     28  O   UNL     1       1.907   0.295   1.101  0.00  0.00    -0.169 OA
BRANCH  26  30
ATOM     29  C   UNL     1      -0.731   1.228  -0.085  0.00  0.00    +0.032 C 
ATOM     30  C   UNL     1      -0.462  -0.274   0.029  0.00  0.00    +0.130 C 
ATOM     31  C   UNL     1       0.039  -0.805  -1.315  0.00  0.00    +0.032 C 
ENDBRANCH  26  30
ENDBRANCH   1  26
BRANCH  10  32
ATOM     32  C   UNL     1       0.799   2.422   2.348  0.00  0.00    +0.071 C 
BRANCH  32  33
ATOM     33  C   UNL     1       2.009   2.731   3.192  0.00  0.00    -0.043 A 
ATOM     34  C   UNL     1       1.929   3.680   4.193  0.00  0.00    +0.004 A 
ATOM     35  C   UNL     1       3.039   3.963   4.967  0.00  0.00    +0.000 A 
ATOM     36  C   UNL     1       4.229   3.296   4.740  0.00  0.00    +0.000 A 
ATOM     37  C   UNL     1       4.308   2.345   3.739  0.00  0.00    +0.000 A 
ATOM     38  C   UNL     1       3.196   2.060   2.968  0.00  0.00    +0.004 A 
ENDBRANCH  32  33
ENDBRANCH  10  32
TORSDOF 6
