REMARK  Name = ZINC36360499
REMARK  6 active torsions:
REMARK  status: ('A' for Active; 'I' for Inactive)
REMARK    1  A    between atoms: C_1  and  C_2
REMARK    2  A    between atoms: C_15  and  O_33
REMARK    3  A    between atoms: C_17  and  C_19
REMARK    4  A    between atoms: C_23  and  O_25
REMARK    5  A    between atoms: O_25  and  C_26
REMARK    6  A    between atoms: C_26  and  C_27
REMARK                            x       y       z     vdW  Elec       q    Type
REMARK                         _______ _______ _______ _____ _____    ______ ____
ROOT
ATOM      1  C   UNL     1      -0.018   1.503   0.010  0.00  0.00    +0.068 C 
ATOM      2  C   UNL     1       0.002  -0.004   0.002  0.00  0.00    +0.066 A 
ATOM      3  C   UNL     1       0.008  -0.806  -1.124  0.00  0.00    +0.027 A 
ATOM      4  C   UNL     1       0.032  -2.129  -0.706  0.00  0.00    +0.165 A 
ATOM      5  N   UNL     1       0.034  -2.119   0.648  0.00  0.00    -0.194 N 
ATOM      6  N   UNL     1       0.023  -0.778   1.064  0.00  0.00    -0.168 NA
ATOM      7  C   UNL     1       0.049  -3.242   1.482  0.00  0.00    +0.178 A 
ATOM      8  C   UNL     1       0.554  -3.144   2.778  0.00  0.00    +0.055 A 
ATOM      9  C   UNL     1       0.548  -4.282   3.566  0.00  0.00    +0.077 A 
ATOM     10  C   UNL     1       0.036  -5.456   3.014  0.00  0.00    +0.289 A 
ATOM     11  N   UNL     1      -0.423  -5.455   1.774  0.00  0.00    -0.105 NA
ATOM     12  N   UNL     1      -0.422  -4.398   1.045  0.00  0.00    -0.126 NA
ATOM     13  O   UNL     1       0.010  -6.597   3.749  0.00  0.00    -0.264 OA
ATOM     14  N   UNL     1       0.057  -3.160  -1.598  0.00  0.00    -0.197 NA
ATOM     15  C   UNL     1       0.344  -2.913  -2.841  0.00  0.00    +0.190 C 
ATOM     16  C   UNL     1       0.717  -1.552  -3.353  0.00  0.00    +0.108 C 
ATOM     17  C   UNL     1      -0.012  -0.441  -2.587  0.00  0.00    +0.063 C 
ENDROOT
BRANCH  17  18
ATOM     18  C   UNL     1      -1.436  -0.337  -3.068  0.00  0.00    -0.036 A 
ATOM     19  C   UNL     1      -2.275  -1.433  -2.986  0.00  0.00    +0.004 A 
ATOM     20  C   UNL     1      -3.582  -1.340  -3.427  0.00  0.00    +0.004 A 
ATOM     21  C   UNL     1      -4.053  -0.151  -3.952  0.00  0.00    +0.045 A 
ATOM     22  C   UNL     1      -3.213   0.949  -4.035  0.00  0.00    +0.121 A 
ATOM     23  C   UNL     1      -1.903   0.855  -3.587  0.00  0.00    +0.050 A 
BRANCH  22  24
ATOM     24  O   UNL     1      -3.673   2.119  -4.551  0.00  0.00    -0.486 OA
BRANCH  24  25
ATOM     25  C   UNL     1      -5.034   2.145  -4.988  0.00  0.00    +0.284 C 
BRANCH  25  26
ATOM     26  C   UNL     1      -5.363   3.514  -5.525  0.00  0.00    +0.078 A 
ATOM     27  C   UNL     1      -4.390   4.496  -5.535  0.00  0.00    +0.027 A 
ATOM     28  C   UNL     1      -4.704   5.752  -6.032  0.00  0.00    +0.003 A 
ATOM     29  C   UNL     1      -5.989   5.974  -6.501  0.00  0.00    +0.020 A 
ATOM     30  C   UNL     1      -6.909   4.944  -6.459  0.00  0.00    +0.111 A 
ATOM     31  N   UNL     1      -6.574   3.760  -5.984  0.00  0.00    -0.256 NA
ENDBRANCH  25  26
ENDBRANCH  24  25
ENDBRANCH  22  24
ENDBRANCH  17  18
BRANCH  15  32
ATOM     32  O   UNL     1       0.306  -3.936  -3.719  0.00  0.00    -0.495 OA
ATOM     33  H   UNL     1       0.060  -4.784  -3.325  0.00  0.00    +0.293 HD
ENDBRANCH  15  32
TORSDOF 5
