REMARK  Name = ZINC13692948
REMARK  11 active torsions:
REMARK  status: ('A' for Active; 'I' for Inactive)
REMARK    1  A    between atoms: C_1  and  O_2
REMARK    2  A    between atoms: O_2  and  C_3
REMARK    3  A    between atoms: C_5  and  N_13
REMARK    4  A    between atoms: C_7  and  O_11
REMARK    5  A    between atoms: C_8  and  O_9
REMARK    6  A    between atoms: O_9  and  C_10
REMARK    7  A    between atoms: O_11  and  C_12
REMARK    8  A    between atoms: C_14  and  C_16
REMARK    9  A    between atoms: C_16  and  C_17
REMARK   10  A    between atoms: N_22  and  S_23
REMARK   11  A    between atoms: S_23  and  C_26
REMARK                            x       y       z     vdW  Elec       q    Type
REMARK                         _______ _______ _______ _____ _____    ______ ____
ROOT
ATOM      1  N   UNL     1       2.361   0.322  -4.158  0.00  0.00    -0.285 N 
ATOM      2  C   UNL     1       2.772   1.578  -3.895  0.00  0.00    +0.223 C 
ATOM      3  O   UNL     1       2.730   2.005  -2.760  0.00  0.00    -0.275 OA
ATOM      4  H   UNL     1       2.466  -0.046  -5.049  0.00  0.00    +0.155 HD
ENDROOT
BRANCH   1   7
ATOM      5  C   UNL     1       0.444  -0.613  -1.156  0.00  0.00    +0.167 A 
ATOM      6  C   UNL     1       1.015   0.153  -2.160  0.00  0.00    +0.073 A 
ATOM      7  C   UNL     1       1.784  -0.453  -3.143  0.00  0.00    +0.041 A 
ATOM      8  C   UNL     1       1.982  -1.827  -3.123  0.00  0.00    +0.073 A 
ATOM      9  C   UNL     1       1.411  -2.595  -2.120  0.00  0.00    +0.167 A 
ATOM     10  C   UNL     1       0.645  -1.988  -1.132  0.00  0.00    +0.204 A 
BRANCH   5  12
ATOM     11  C   UNL     1      -0.475   1.398  -0.279  0.00  0.00    +0.277 C 
ATOM     12  O   UNL     1      -0.310  -0.019  -0.192  0.00  0.00    -0.491 OA
ENDBRANCH   5  12
BRANCH  10  13
ATOM     13  O   UNL     1       0.088  -2.740  -0.143  0.00  0.00    -0.488 OA
ATOM     14  C   UNL     1      -1.219  -3.264  -0.384  0.00  0.00    +0.277 C 
ENDBRANCH  10  13
BRANCH   9  15
ATOM     15  O   UNL     1       1.604  -3.941  -2.100  0.00  0.00    -0.491 OA
ATOM     16  C   UNL     1       2.406  -4.496  -3.144  0.00  0.00    +0.277 C 
ENDBRANCH   9  15
ENDBRANCH   1   7
BRANCH   2  17
ATOM     17  C   UNL     1       3.282   2.453  -5.011  0.00  0.00    +0.149 C 
BRANCH  17  18
ATOM     18  C   UNL     1       3.674   3.798  -4.455  0.00  0.00    +0.033 A 
ATOM     19  C   UNL     1       4.942   4.036  -4.123  0.00  0.00    +0.070 A 
ATOM     20  S   UNL     1       4.868   5.722  -3.538  0.00  0.00    -0.057 S 
ATOM     21  C   UNL     1       3.119   5.988  -3.785  0.00  0.00    +0.191 A 
ATOM     22  N   UNL     1       2.730   4.771  -4.300  0.00  0.00    -0.336 N 
ATOM     23  N   UNL     1       2.400   7.057  -3.546  0.00  0.00    -0.108 NA
ATOM     24  H   UNL     1       1.805   4.608  -4.543  0.00  0.00    +0.168 HD
BRANCH  23  25
ATOM     25  S   UNL     1       3.116   8.415  -2.924  0.00  0.00    +0.069 S 
ATOM     26  O   UNL     1       3.582   8.023  -1.640  0.00  0.00    -0.152 OA
ATOM     27  O   UNL     1       4.028   8.836  -3.928  0.00  0.00    -0.152 OA
ATOM     28  C   UNL     1       1.769   9.618  -2.759  0.00  0.00    +0.223 C 
ENDBRANCH  23  25
ENDBRANCH  17  18
ENDBRANCH   2  17
TORSDOF 7
