REMARK  Name = ZINC56184911
REMARK  12 active torsions:
REMARK  status: ('A' for Active; 'I' for Inactive)
REMARK    1  A    between atoms: C_1  and  C_2
REMARK    2  A    between atoms: C_2  and  N_3
REMARK    3  A    between atoms: N_3  and  C_4
REMARK    4  A    between atoms: N_3  and  C_6
REMARK    5  A    between atoms: C_4  and  C_5
REMARK    6  A    between atoms: C_6  and  C_7
REMARK    7  A    between atoms: C_11  and  C_13
REMARK    8  A    between atoms: C_13  and  N_14
REMARK    9  A    between atoms: N_14  and  C_15
REMARK   10  A    between atoms: C_15  and  C_16
REMARK   11  A    between atoms: C_25  and  O_28
REMARK   12  A    between atoms: C_26  and  C_27
REMARK                            x       y       z     vdW  Elec       q    Type
REMARK                         _______ _______ _______ _____ _____    ______ ____
ROOT
ATOM      1  N   UNL     1       0.307  -2.645   6.726  0.00  0.00    +0.384 N 
ATOM      2  H   UNL     1       1.172  -2.256   7.072  0.00  0.00    -0.085 HD
ATOM      3  H   UNL     1      -0.186  -1.945   6.193  0.00  0.00    -0.085 HD
ENDROOT
BRANCH   1   4
ATOM      4  C   UNL     1       0.599  -3.800   5.866  0.00  0.00    -0.046 C 
BRANCH   4   9
ATOM      5  C   UNL     1       1.639  -2.527   2.467  0.00  0.00    -0.064 A 
ATOM      6  C   UNL     1       3.017  -2.550   2.573  0.00  0.00    +0.002 A 
ATOM      7  C   UNL     1       3.612  -2.978   3.745  0.00  0.00    +0.000 A 
ATOM      8  C   UNL     1       2.830  -3.383   4.811  0.00  0.00    +0.002 A 
ATOM      9  C   UNL     1       1.452  -3.358   4.705  0.00  0.00    -0.064 A 
ATOM     10  C   UNL     1       0.856  -2.926   3.534  0.00  0.00    +0.003 A 
BRANCH   5  11
ATOM     11  C   UNL     1       0.989  -2.061   1.190  0.00  0.00    -0.043 C 
BRANCH  11  12
ATOM     12  N   UNL     1       0.647  -0.637   1.306  0.00  0.00    +0.382 N 
ATOM     13  H   UNL     1       0.076  -0.494   2.124  0.00  0.00    -0.081 HD
BRANCH  12  15
ATOM     14  C   UNL     1       1.522   1.622   1.670  0.00  0.00    -0.017 C 
ATOM     15  C   UNL     1       1.880   0.154   1.425  0.00  0.00    -0.082 C 
ENDBRANCH  12  15
BRANCH  12  16
ATOM     16  C   UNL     1      -0.094  -0.212   0.111  0.00  0.00    -0.082 C 
ATOM     17  C   UNL     1      -1.449  -0.921   0.072  0.00  0.00    -0.017 C 
ENDBRANCH  12  16
ENDBRANCH  11  12
ENDBRANCH   5  11
ENDBRANCH   4   9
ENDBRANCH   1   4
BRANCH   1  18
ATOM     18  C   UNL     1      -0.524  -3.075   7.858  0.00  0.00    -0.045 C 
BRANCH  18  19
ATOM     19  C   UNL     1      -0.823  -1.890   8.740  0.00  0.00    -0.047 A 
ATOM     20  C   UNL     1      -1.976  -1.185   8.595  0.00  0.00    +0.094 A 
ATOM     21  C   UNL     1      -2.233  -0.081   9.433  0.00  0.00    +0.337 A 
ATOM     22  O   UNL     1      -3.270   0.542   9.292  0.00  0.00    -0.245 OA
ATOM     23  O   UNL     1      -1.364   0.301  10.382  0.00  0.00    -0.422 OA
ATOM     24  C   UNL     1      -0.201  -0.356  10.579  0.00  0.00    +0.146 A 
ATOM     25  C   UNL     1       0.117  -1.471   9.781  0.00  0.00    +0.019 A 
ATOM     26  C   UNL     1       1.319  -2.158   9.985  0.00  0.00    +0.015 A 
ATOM     27  C   UNL     1       2.178  -1.746  10.963  0.00  0.00    +0.046 A 
ATOM     28  C   UNL     1       1.866  -0.646  11.759  0.00  0.00    +0.123 A 
ATOM     29  C   UNL     1       0.685   0.052  11.564  0.00  0.00    +0.034 A 
ATOM     30  C   UNL     1       0.358   1.241  12.430  0.00  0.00    +0.051 C 
BRANCH  28  31
ATOM     31  O   UNL     1       2.731  -0.249  12.727  0.00  0.00    -0.506 OA
ATOM     32  H   UNL     1       3.384   0.399  12.429  0.00  0.00    +0.292 HD
ENDBRANCH  28  31
ENDBRANCH  18  19
ENDBRANCH   1  18
TORSDOF 9
