REMARK  Name = ZINC13495979
REMARK  13 active torsions:
REMARK  status: ('A' for Active; 'I' for Inactive)
REMARK    1  A    between atoms: C_1  and  C_2
REMARK    2  A    between atoms: C_2  and  C_3
REMARK    3  A    between atoms: C_3  and  C_5
REMARK    4  A    between atoms: C_3  and  N_64
REMARK    5  A    between atoms: N_9  and  C_10
REMARK    6  A    between atoms: C_15  and  C_16
REMARK    7  A    between atoms: C_15  and  N_64
REMARK    8  A    between atoms: C_16  and  O_17
REMARK    9  A    between atoms: C_18  and  C_19
REMARK   10  A    between atoms: C_18  and  N_64
REMARK   11  A    between atoms: C_23  and  O_31
REMARK   12  A    between atoms: O_31  and  C_32
REMARK   13  A    between atoms: C_32  and  C_33
REMARK                            x       y       z     vdW  Elec       q    Type
REMARK                         _______ _______ _______ _____ _____    ______ ____
ROOT
ATOM      1  N   UNL     1      -2.179   0.850   1.611  0.00  0.00    +0.391 N 
ATOM      2  H   UNL     1      -2.258  -0.173   1.636  0.00  0.00    -0.080 HD
ENDROOT
BRANCH   1   3
ATOM      3  C   UNL     1      -2.859   1.414   2.796  0.00  0.00    +0.003 C 
BRANCH   3   4
ATOM      4  C   UNL     1      -2.938   2.915   2.695  0.00  0.00    +0.138 A 
ATOM      5  N   UNL     1      -3.364   3.609   1.668  0.00  0.00    -0.115 NA
ATOM      6  N   UNL     1      -3.279   4.859   1.969  0.00  0.00    -0.023 NA
ATOM      7  N   UNL     1      -2.802   4.981   3.159  0.00  0.00    -0.044 NA
ATOM      8  N   UNL     1      -2.579   3.804   3.639  0.00  0.00    -0.228 N 
BRANCH   8   9
ATOM      9  C   UNL     1      -2.037   3.495   4.965  0.00  0.00    +0.111 C 
ATOM     10  C   UNL     1      -2.935   4.107   6.059  0.00  0.00    +0.027 C 
ATOM     11  C   UNL     1      -1.938   4.576   7.149  0.00  0.00    +0.002 C 
ATOM     12  C   UNL     1      -0.747   5.112   6.316  0.00  0.00    +0.002 C 
ATOM     13  C   UNL     1      -0.646   4.133   5.128  0.00  0.00    +0.027 C 
ENDBRANCH   8   9
ENDBRANCH   3   4
BRANCH   3  15
ATOM     14  C   UNL     1      -4.191  -0.676   3.111  0.00  0.00    +0.002 C 
ATOM     15  C   UNL     1      -4.272   0.833   2.877  0.00  0.00    -0.011 C 
ENDBRANCH   3  15
ENDBRANCH   1   3
BRANCH   1  16
ATOM     16  C   UNL     1      -0.748   1.221   1.625  0.00  0.00    -0.049 C 
BRANCH  16  17
ATOM     17  C   UNL     1      -0.046   0.431   2.731  0.00  0.00    +0.137 C 
BRANCH  17  18
ATOM     18  O   UNL     1      -0.108  -0.965   2.432  0.00  0.00    -0.397 OA
ATOM     19  H   UNL     1       0.383  -1.522   3.052  0.00  0.00    +0.209 HD
ENDBRANCH  17  18
ENDBRANCH  16  17
ENDBRANCH   1  16
BRANCH   1  20
ATOM     20  C   UNL     1      -2.819   1.350   0.376  0.00  0.00    -0.036 C 
BRANCH  20  21
ATOM     21  C   UNL     1      -2.457   0.430  -0.762  0.00  0.00    +0.001 A 
ATOM     22  C   UNL     1      -3.281  -0.597  -1.088  0.00  0.00    +0.017 A 
ATOM     23  C   UNL     1      -2.905  -1.470  -2.201  0.00  0.00    +0.002 A 
ATOM     24  C   UNL     1      -3.718  -2.541  -2.586  0.00  0.00    +0.055 A 
ATOM     25  C   UNL     1      -3.330  -3.348  -3.636  0.00  0.00    +0.121 A 
ATOM     26  C   UNL     1      -2.137  -3.100  -4.310  0.00  0.00    +0.047 A 
ATOM     27  C   UNL     1      -1.327  -2.049  -3.941  0.00  0.00    +0.030 A 
ATOM     28  C   UNL     1      -1.700  -1.223  -2.885  0.00  0.00    +0.049 A 
ATOM     29  N   UNL     1      -0.902  -0.164  -2.499  0.00  0.00    -0.322 N 
ATOM     30  H   UNL     1      -0.072   0.006  -2.972  0.00  0.00    +0.169 HD
ATOM     31  C   UNL     1      -1.260   0.635  -1.479  0.00  0.00    +0.251 A 
ATOM     32  O   UNL     1      -0.531   1.561  -1.167  0.00  0.00    -0.268 OA
BRANCH  25  33
ATOM     33  O   UNL     1      -4.116  -4.391  -4.014  0.00  0.00    -0.492 OA
BRANCH  33  34
ATOM     34  C   UNL     1      -3.657  -5.186  -5.109  0.00  0.00    +0.225 C 
ATOM     35  C   UNL     1      -4.665  -6.303  -5.387  0.00  0.00    +0.048 C 
ENDBRANCH  33  34
ENDBRANCH  25  33
ENDBRANCH  20  21
ENDBRANCH   1  20
TORSDOF 11
