REMARK  Name = ZINC67612661
REMARK  5 active torsions:
REMARK  status: ('A' for Active; 'I' for Inactive)
REMARK    1  A    between atoms: C_4  and  C_7
REMARK    2  A    between atoms: C_10  and  N_12
REMARK    3  A    between atoms: N_15  and  N_16
REMARK    4  A    between atoms: C_17  and  C_19
REMARK    5  A    between atoms: C_19  and  C_20
REMARK                            x       y       z     vdW  Elec       q    Type
REMARK                         _______ _______ _______ _____ _____    ______ ____
ROOT
ATOM      1  N   UNL     1       5.398  -1.752   1.581  0.00  0.00    -0.295 N 
ATOM      2  C   UNL     1       5.669  -2.128   2.847  0.00  0.00    +0.316 C 
ATOM      3  O   UNL     1       4.760  -2.383   3.613  0.00  0.00    -0.251 OA
ATOM      4  N   UNL     1       6.948  -2.221   3.263  0.00  0.00    -0.218 N 
ATOM      5  H   UNL     1       6.123  -1.549   0.970  0.00  0.00    +0.151 HD
ATOM      6  H   UNL     1       7.143  -2.491   4.174  0.00  0.00    +0.174 HD
ENDROOT
BRANCH   4   7
ATOM      7  N   UNL     1       7.995  -1.926   2.380  0.00  0.00    -0.233 N 
ATOM      8  C   UNL     1       9.273  -2.019   2.796  0.00  0.00    +0.234 C 
ATOM      9  O   UNL     1       9.517  -2.357   3.934  0.00  0.00    -0.274 OA
ATOM     10  H   UNL     1       7.799  -1.656   1.469  0.00  0.00    +0.173 HD
BRANCH   8  11
ATOM     11  C   UNL     1      10.399  -1.702   1.846  0.00  0.00    +0.134 C 
BRANCH  11  12
ATOM     12  C   UNL     1      11.718  -1.882   2.553  0.00  0.00    -0.014 A 
ATOM     13  C   UNL     1      12.433  -0.925   3.165  0.00  0.00    +0.087 A 
ATOM     14  N   UNL     1      13.575  -1.461   3.694  0.00  0.00    -0.360 N 
ATOM     15  H   UNL     1      14.249  -0.965   4.183  0.00  0.00    +0.165 HD
ATOM     16  C   UNL     1      13.624  -2.812   3.429  0.00  0.00    +0.047 A 
ATOM     17  C   UNL     1      12.460  -3.136   2.708  0.00  0.00    +0.003 A 
ATOM     18  C   UNL     1      12.236  -4.452   2.303  0.00  0.00    +0.010 A 
ATOM     19  C   UNL     1      13.147  -5.422   2.613  0.00  0.00    +0.001 A 
ATOM     20  C   UNL     1      14.295  -5.109   3.327  0.00  0.00    +0.002 A 
ATOM     21  C   UNL     1      14.541  -3.814   3.729  0.00  0.00    +0.026 A 
ENDBRANCH  11  12
ENDBRANCH   8  11
ENDBRANCH   4   7
BRANCH   1  24
ATOM     22  C   UNL     1       3.711  -0.707  -0.038  0.00  0.00    +0.041 C 
ATOM     23  C   UNL     1       3.671  -2.222  -0.251  0.00  0.00    +0.033 C 
ATOM     24  C   UNL     1       4.008  -1.652   1.129  0.00  0.00    +0.083 C 
BRANCH  22  28
ATOM     25  C   UNL     1      -0.017   1.378   0.010  0.00  0.00    +0.000 A 
ATOM     26  C   UNL     1       1.171   2.086   0.002  0.00  0.00    +0.000 A 
ATOM     27  C   UNL     1       2.377   1.411  -0.013  0.00  0.00    +0.004 A 
ATOM     28  C   UNL     1       2.396   0.029  -0.020  0.00  0.00    -0.042 A 
ATOM     29  C   UNL     1       1.208  -0.679  -0.012  0.00  0.00    +0.004 A 
ATOM     30  C   UNL     1       0.002  -0.004   0.002  0.00  0.00    +0.000 A 
ENDBRANCH  22  28
ENDBRANCH   1  24
TORSDOF 5
