REMARK  Name = ZINC07790596
REMARK  5 active torsions:
REMARK  status: ('A' for Active; 'I' for Inactive)
REMARK    1  A    between atoms: C_1  and  C_2
REMARK    2  A    between atoms: C_2  and  C_4
REMARK    3  A    between atoms: C_2  and  S_12
REMARK    4  A    between atoms: S_12  and  C_13
REMARK    5  A    between atoms: N_26  and  C_27
REMARK                            x       y       z     vdW  Elec       q    Type
REMARK                         _______ _______ _______ _____ _____    ______ ____
ROOT
ATOM      1  C   UNL     1      -2.539   0.025   1.480  0.00  0.00    +0.180 C 
ATOM      2  N   UNL     1      -1.764   0.680   2.297  0.00  0.00    -0.158 NA
ATOM      3  N   UNL     1      -2.375   0.703   3.558  0.00  0.00    -0.221 N 
ATOM      4  C   UNL     1      -3.540   0.036   3.455  0.00  0.00    +0.121 C 
ATOM      5  C   UNL     1      -4.474  -0.181   4.491  0.00  0.00    +0.040 C 
ATOM      6  C   UNL     1      -4.223  -0.219   5.872  0.00  0.00    +0.123 C 
ATOM      7  N   UNL     1      -5.345  -0.445   6.517  0.00  0.00    -0.254 NA
ATOM      8  C   UNL     1      -6.391  -0.573   5.684  0.00  0.00    +0.072 A 
ATOM      9  C   UNL     1      -5.919  -0.410   4.359  0.00  0.00    +0.012 A 
ATOM     10  C   UNL     1      -6.804  -0.489   3.287  0.00  0.00    +0.011 A 
ATOM     11  C   UNL     1      -8.130  -0.721   3.521  0.00  0.00    +0.001 A 
ATOM     12  C   UNL     1      -8.602  -0.878   4.819  0.00  0.00    +0.002 A 
ATOM     13  C   UNL     1      -7.757  -0.815   5.888  0.00  0.00    +0.028 A 
ATOM     14  N   UNL     1      -3.655  -0.386   2.166  0.00  0.00    -0.262 N 
ATOM     15  H   UNL     1      -2.022   1.122   4.359  0.00  0.00    +0.176 HD
ENDROOT
BRANCH  14  16
ATOM     16  C   UNL     1      -4.775  -1.149   1.608  0.00  0.00    +0.082 C 
ATOM     17  C   UNL     1      -4.554  -1.847   0.265  0.00  0.00    +0.025 C 
ATOM     18  C   UNL     1      -5.441  -0.603   0.344  0.00  0.00    +0.025 C 
ENDBRANCH  14  16
BRANCH   1  19
ATOM     19  S   UNL     1      -2.213  -0.278  -0.225  0.00  0.00    -0.076 S 
BRANCH  19  21
ATOM     20  C   UNL     1      -0.738   2.024  -0.321  0.00  0.00    +0.029 C 
ATOM     21  C   UNL     1      -0.605   0.512  -0.510  0.00  0.00    +0.137 C 
BRANCH  21  22
ATOM     22  C   UNL     1      -0.145   0.220  -1.916  0.00  0.00    +0.229 C 
ATOM     23  O   UNL     1      -0.948  -0.119  -2.759  0.00  0.00    -0.274 OA
ATOM     24  N   UNL     1       1.159   0.337  -2.236  0.00  0.00    -0.301 N 
ATOM     25  C   UNL     1       1.607   0.169  -3.625  0.00  0.00    +0.108 C 
ATOM     26  C   UNL     1       2.421   1.400  -4.034  0.00  0.00    +0.019 C 
ATOM     27  C   UNL     1       3.556   1.613  -3.029  0.00  0.00    +0.003 C 
ATOM     28  C   UNL     1       2.968   1.862  -1.638  0.00  0.00    +0.019 C 
ATOM     29  C   UNL     1       2.159   0.641  -1.203  0.00  0.00    +0.108 C 
ENDBRANCH  21  22
ENDBRANCH  19  21
ENDBRANCH   1  19
TORSDOF 4
