REMARK  Name = ZINC36007740
REMARK  10 active torsions:
REMARK  status: ('A' for Active; 'I' for Inactive)
REMARK    1  A    between atoms: C_1  and  C_2
REMARK    2  A    between atoms: C_7  and  C_8
REMARK    3  A    between atoms: C_7  and  C_9
REMARK    4  A    between atoms: C_11  and  N_13
REMARK    5  A    between atoms: C_14  and  C_16
REMARK    6  A    between atoms: C_16  and  S_17
REMARK    7  A    between atoms: S_17  and  C_18
REMARK    8  A    between atoms: C_21  and  C_30
REMARK    9  A    between atoms: N_22  and  C_23
REMARK   10  A    between atoms: C_30  and  N_31
REMARK                            x       y       z     vdW  Elec       q    Type
REMARK                         _______ _______ _______ _____ _____    ______ ____
ROOT
ATOM      1  C   UNL     1      -7.157   1.188   2.621  0.00  0.00    +0.197 A 
ATOM      2  N   UNL     1      -6.662   1.896   3.610  0.00  0.00    -0.122 NA
ATOM      3  N   UNL     1      -7.616   2.403   4.306  0.00  0.00    -0.135 NA
ATOM      4  C   UNL     1      -8.769   2.052   3.809  0.00  0.00    +0.122 A 
ATOM      5  N   UNL     1      -8.519   1.269   2.714  0.00  0.00    -0.276 N 
ENDROOT
BRANCH   5   6
ATOM      6  C   UNL     1      -9.464   0.672   1.865  0.00  0.00    +0.050 A 
ATOM      7  C   UNL     1     -10.293   1.464   1.083  0.00  0.00    +0.029 A 
ATOM      8  C   UNL     1     -11.222   0.875   0.248  0.00  0.00    +0.040 A 
ATOM      9  C   UNL     1     -11.327  -0.505   0.191  0.00  0.00    +0.124 A 
ATOM     10  C   UNL     1     -10.500  -1.296   0.971  0.00  0.00    +0.040 A 
ATOM     11  C   UNL     1      -9.566  -0.711   1.803  0.00  0.00    +0.029 A 
ATOM     12  F   UNL     1     -12.236  -1.079  -0.626  0.00  0.00    -0.205 F 
ENDBRANCH   5   6
BRANCH   1  13
ATOM     13  S   UNL     1      -6.240   0.306   1.402  0.00  0.00    -0.076 S 
BRANCH  13  14
ATOM     14  C   UNL     1      -4.509   0.608   1.851  0.00  0.00    +0.173 C 
BRANCH  14  16
ATOM     15  N   UNL     1      -2.268  -0.017   1.012  0.00  0.00    -0.311 N 
ATOM     16  C   UNL     1      -3.606  -0.100   0.874  0.00  0.00    +0.224 C 
ATOM     17  O   UNL     1      -4.083  -0.745  -0.035  0.00  0.00    -0.275 OA
ATOM     18  H   UNL     1      -1.886   0.499   1.739  0.00  0.00    +0.149 HD
BRANCH  15  28
ATOM     19  C   UNL     1      -0.019   1.526   0.010  0.00  0.00    +0.013 C 
ATOM     20  C   UNL     1       0.002  -0.004   0.002  0.00  0.00    -0.008 C 
ATOM     21  C   UNL     1       0.744  -0.669  -1.197  0.00  0.00    +0.009 C 
ATOM     22  C   UNL     1       1.062  -2.103  -0.714  0.00  0.00    +0.005 C 
ATOM     23  C   UNL     1       0.481  -2.169   0.732  0.00  0.00    -0.003 C 
ATOM     24  C   UNL     1       0.727  -0.695   1.211  0.00  0.00    -0.025 C 
ATOM     25  C   UNL     1       2.216  -0.348   1.260  0.00  0.00    +0.012 C 
ATOM     26  C   UNL     1       0.031  -0.400   2.541  0.00  0.00    +0.012 C 
ATOM     27  C   UNL     1      -1.065  -2.175   0.532  0.00  0.00    +0.027 C 
ATOM     28  C   UNL     1      -1.389  -0.705   0.062  0.00  0.00    +0.080 C 
ENDBRANCH  15  28
ENDBRANCH  14  16
ENDBRANCH  13  14
ENDBRANCH   1  13
BRANCH   4  29
ATOM     29  C   UNL     1     -10.125   2.442   4.339  0.00  0.00    -0.001 C 
BRANCH  29  30
ATOM     30  N   UNL     1     -10.559   3.692   3.702  0.00  0.00    +0.384 N 
ATOM     31  C   UNL     1      -9.653   4.779   4.093  0.00  0.00    -0.078 C 
ATOM     32  C   UNL     1     -10.053   6.066   3.369  0.00  0.00    -0.019 C 
ATOM     33  C   UNL     1     -11.489   6.435   3.749  0.00  0.00    -0.004 C 
ATOM     34  C   UNL     1     -12.415   5.264   3.404  0.00  0.00    -0.019 C 
ATOM     35  C   UNL     1     -11.928   4.007   4.128  0.00  0.00    -0.078 C 
ATOM     36  H   UNL     1     -10.536   3.583   2.699  0.00  0.00    -0.081 HD
ENDBRANCH  29  30
ENDBRANCH   4  29
TORSDOF 7
