REMARK  Name = ZINC39668836
REMARK  4 active torsions:
REMARK  status: ('A' for Active; 'I' for Inactive)
REMARK    1  A    between atoms: C_10  and  C_12
REMARK    2  A    between atoms: C_12  and  N_13
REMARK    3  A    between atoms: C_14  and  C_16
REMARK    4  A    between atoms: C_27  and  C_29
REMARK                            x       y       z     vdW  Elec       q    Type
REMARK                         _______ _______ _______ _____ _____    ______ ____
ROOT
ATOM      1  C   UNL     1       8.380  -0.798   1.490  0.00  0.00    +0.100 C 
ATOM      2  C   UNL     1       8.353  -2.251   2.014  0.00  0.00    +0.121 C 
ATOM      3  N   UNL     1       9.653  -2.425   2.703  0.00  0.00    -0.296 N 
ATOM      4  C   UNL     1       9.878  -1.135   3.397  0.00  0.00    +0.115 C 
ATOM      5  C   UNL     1       9.381  -0.068   2.401  0.00  0.00    -0.004 C 
ATOM      6  C   UNL     1       8.687   1.067   3.147  0.00  0.00    -0.010 C 
ATOM      7  C   UNL     1       9.715   1.815   4.000  0.00  0.00    -0.082 C 
ATOM      8  N   UNL     1      10.777   2.346   3.138  0.00  0.00    +0.379 N 
ATOM      9  C   UNL     1      11.500   1.242   2.496  0.00  0.00    -0.082 C 
ATOM     10  C   UNL     1      10.548   0.470   1.578  0.00  0.00    -0.010 C 
ATOM     11  C   UNL     1      10.452  -3.511   2.699  0.00  0.00    +0.248 C 
ATOM     12  O   UNL     1      10.176  -4.465   1.998  0.00  0.00    -0.270 OA
ATOM     13  H   UNL     1      10.368   2.936   2.429  0.00  0.00    -0.086 HD
ATOM     14  H   UNL     1      11.420   2.889   3.694  0.00  0.00    -0.086 HD
ENDROOT
BRANCH  11  15
ATOM     15  C   UNL     1      11.661  -3.541   3.546  0.00  0.00    +0.055 A 
ATOM     16  C   UNL     1      11.656  -2.923   4.798  0.00  0.00    +0.016 A 
ATOM     17  C   UNL     1      12.788  -2.955   5.584  0.00  0.00    +0.021 A 
ATOM     18  C   UNL     1      13.930  -3.598   5.135  0.00  0.00    +0.042 A 
ATOM     19  C   UNL     1      13.943  -4.213   3.894  0.00  0.00    +0.040 A 
ATOM     20  C   UNL     1      12.814  -4.194   3.100  0.00  0.00    +0.054 A 
ATOM     21 CL   UNL     1      12.829  -4.972   1.548  0.00  0.00    -0.083 Cl
ATOM     22 CL   UNL     1      15.352  -3.632   6.131  0.00  0.00    -0.083 Cl
ENDBRANCH  11  15
BRANCH   1  24
ATOM     23  N   UNL     1       6.697   0.900   0.854  0.00  0.00    -0.312 N 
ATOM     24  C   UNL     1       7.013  -0.173   1.606  0.00  0.00    +0.218 C 
ATOM     25  O   UNL     1       6.198  -0.636   2.375  0.00  0.00    -0.275 OA
ATOM     26  H   UNL     1       7.349   1.270   0.238  0.00  0.00    +0.149 HD
BRANCH  23  27
ATOM     27  C   UNL     1       5.369   1.507   0.966  0.00  0.00    +0.140 C 
BRANCH  27  37
ATOM     28  C   UNL     1       1.540   4.681   0.670  0.00  0.00    +0.000 A 
ATOM     29  C   UNL     1       2.306   4.254   1.740  0.00  0.00    +0.000 A 
ATOM     30  C   UNL     1       3.507   3.614   1.513  0.00  0.00    +0.006 A 
ATOM     31  C   UNL     1       3.951   3.396   0.218  0.00  0.00    -0.014 A 
ATOM     32  C   UNL     1       3.185   3.818  -0.848  0.00  0.00    -0.040 A 
ATOM     33  C   UNL     1       1.980   4.464  -0.620  0.00  0.00    +0.004 A 
ATOM     34  C   UNL     1       3.627   3.588  -2.271  0.00  0.00    +0.063 C 
ATOM     35  C   UNL     1       5.120   3.260  -2.303  0.00  0.00    +0.165 C 
ATOM     36  O   UNL     1       5.381   2.238  -1.334  0.00  0.00    -0.370 OA
ATOM     37  C   UNL     1       5.271   2.699   0.012  0.00  0.00    +0.165 C 
ENDBRANCH  27  37
ENDBRANCH  23  27
ENDBRANCH   1  24
TORSDOF 4
