REMARK  Name = ZINC22052412
REMARK  14 active torsions:
REMARK  status: ('A' for Active; 'I' for Inactive)
REMARK    1  A    between atoms: C_4  and  C_7
REMARK    2  A    between atoms: C_7  and  C_8
REMARK    3  A    between atoms: C_8  and  C_10
REMARK    4  A    between atoms: C_8  and  N_34
REMARK    5  A    between atoms: C_10  and  O_12
REMARK    6  A    between atoms: O_12  and  C_13
REMARK    7  A    between atoms: C_13  and  C_14
REMARK    8  A    between atoms: C_17  and  C_20
REMARK    9  A    between atoms: C_20  and  O_21
REMARK   10  A    between atoms: O_21  and  C_22
REMARK   11  A    between atoms: C_22  and  C_24
REMARK   12  A    between atoms: C_24  and  C_26
REMARK   13  A    between atoms: C_24  and  N_33
REMARK   14  A    between atoms: C_26  and  C_27
REMARK                            x       y       z     vdW  Elec       q    Type
REMARK                         _______ _______ _______ _____ _____    ______ ____
ROOT
ATOM      1  C   UNL     1      -1.317  -2.275   2.366  0.00  0.00    +0.027 C 
ATOM      2  C   UNL     1      -0.640  -2.664   1.050  0.00  0.00    +0.007 C 
ATOM      3  C   UNL     1      -1.416  -2.058  -0.121  0.00  0.00    +0.007 C 
ATOM      4  C   UNL     1      -1.433  -0.534   0.013  0.00  0.00    +0.027 C 
ATOM      5  C   UNL     1      -2.110  -0.145   1.329  0.00  0.00    +0.007 C 
ATOM      6  C   UNL     1      -1.334  -0.751   2.500  0.00  0.00    +0.007 C 
ENDROOT
BRANCH   1   7
ATOM      7  C   UNL     1      -0.540  -2.881   3.537  0.00  0.00    +0.235 C 
BRANCH   7   8
ATOM      8  O   UNL     1      -1.247  -2.613   4.777  0.00  0.00    -0.465 OA
BRANCH   8   9
ATOM      9  C   UNL     1      -0.695  -3.081   5.907  0.00  0.00    +0.293 C 
ATOM     10  O   UNL     1       0.345  -3.695   5.862  0.00  0.00    -0.253 OA
BRANCH   9  11
ATOM     11  C   UNL     1      -1.371  -2.841   7.232  0.00  0.00    +0.040 C 
BRANCH  11  12
ATOM     12  N   UNL     1      -0.876  -3.812   8.217  0.00  0.00    +0.387 N 
ATOM     13  H   UNL     1      -1.099  -4.832   7.871  0.00  0.00    -0.089 HD
ATOM     14  H   UNL     1      -1.370  -3.636   9.184  0.00  0.00    -0.089 HD
ATOM     15  H   UNL     1       0.211  -3.693   8.334  0.00  0.00    -0.089 HD
ENDBRANCH  11  12
BRANCH  11  16
ATOM     16  C   UNL     1      -1.061  -1.422   7.713  0.00  0.00    +0.030 C 
BRANCH  16  20
ATOM     17  C   UNL     1      -3.255  -0.620  11.290  0.00  0.00    +0.000 A 
ATOM     18  C   UNL     1      -1.989  -1.171  11.364  0.00  0.00    +0.000 A 
ATOM     19  C   UNL     1      -1.280  -1.430  10.207  0.00  0.00    +0.003 A 
ATOM     20  C   UNL     1      -1.835  -1.139   8.975  0.00  0.00    -0.048 A 
ATOM     21  C   UNL     1      -3.099  -0.584   8.901  0.00  0.00    +0.003 A 
ATOM     22  C   UNL     1      -3.811  -0.329  10.058  0.00  0.00    +0.000 A 
ENDBRANCH  16  20
ENDBRANCH  11  16
ENDBRANCH   9  11
ENDBRANCH   8   9
ENDBRANCH   7   8
ENDBRANCH   1   7
BRANCH   4  23
ATOM     23  C   UNL     1       0.002  -0.004   0.002  0.00  0.00    +0.235 C 
BRANCH  23  24
ATOM     24  O   UNL     1      -0.018   1.448   0.010  0.00  0.00    -0.465 OA
BRANCH  24  25
ATOM     25  C   UNL     1       1.170   2.073   0.002  0.00  0.00    +0.293 C 
ATOM     26  O   UNL     1       2.192   1.429  -0.011  0.00  0.00    -0.253 OA
BRANCH  25  27
ATOM     27  C   UNL     1       1.228   3.579   0.010  0.00  0.00    +0.040 C 
BRANCH  27  28
ATOM     28  N   UNL     1       2.543   4.021  -0.474  0.00  0.00    +0.387 N 
ATOM     29  H   UNL     1       2.586   5.120  -0.469  0.00  0.00    -0.089 HD
ATOM     30  H   UNL     1       2.699   3.653  -1.499  0.00  0.00    -0.089 HD
ATOM     31  H   UNL     1       3.329   3.620   0.182  0.00  0.00    -0.089 HD
ENDBRANCH  27  28
BRANCH  27  32
ATOM     32  C   UNL     1       1.012   4.091   1.435  0.00  0.00    +0.030 C 
BRANCH  32  33
ATOM     33  C   UNL     1       0.947   5.596   1.424  0.00  0.00    -0.048 A 
ATOM     34  C   UNL     1       2.102   6.339   1.586  0.00  0.00    +0.003 A 
ATOM     35  C   UNL     1       2.044   7.720   1.571  0.00  0.00    +0.000 A 
ATOM     36  C   UNL     1       0.830   8.359   1.405  0.00  0.00    +0.000 A 
ATOM     37  C   UNL     1      -0.326   7.617   1.247  0.00  0.00    +0.000 A 
ATOM     38  C   UNL     1      -0.267   6.235   1.257  0.00  0.00    +0.003 A 
ENDBRANCH  32  33
ENDBRANCH  27  32
ENDBRANCH  25  27
ENDBRANCH  24  25
ENDBRANCH  23  24
ENDBRANCH   4  23
TORSDOF 14
