REMARK  Name = ZINC23947674
REMARK  12 active torsions:
REMARK  status: ('A' for Active; 'I' for Inactive)
REMARK    1  A    between atoms: C_1  and  C_2
REMARK    2  A    between atoms: C_4  and  C_15
REMARK    3  A    between atoms: C_6  and  S_9
REMARK    4  A    between atoms: C_7  and  C_8
REMARK    5  A    between atoms: S_9  and  N_12
REMARK    6  A    between atoms: N_12  and  C_13
REMARK    7  A    between atoms: N_12  and  C_14
REMARK    8  A    between atoms: N_17  and  N_18
REMARK    9  A    between atoms: C_21  and  C_25
REMARK   10  A    between atoms: C_21  and  C_26
REMARK   11  A    between atoms: C_26  and  C_27
REMARK   12  A    between atoms: C_27  and  C_28
REMARK                            x       y       z     vdW  Elec       q    Type
REMARK                         _______ _______ _______ _____ _____    ______ ____
ROOT
ATOM      1  C   UNL     1      -0.988   0.405   5.471  0.00  0.00    +0.261 C 
ATOM      2  O   UNL     1      -1.565   1.474   5.508  0.00  0.00    -0.269 OA
ATOM      3  N   UNL     1      -0.484  -0.049   4.306  0.00  0.00    -0.220 N 
ATOM      4  H   UNL     1       0.038  -1.017   4.273  0.00  0.00    +0.174 HD
ENDROOT
BRANCH   3   5
ATOM      5  N   UNL     1      -0.625   0.711   3.138  0.00  0.00    -0.137 N 
ATOM      6  C   UNL     1       0.373   1.415   2.568  0.00  0.00    +0.263 C 
ATOM      7  O   UNL     1       1.518   1.507   2.955  0.00  0.00    -0.271 OA
ATOM      8  C   UNL     1      -0.235   2.070   1.343  0.00  0.00    +0.112 C 
ATOM      9  N   UNL     1      -1.637   1.616   1.368  0.00  0.00    -0.284 N 
ATOM     10  C   UNL     1      -1.767   0.829   2.451  0.00  0.00    +0.326 C 
ATOM     11  O   UNL     1      -2.807   0.285   2.770  0.00  0.00    -0.251 OA
ATOM     12  C   UNL     1       0.465   1.587   0.071  0.00  0.00    +0.041 C 
ATOM     13  H   UNL     1      -2.334   1.941   0.581  0.00  0.00    +0.151 HD
BRANCH   8  14
ATOM     14  C   UNL     1      -0.158   3.594   1.453  0.00  0.00    +0.040 C 
BRANCH  14  15
ATOM     15  C   UNL     1      -0.932   4.229   0.296  0.00  0.00    +0.038 C 
BRANCH  15  16
ATOM     16  C   UNL     1      -0.856   5.730   0.405  0.00  0.00    -0.047 A 
ATOM     17  C   UNL     1      -1.818   6.421   1.117  0.00  0.00    +0.003 A 
ATOM     18  C   UNL     1      -1.745   7.798   1.220  0.00  0.00    +0.000 A 
ATOM     19  C   UNL     1      -0.716   8.484   0.603  0.00  0.00    +0.000 A 
ATOM     20  C   UNL     1       0.243   7.793  -0.114  0.00  0.00    +0.000 A 
ATOM     21  C   UNL     1       0.174   6.416  -0.213  0.00  0.00    +0.003 A 
ENDBRANCH  15  16
ENDBRANCH  14  15
ENDBRANCH   8  14
ENDBRANCH   3   5
BRANCH   1  25
ATOM     22  C   UNL     1       0.671  -3.696   7.779  0.00  0.00    +0.044 C 
ATOM     23  C   UNL     1      -0.043  -2.370   7.819  0.00  0.00    -0.045 A 
ATOM     24  C   UNL     1      -0.183  -1.629   6.663  0.00  0.00    +0.016 A 
ATOM     25  C   UNL     1      -0.840  -0.398   6.704  0.00  0.00    +0.040 A 
ATOM     26  C   UNL     1      -1.361   0.070   7.911  0.00  0.00    +0.042 A 
ATOM     27  C   UNL     1      -1.219  -0.684   9.058  0.00  0.00    +0.109 A 
ATOM     28  C   UNL     1      -0.562  -1.901   9.012  0.00  0.00    -0.021 A 
ATOM     29  C   UNL     1      -0.411  -2.720  10.269  0.00  0.00    +0.046 C 
BRANCH  27  30
ATOM     30  S   UNL     1      -1.876  -0.096  10.583  0.00  0.00    +0.061 S 
ATOM     31  O   UNL     1      -0.842  -0.228  11.549  0.00  0.00    -0.153 OA
ATOM     32  O   UNL     1      -2.502   1.148  10.303  0.00  0.00    -0.153 OA
BRANCH  30  33
ATOM     33  N   UNL     1      -3.080  -1.141  11.033  0.00  0.00    -0.183 NA
ATOM     34  C   UNL     1      -2.807  -2.195  12.014  0.00  0.00    +0.131 C 
ATOM     35  C   UNL     1      -4.418  -1.012  10.450  0.00  0.00    +0.131 C 
ENDBRANCH  30  33
ENDBRANCH  27  30
ENDBRANCH   1  25
TORSDOF 7
