REMARK  Name = ZINC59170859
REMARK  8 active torsions:
REMARK  status: ('A' for Active; 'I' for Inactive)
REMARK    1  A    between atoms: C_1  and  C_2
REMARK    2  A    between atoms: C_2  and  O_3
REMARK    3  A    between atoms: O_3  and  C_4
REMARK    4  A    between atoms: N_12  and  C_13
REMARK    5  A    between atoms: C_15  and  C_20
REMARK    6  A    between atoms: C_18  and  C_19
REMARK    7  A    between atoms: C_21  and  C_23
REMARK    8  A    between atoms: C_23  and  N_25
REMARK                            x       y       z     vdW  Elec       q    Type
REMARK                         _______ _______ _______ _____ _____    ______ ____
ROOT
ATOM      1  C   UNL     1      -0.271  -1.435   2.252  0.00  0.00    +0.164 A 
ATOM      2  C   UNL     1      -0.924  -2.088   1.221  0.00  0.00    +0.064 A 
ATOM      3  C   UNL     1      -0.610  -3.402   0.907  0.00  0.00    +0.022 A 
ATOM      4  C   UNL     1       0.357  -4.078   1.619  0.00  0.00    +0.027 A 
ATOM      5  C   UNL     1       1.025  -3.433   2.667  0.00  0.00    +0.023 A 
ATOM      6  C   UNL     1       0.713  -2.097   2.979  0.00  0.00    +0.179 A 
ATOM      7  O   UNL     1       1.370  -1.468   3.984  0.00  0.00    -0.435 OA
ATOM      8  C   UNL     1       1.859  -2.245   4.983  0.00  0.00    +0.209 A 
ATOM      9  N   UNL     1       1.777  -1.866   6.240  0.00  0.00    -0.325 N 
ATOM     10  C   UNL     1       2.486  -3.532   4.616  0.00  0.00    +0.064 A 
ATOM     11  C   UNL     1       2.052  -4.132   3.443  0.00  0.00    +0.027 A 
ATOM     12 BR   UNL     1      -1.514  -4.272  -0.508  0.00  0.00    -0.050 Br
ATOM     13  H   UNL     1       2.052  -2.470   6.948  0.00  0.00    +0.169 HD
ENDROOT
BRANCH   9  14
ATOM     14  C   UNL     1       1.304  -0.621   6.549  0.00  0.00    +0.045 A 
ATOM     15  C   UNL     1       1.815   0.505   5.898  0.00  0.00    +0.029 A 
ATOM     16  C   UNL     1       1.333   1.758   6.215  0.00  0.00    -0.048 A 
ATOM     17  C   UNL     1       0.346   1.902   7.174  0.00  0.00    +0.004 A 
ATOM     18  C   UNL     1      -0.165   0.791   7.823  0.00  0.00    +0.005 A 
ATOM     19  C   UNL     1       0.303  -0.469   7.512  0.00  0.00    -0.027 A 
ATOM     20  C   UNL     1      -0.259  -1.678   8.215  0.00  0.00    +0.046 C 
ATOM     21  C   UNL     1       1.882   2.974   5.514  0.00  0.00    +0.044 C 
ENDBRANCH   9  14
BRANCH  10  22
ATOM     22  C   UNL     1       3.515  -4.153   5.462  0.00  0.00    +0.082 C 
ATOM     23  S   UNL     1       4.131  -3.311   6.819  0.00  0.00    -0.035 S 
BRANCH  22  24
ATOM     24  N   UNL     1       3.974  -5.386   5.170  0.00  0.00    -0.352 N 
ATOM     25  H   UNL     1       3.625  -5.864   4.401  0.00  0.00    +0.143 HD
ATOM     26  H   UNL     1       4.654  -5.796   5.728  0.00  0.00    +0.143 HD
ENDBRANCH  22  24
ENDBRANCH  10  22
BRANCH   1  27
ATOM     27  O   UNL     1      -0.587  -0.146   2.551  0.00  0.00    -0.489 OA
BRANCH  27  29
ATOM     28  C   UNL     1      -1.829   1.904   2.242  0.00  0.00    +0.048 C 
ATOM     29  C   UNL     1      -1.674   0.439   1.830  0.00  0.00    +0.226 C 
ENDBRANCH  27  29
ENDBRANCH   1  27
TORSDOF 5
