REMARK  Name = ZINC47396407
REMARK  5 active torsions:
REMARK  status: ('A' for Active; 'I' for Inactive)
REMARK    1  A    between atoms: C_1  and  C_2
REMARK    2  A    between atoms: C_2  and  N_3
REMARK    3  A    between atoms: N_3  and  C_4
REMARK    4  A    between atoms: C_4  and  C_5
REMARK    5  A    between atoms: N_13  and  C_14
REMARK                            x       y       z     vdW  Elec       q    Type
REMARK                         _______ _______ _______ _____ _____    ______ ____
ROOT
ATOM      1  C   UNL     1       4.087  -0.742  -0.122  0.00  0.00    +0.038 A 
ATOM      2  C   UNL     1       4.780  -1.299   0.944  0.00  0.00    +0.027 A 
ATOM      3  C   UNL     1       6.127  -1.582   0.823  0.00  0.00    +0.051 A 
ATOM      4  C   UNL     1       6.790  -1.312  -0.363  0.00  0.00    +0.167 A 
ATOM      5  C   UNL     1       6.097  -0.753  -1.435  0.00  0.00    +0.169 A 
ATOM      6  C   UNL     1       4.746  -0.474  -1.314  0.00  0.00    +0.073 A 
ATOM      7  O   UNL     1       6.965  -0.585  -2.476  0.00  0.00    -0.447 OA
ATOM      8  C   UNL     1       8.276  -0.681  -1.900  0.00  0.00    +0.254 C 
ATOM      9  O   UNL     1       8.093  -1.495  -0.732  0.00  0.00    -0.448 OA
ATOM     10  C   UNL     1       8.787   0.702  -1.510  0.00  0.00    +0.093 C 
ATOM     11  C   UNL     1       8.937   1.563  -2.768  0.00  0.00    +0.008 C 
ATOM     12  C   UNL     1       9.919   0.891  -3.729  0.00  0.00    +0.000 C 
ATOM     13  C   UNL     1       9.387  -0.488  -4.126  0.00  0.00    +0.008 C 
ATOM     14  C   UNL     1       9.236  -1.355  -2.874  0.00  0.00    +0.093 C 
ENDROOT
BRANCH   1  18
ATOM     15  N   UNL     1       0.862   0.817  -0.611  0.00  0.00    -0.285 N 
ATOM     16  C   UNL     1       2.193   0.603  -0.643  0.00  0.00    +0.306 C 
ATOM     17  O   UNL     1       2.916   1.365  -1.256  0.00  0.00    -0.252 OA
ATOM     18  N   UNL     1       2.721  -0.456   0.003  0.00  0.00    -0.269 N 
ATOM     19  H   UNL     1       2.155  -1.019   0.554  0.00  0.00    +0.156 HD
BRANCH  15  21
ATOM     20  C   UNL     1      -0.471  -1.224  -0.804  0.00  0.00    +0.024 C 
ATOM     21  C   UNL     1      -0.009  -0.101   0.127  0.00  0.00    +0.106 C 
ENDBRANCH  15  21
BRANCH  15  22
ATOM     22  C   UNL     1       0.288   1.967  -1.313  0.00  0.00    +0.115 C 
BRANCH  22  23
ATOM     23  C   UNL     1       0.247   3.172  -0.370  0.00  0.00    +0.034 C 
ATOM     24  C   UNL     1      -0.306   4.426  -1.100  0.00  0.00    +0.035 C 
ATOM     25  C   UNL     1      -0.923   5.209   0.087  0.00  0.00    +0.160 C 
ATOM     26  O   UNL     1      -1.472   4.204   0.954  0.00  0.00    -0.379 OA
ATOM     27  C   UNL     1      -0.791   2.955   0.752  0.00  0.00    +0.165 C 
ENDBRANCH  22  23
ENDBRANCH  15  22
ENDBRANCH   1  18
TORSDOF 4
