REMARK  Name = ZINC15015628
REMARK  2 active torsions:
REMARK  status: ('A' for Active; 'I' for Inactive)
REMARK    1  A    between atoms: C_5  and  C_7
REMARK    2  A    between atoms: N_13  and  C_14
REMARK                            x       y       z     vdW  Elec       q    Type
REMARK                         _______ _______ _______ _____ _____    ______ ____
ROOT
ATOM      1  C   UNL     1       1.273  -2.136  -0.022  0.00  0.00    +0.048 C 
ATOM      2  C   UNL     1       2.465  -2.782  -0.038  0.00  0.00    +0.079 C 
ATOM      3  C   UNL     1       2.745  -4.235  -0.055  0.00  0.00    +0.256 C 
ATOM      4  O   UNL     1       1.847  -5.057  -0.057  0.00  0.00    -0.269 OA
ATOM      5  N   UNL     1       4.016  -4.598  -0.069  0.00  0.00    -0.260 N 
ATOM      6  C   UNL     1       5.018  -3.652  -0.066  0.00  0.00    +0.166 C 
ATOM      7  N   UNL     1       6.318  -3.839  -0.078  0.00  0.00    -0.226 NA
ATOM      8  S   UNL     1       4.120  -2.109  -0.051  0.00  0.00    -0.049 S 
ATOM      9  H   UNL     1       4.246  -5.541  -0.080  0.00  0.00    +0.157 HD
ENDROOT
BRANCH   7  10
ATOM     10  C   UNL     1       7.164  -2.764  -0.073  0.00  0.00    +0.067 A 
ATOM     11  C   UNL     1       6.918  -1.673  -0.910  0.00  0.00    +0.029 A 
ATOM     12  C   UNL     1       7.774  -0.593  -0.900  0.00  0.00    +0.017 A 
ATOM     13  C   UNL     1       8.877  -0.587  -0.062  0.00  0.00    +0.018 A 
ATOM     14  C   UNL     1       9.128  -1.665   0.769  0.00  0.00    +0.017 A 
ATOM     15  C   UNL     1       8.275  -2.750   0.773  0.00  0.00    +0.029 A 
ATOM     16 BR   UNL     1      10.046   0.899  -0.055  0.00  0.00    -0.050 Br
ENDBRANCH   7  10
BRANCH   1  21
ATOM     17  C   UNL     1      -0.017   1.379   0.010  0.00  0.00    +0.004 A 
ATOM     18  C   UNL     1       1.194   2.059   0.002  0.00  0.00    +0.020 A 
ATOM     19  C   UNL     1       2.377   1.341  -0.013  0.00  0.00    +0.111 A 
ATOM     20  N   UNL     1       2.371   0.025  -0.021  0.00  0.00    -0.256 NA
ATOM     21  C   UNL     1       1.234  -0.666  -0.014  0.00  0.00    +0.065 A 
ATOM     22  C   UNL     1       0.002  -0.004   0.002  0.00  0.00    +0.028 A 
ENDBRANCH   1  21
TORSDOF 2
