REMARK  Name = ZINC13266795
REMARK  7 active torsions:
REMARK  status: ('A' for Active; 'I' for Inactive)
REMARK    1  A    between atoms: C_6  and  N_7
REMARK    2  A    between atoms: C_13  and  C_28
REMARK    3  A    between atoms: C_17  and  S_18
REMARK    4  A    between atoms: S_18  and  C_19
REMARK    5  A    between atoms: C_19  and  C_20
REMARK    6  A    between atoms: N_22  and  C_23
REMARK    7  A    between atoms: C_23  and  C_24
REMARK                            x       y       z     vdW  Elec       q    Type
REMARK                         _______ _______ _______ _____ _____    ______ ____
ROOT
ATOM      1  N   UNL     1      -6.123   3.257   0.050  0.00  0.00    -0.255 N 
ATOM      2  C   UNL     1      -5.053   3.921  -0.445  0.00  0.00    +0.267 A 
ATOM      3  O   UNL     1      -5.161   5.051  -0.886  0.00  0.00    -0.267 OA
ATOM      4  C   UNL     1      -3.756   3.228  -0.433  0.00  0.00    +0.065 A 
ATOM      5  C   UNL     1      -2.598   3.833  -0.923  0.00  0.00    +0.016 A 
ATOM      6  C   UNL     1      -1.411   3.159  -0.887  0.00  0.00    +0.016 A 
ATOM      7  C   UNL     1      -1.345   1.857  -0.373  0.00  0.00    +0.065 A 
ATOM      8  C   UNL     1      -2.486   1.236   0.119  0.00  0.00    +0.043 A 
ATOM      9  C   UNL     1      -3.706   1.918   0.094  0.00  0.00    +0.080 A 
ATOM     10  N   UNL     1      -4.842   1.351   0.563  0.00  0.00    -0.223 NA
ATOM     11  C   UNL     1      -5.986   1.989   0.541  0.00  0.00    +0.177 A 
ENDROOT
BRANCH   1  17
ATOM     12  C   UNL     1      -8.232   3.736  -1.029  0.00  0.00    +0.029 A 
ATOM     13  C   UNL     1      -9.473   4.341  -1.015  0.00  0.00    +0.040 A 
ATOM     14  C   UNL     1      -9.865   5.095   0.079  0.00  0.00    +0.124 A 
ATOM     15  C   UNL     1      -9.016   5.239   1.163  0.00  0.00    +0.040 A 
ATOM     16  C   UNL     1      -7.776   4.631   1.155  0.00  0.00    +0.029 A 
ATOM     17  C   UNL     1      -7.381   3.875   0.060  0.00  0.00    +0.052 A 
ATOM     18  F   UNL     1     -11.078   5.691   0.088  0.00  0.00    -0.205 F 
ENDBRANCH   1  17
BRANCH   7  19
ATOM     19  C   UNL     1      -0.051   1.141  -0.350  0.00  0.00    +0.387 C 
ATOM     20  O   UNL     1       0.012   0.015   0.098  0.00  0.00    -0.241 OA
ATOM     21  O   UNL     1       1.057   1.738  -0.832  0.00  0.00    -0.241 OA
ENDBRANCH   7  19
BRANCH  11  22
ATOM     22  S   UNL     1      -7.415   1.174   1.173  0.00  0.00    -0.078 S 
BRANCH  22  23
ATOM     23  C   UNL     1      -6.682  -0.406   1.668  0.00  0.00    +0.173 C 
BRANCH  23  24
ATOM     24  C   UNL     1      -7.750  -1.293   2.254  0.00  0.00    +0.224 C 
ATOM     25  O   UNL     1      -8.894  -0.896   2.331  0.00  0.00    -0.275 OA
ATOM     26  N   UNL     1      -7.434  -2.527   2.694  0.00  0.00    -0.306 N 
ATOM     27  H   UNL     1      -6.520  -2.845   2.633  0.00  0.00    +0.149 HD
BRANCH  26  28
ATOM     28  C   UNL     1      -8.472  -3.390   3.264  0.00  0.00    +0.217 C 
BRANCH  28  29
ATOM     29  C   UNL     1      -7.853  -4.725   3.682  0.00  0.00    +0.405 C 
ATOM     30  F   UNL     1      -6.858  -4.498   4.639  0.00  0.00    -0.169 F 
ATOM     31  F   UNL     1      -8.844  -5.548   4.227  0.00  0.00    -0.169 F 
ATOM     32  F   UNL     1      -7.291  -5.349   2.563  0.00  0.00    -0.169 F 
ENDBRANCH  28  29
ENDBRANCH  26  28
ENDBRANCH  23  24
ENDBRANCH  22  23
ENDBRANCH  11  22
TORSDOF 7
