REMARK  Name = ZINC36278205
REMARK  7 active torsions:
REMARK  status: ('A' for Active; 'I' for Inactive)
REMARK    1  A    between atoms: C_1  and  C_2
REMARK    2  A    between atoms: C_11  and  N_16
REMARK    3  A    between atoms: N_16  and  C_17
REMARK    4  A    between atoms: C_17  and  C_18
REMARK    5  A    between atoms: C_17  and  C_19
REMARK    6  A    between atoms: C_17  and  C_20
REMARK    7  A    between atoms: C_20  and  O_21
REMARK                            x       y       z     vdW  Elec       q    Type
REMARK                         _______ _______ _______ _____ _____    ______ ____
ROOT
ATOM      1  C   UNL     1       0.058   1.543  -0.005  0.00  0.00    +0.008 C 
ATOM      2  C   UNL     1       0.062   0.013  -0.009  0.00  0.00    -0.009 C 
ATOM      3  C   UNL     1       0.776  -0.496  -1.265  0.00  0.00    +0.008 C 
ATOM      4  C   UNL     1       0.569  -2.005  -1.403  0.00  0.00    +0.037 C 
ATOM      5  C   UNL     1       0.980  -2.682  -0.098  0.00  0.00    -0.025 A 
ATOM      6  C   UNL     1       1.073  -1.968   1.047  0.00  0.00    -0.004 A 
ATOM      7  S   UNL     1       1.569  -3.136   2.288  0.00  0.00    -0.073 S 
ATOM      8  C   UNL     1       1.652  -4.578   1.275  0.00  0.00    +0.115 A 
ATOM      9  C   UNL     1       1.287  -4.100  -0.009  0.00  0.00    +0.051 A 
ATOM     10  C   UNL     1       1.261  -5.053  -1.067  0.00  0.00    +0.132 A 
ATOM     11  N   UNL     1       1.585  -6.301  -0.732  0.00  0.00    -0.202 NA
ATOM     12  C   UNL     1       1.915  -6.674   0.489  0.00  0.00    +0.225 A 
ATOM     13  N   UNL     1       1.959  -5.836   1.520  0.00  0.00    -0.210 NA
ATOM     14 CL   UNL     1       2.312  -8.341   0.763  0.00  0.00    -0.041 Cl
ATOM     15  C   UNL     1       0.809  -0.504   1.228  0.00  0.00    +0.046 C 
ENDROOT
BRANCH  10  16
ATOM     16  N   UNL     1       0.920  -4.705  -2.361  0.00  0.00    -0.321 N 
ATOM     17  H   UNL     1       0.609  -3.807  -2.556  0.00  0.00    +0.148 HD
BRANCH  16  18
ATOM     18  C   UNL     1       1.027  -5.692  -3.438  0.00  0.00    +0.051 C 
ATOM     19  C   UNL     1       2.478  -6.165  -3.553  0.00  0.00    +0.033 C 
ATOM     20  C   UNL     1       0.124  -6.887  -3.127  0.00  0.00    +0.033 C 
BRANCH  18  21
ATOM     21  C   UNL     1       0.593  -5.055  -4.760  0.00  0.00    +0.180 C 
BRANCH  21  22
ATOM     22  O   UNL     1       0.698  -6.018  -5.810  0.00  0.00    -0.393 OA
ATOM     23  H   UNL     1       0.437  -5.683  -6.679  0.00  0.00    +0.209 HD
ENDBRANCH  21  22
ENDBRANCH  18  21
ENDBRANCH  16  18
ENDBRANCH  10  16
TORSDOF 4
