REMARK  Name = ZINC38984315
REMARK  3 active torsions:
REMARK  status: ('A' for Active; 'I' for Inactive)
REMARK    1  A    between atoms: C_4  and  C_7
REMARK    2  A    between atoms: C_9  and  C_13
REMARK    3  A    between atoms: C_19  and  C_22
REMARK                            x       y       z     vdW  Elec       q    Type
REMARK                         _______ _______ _______ _____ _____    ______ ____
ROOT
ATOM      1  C   UNL     1       5.775  -3.000   1.163  0.00  0.00    +0.181 A 
ATOM      2  N   UNL     1       5.865  -2.517   2.366  0.00  0.00    -0.129 NA
ATOM      3  N   UNL     1       6.283  -3.425   3.177  0.00  0.00    -0.121 NA
ATOM      4  C   UNL     1       6.493  -4.524   2.522  0.00  0.00    +0.211 A 
ATOM      5  N   UNL     1       6.148  -4.332   1.208  0.00  0.00    -0.222 N 
ATOM      6  N   UNL     1       6.222  -5.381   0.341  0.00  0.00    -0.263 N 
ATOM      7  C   UNL     1       7.123  -6.485   0.766  0.00  0.00    +0.184 C 
ATOM      8  S   UNL     1       7.047  -6.214   2.589  0.00  0.00    -0.056 S 
ATOM      9  H   UNL     1       5.303  -5.730   0.117  0.00  0.00    +0.168 HD
ENDROOT
BRANCH   7  10
ATOM     10  C   UNL     1       6.572  -7.832   0.375  0.00  0.00    +0.003 A 
ATOM     11  C   UNL     1       5.553  -7.919  -0.554  0.00  0.00    +0.008 A 
ATOM     12  C   UNL     1       5.047  -9.154  -0.913  0.00  0.00    +0.000 A 
ATOM     13  C   UNL     1       5.561 -10.304  -0.343  0.00  0.00    +0.001 A 
ATOM     14  C   UNL     1       6.581 -10.219   0.586  0.00  0.00    +0.020 A 
ATOM     15  C   UNL     1       7.091  -8.983   0.942  0.00  0.00    +0.047 A 
ATOM     16 CL   UNL     1       8.376  -8.875   2.104  0.00  0.00    -0.083 Cl
ENDBRANCH   7  10
BRANCH   1  19
ATOM     17  C   UNL     1       3.699  -0.689  -0.037  0.00  0.00    +0.091 C 
ATOM     18  C   UNL     1       3.832  -2.029  -0.051  0.00  0.00    +0.039 C 
ATOM     19  C   UNL     1       5.335  -2.245  -0.065  0.00  0.00    +0.222 C 
ATOM     20  N   UNL     1       5.871  -0.874  -0.056  0.00  0.00    -0.171 NA
ATOM     21  N   UNL     1       4.919  -0.090  -0.047  0.00  0.00    -0.153 NA
BRANCH  17  25
ATOM     22  C   UNL     1      -0.017   1.379   0.010  0.00  0.00    +0.000 A 
ATOM     23  C   UNL     1       1.169   2.092   0.002  0.00  0.00    +0.001 A 
ATOM     24  C   UNL     1       2.377   1.426  -0.013  0.00  0.00    +0.010 A 
ATOM     25  C   UNL     1       2.402   0.033  -0.021  0.00  0.00    +0.002 A 
ATOM     26  C   UNL     1       1.205  -0.680  -0.013  0.00  0.00    +0.010 A 
ATOM     27  C   UNL     1       0.002  -0.004   0.002  0.00  0.00    +0.001 A 
ENDBRANCH  17  25
ENDBRANCH   1  19
TORSDOF 3
