REMARK  Name = ZINC01193797
REMARK  6 active torsions:
REMARK  status: ('A' for Active; 'I' for Inactive)
REMARK    1  A    between atoms: C_1  and  C_2
REMARK    2  A    between atoms: C_7  and  O_9
REMARK    3  A    between atoms: O_9  and  C_10
REMARK    4  A    between atoms: C_10  and  C_12
REMARK    5  A    between atoms: C_13  and  C_27
REMARK    6  A    between atoms: C_18  and  C_20
REMARK                            x       y       z     vdW  Elec       q    Type
REMARK                         _______ _______ _______ _____ _____    ______ ____
ROOT
ATOM      1  C   UNL     1      -0.057   1.424   0.207  0.00  0.00    +0.078 C 
ATOM      2  C   UNL     1      -1.192   2.111  -0.043  0.00  0.00    +0.021 C 
ATOM      3  N   UNL     1      -1.169   3.464  -0.230  0.00  0.00    -0.273 N 
ATOM      4  C   UNL     1      -0.052   4.201  -0.193  0.00  0.00    +0.304 C 
ATOM      5  O   UNL     1      -0.132   5.400  -0.376  0.00  0.00    -0.252 OA
ATOM      6  N   UNL     1       1.159   3.656   0.040  0.00  0.00    -0.288 N 
ATOM      7  C   UNL     1       1.242   2.202   0.261  0.00  0.00    +0.143 C 
ATOM      8  C   UNL     1      -2.505   1.375  -0.110  0.00  0.00    +0.061 C 
ATOM      9  H   UNL     1      -2.010   3.916  -0.403  0.00  0.00    +0.156 HD
ATOM     10  H   UNL     1       1.956   4.208   0.063  0.00  0.00    +0.151 HD
ENDROOT
BRANCH   7  11
ATOM     11  C   UNL     1       1.866   1.973   1.613  0.00  0.00    -0.022 A 
ATOM     12  C   UNL     1       1.419   2.684   2.711  0.00  0.00    +0.007 A 
ATOM     13  C   UNL     1       1.987   2.471   3.952  0.00  0.00    +0.015 A 
ATOM     14  C   UNL     1       3.012   1.552   4.095  0.00  0.00    +0.018 A 
ATOM     15  C   UNL     1       3.463   0.844   2.995  0.00  0.00    +0.015 A 
ATOM     16  C   UNL     1       2.890   1.054   1.755  0.00  0.00    +0.007 A 
ATOM     17 BR   UNL     1       3.795   1.264   5.792  0.00  0.00    -0.050 Br
ENDBRANCH   7  11
BRANCH   1  18
ATOM     18  C   UNL     1      -0.079   0.024   0.407  0.00  0.00    +0.339 C 
ATOM     19  O   UNL     1      -1.142  -0.564   0.479  0.00  0.00    -0.245 OA
BRANCH  18  20
ATOM     20  O   UNL     1       1.079  -0.661   0.516  0.00  0.00    -0.458 OA
BRANCH  20  26
ATOM     21  C   UNL     1       1.746  -3.790  -0.953  0.00  0.00    +0.011 C 
ATOM     22  C   UNL     1       2.202  -2.777   0.099  0.00  0.00    +0.027 C 
ATOM     23  C   UNL     1       2.922  -3.504   1.254  0.00  0.00    +0.007 C 
ATOM     24  C   UNL     1       1.818  -3.708   2.321  0.00  0.00    +0.004 C 
ATOM     25  C   UNL     1       1.003  -2.395   2.225  0.00  0.00    +0.045 C 
ATOM     26  C   UNL     1       0.982  -2.072   0.716  0.00  0.00    +0.180 C 
ENDBRANCH  20  26
ENDBRANCH  18  20
ENDBRANCH   1  18
TORSDOF 4
