REMARK  Name = ZINC06727259
REMARK  12 active torsions:
REMARK  status: ('A' for Active; 'I' for Inactive)
REMARK    1  A    between atoms: C_1  and  C_2
REMARK    2  A    between atoms: C_2  and  C_4
REMARK    3  A    between atoms: C_2  and  N_10
REMARK    4  A    between atoms: C_11  and  C_13
REMARK    5  A    between atoms: C_13  and  C_15
REMARK    6  A    between atoms: C_13  and  N_26
REMARK    7  A    between atoms: C_15  and  C_16
REMARK    8  A    between atoms: C_27  and  O_29
REMARK    9  A    between atoms: O_29  and  C_30
REMARK   10  A    between atoms: C_30  and  C_31
REMARK   11  A    between atoms: C_30  and  C_32
REMARK   12  A    between atoms: C_30  and  C_33
REMARK                            x       y       z     vdW  Elec       q    Type
REMARK                         _______ _______ _______ _____ _____    ______ ____
ROOT
ATOM      1  C   UNL     1       2.462   0.920  -0.017  0.00  0.00    +0.166 C 
ENDROOT
BRANCH   1   3
ATOM      2  N   UNL     1      -0.011   0.966   0.007  0.00  0.00    -0.307 N 
ATOM      3  C   UNL     1       1.147   1.655   0.000  0.00  0.00    +0.234 C 
ATOM      4  O   UNL     1       1.130   2.868   0.007  0.00  0.00    -0.274 OA
ATOM      5  H   UNL     1       0.002  -0.004   0.002  0.00  0.00    +0.149 HD
BRANCH   2   7
ATOM      6  C   UNL     1      -1.667   2.032   1.458  0.00  0.00    +0.033 C 
ATOM      7  C   UNL     1      -1.290   1.681   0.017  0.00  0.00    +0.100 C 
BRANCH   7   8
ATOM      8  C   UNL     1      -2.360   0.806  -0.583  0.00  0.00    -0.027 A 
ATOM      9  C   UNL     1      -2.384  -0.548  -0.302  0.00  0.00    +0.005 A 
ATOM     10  C   UNL     1      -3.368  -1.350  -0.849  0.00  0.00    +0.000 A 
ATOM     11  C   UNL     1      -4.322  -0.800  -1.685  0.00  0.00    +0.000 A 
ATOM     12  C   UNL     1      -4.295   0.552  -1.970  0.00  0.00    +0.000 A 
ATOM     13  C   UNL     1      -3.313   1.355  -1.419  0.00  0.00    +0.005 A 
ENDBRANCH   7   8
ENDBRANCH   2   7
ENDBRANCH   1   3
BRANCH   1  14
ATOM     14  N   UNL     1       3.517   1.817  -0.494  0.00  0.00    -0.269 N 
ATOM     15  C   UNL     1       3.789   2.954   0.175  0.00  0.00    +0.401 C 
ATOM     16  O   UNL     1       3.159   3.236   1.175  0.00  0.00    -0.226 OA
ATOM     17  H   UNL     1       4.020   1.592  -1.292  0.00  0.00    +0.153 HD
BRANCH  15  18
ATOM     18  O   UNL     1       4.759   3.779  -0.264  0.00  0.00    -0.445 OA
BRANCH  18  19
ATOM     19  C   UNL     1       4.997   4.986   0.507  0.00  0.00    +0.107 C 
ATOM     20  C   UNL     1       5.393   4.609   1.936  0.00  0.00    +0.055 C 
ATOM     21  C   UNL     1       6.126   5.790  -0.140  0.00  0.00    +0.055 C 
ATOM     22  C   UNL     1       3.722   5.831   0.538  0.00  0.00    +0.055 C 
ENDBRANCH  18  19
ENDBRANCH  15  18
ENDBRANCH   1  14
BRANCH   1  23
ATOM     23  C   UNL     1       2.798   0.445   1.398  0.00  0.00    +0.069 C 
BRANCH  23  24
ATOM     24  C   UNL     1       4.049  -0.395   1.362  0.00  0.00    -0.020 A 
ATOM     25  C   UNL     1       4.110  -1.734   1.281  0.00  0.00    +0.087 A 
ATOM     26  N   UNL     1       5.416  -2.141   1.272  0.00  0.00    -0.360 N 
ATOM     27  H   UNL     1       5.712  -3.064   1.219  0.00  0.00    +0.165 HD
ATOM     28  C   UNL     1       6.249  -1.047   1.348  0.00  0.00    +0.047 A 
ATOM     29  C   UNL     1       5.429   0.095   1.402  0.00  0.00    +0.003 A 
ATOM     30  C   UNL     1       6.006   1.363   1.479  0.00  0.00    +0.010 A 
ATOM     31  C   UNL     1       7.367   1.490   1.498  0.00  0.00    +0.001 A 
ATOM     32  C   UNL     1       8.180   0.366   1.442  0.00  0.00    +0.002 A 
ATOM     33  C   UNL     1       7.631  -0.896   1.373  0.00  0.00    +0.026 A 
ENDBRANCH  23  24
ENDBRANCH   1  23
TORSDOF 8
