REMARK  Name = ZINC03266417
REMARK  10 active torsions:
REMARK  status: ('A' for Active; 'I' for Inactive)
REMARK    1  A    between atoms: C_7  and  C_11
REMARK    2  A    between atoms: C_11  and  C_12
REMARK    3  A    between atoms: C_12  and  C_14
REMARK    4  A    between atoms: C_12  and  N_31
REMARK    5  A    between atoms: C_14  and  O_16
REMARK    6  A    between atoms: O_16  and  C_17
REMARK    7  A    between atoms: C_17  and  C_18
REMARK    8  A    between atoms: N_20  and  C_21
REMARK    9  A    between atoms: C_21  and  C_22
REMARK   10  A    between atoms: C_32  and  C_34
REMARK                            x       y       z     vdW  Elec       q    Type
REMARK                         _______ _______ _______ _____ _____    ______ ____
ROOT
ATOM      1  C   UNL     1      12.055  -2.272   0.720  0.00  0.00    +0.186 C 
ENDROOT
BRANCH   1   2
ATOM      2  N   UNL     1      12.834  -3.121  -0.185  0.00  0.00    -0.298 N 
ATOM      3  C   UNL     1      12.995  -2.761  -1.474  0.00  0.00    +0.251 C 
ATOM      4  O   UNL     1      12.493  -1.732  -1.886  0.00  0.00    -0.270 OA
ATOM      5  H   UNL     1      13.234  -3.941   0.143  0.00  0.00    +0.150 HD
BRANCH   3   6
ATOM      6  C   UNL     1      13.774  -3.610  -2.380  0.00  0.00    +0.074 A 
ATOM      7  C   UNL     1      14.056  -3.425  -3.724  0.00  0.00    +0.021 A 
ATOM      8  C   UNL     1      14.819  -4.386  -4.341  0.00  0.00    +0.008 A 
ATOM      9  C   UNL     1      15.254  -5.452  -3.620  0.00  0.00    +0.046 A 
ATOM     10  S   UNL     1      14.613  -5.147  -2.038  0.00  0.00    -0.092 S 
ENDBRANCH   3   6
ENDBRANCH   1   2
BRANCH   1  11
ATOM     11  C   UNL     1      10.647  -2.143   0.200  0.00  0.00    +0.328 C 
ATOM     12  O   UNL     1      10.408  -2.376  -0.961  0.00  0.00    -0.249 OA
BRANCH  11  13
ATOM     13  O   UNL     1       9.658  -1.768   1.027  0.00  0.00    -0.454 OA
BRANCH  13  14
ATOM     14  C   UNL     1       8.326  -1.665   0.457  0.00  0.00    +0.327 C 
BRANCH  14  15
ATOM     15  C   UNL     1       7.355  -1.236   1.526  0.00  0.00    +0.251 C 
ATOM     16  O   UNL     1       7.746  -1.037   2.657  0.00  0.00    -0.272 OA
ATOM     17  N   UNL     1       6.051  -1.073   1.226  0.00  0.00    -0.308 N 
ATOM     18  H   UNL     1       5.738  -1.231   0.322  0.00  0.00    +0.149 HD
BRANCH  17  19
ATOM     19  C   UNL     1       5.107  -0.655   2.265  0.00  0.00    +0.139 C 
BRANCH  19  20
ATOM     20  C   UNL     1       3.725  -0.548   1.674  0.00  0.00    -0.027 A 
ATOM     21  C   UNL     1       2.885  -1.646   1.677  0.00  0.00    +0.009 A 
ATOM     22  C   UNL     1       1.617  -1.553   1.135  0.00  0.00    +0.050 A 
ATOM     23  C   UNL     1       1.183  -0.356   0.589  0.00  0.00    +0.166 A 
ATOM     24  C   UNL     1       2.028   0.751   0.586  0.00  0.00    +0.167 A 
ATOM     25  C   UNL     1       3.298   0.650   1.131  0.00  0.00    +0.054 A 
ATOM     26  O   UNL     1       1.376   1.797  -0.001  0.00  0.00    -0.453 OA
ATOM     27  C   UNL     1      -0.018   1.436   0.010  0.00  0.00    +0.466 C 
ATOM     28  O   UNL     1       0.002  -0.004   0.002  0.00  0.00    -0.453 OA
ENDBRANCH  19  20
ENDBRANCH  17  19
ENDBRANCH  14  15
ENDBRANCH  13  14
ENDBRANCH  11  13
ENDBRANCH   1  11
BRANCH   1  29
ATOM     29  C   UNL     1      12.699  -0.887   0.800  0.00  0.00    +0.071 C 
BRANCH  29  36
ATOM     30  C   UNL     1      16.951  -1.893  -0.896  0.00  0.00    +0.001 A 
ATOM     31  C   UNL     1      17.939  -1.885   0.080  0.00  0.00    +0.002 A 
ATOM     32  C   UNL     1      17.628  -1.601   1.392  0.00  0.00    +0.026 A 
ATOM     33  C   UNL     1      16.312  -1.320   1.745  0.00  0.00    +0.047 A 
ATOM     34  C   UNL     1      15.315  -1.330   0.752  0.00  0.00    +0.003 A 
ATOM     35  C   UNL     1      15.652  -1.621  -0.571  0.00  0.00    +0.010 A 
ATOM     36  C   UNL     1      14.061  -1.001   1.435  0.00  0.00    -0.020 A 
ATOM     37  C   UNL     1      14.357  -0.816   2.731  0.00  0.00    +0.087 A 
ATOM     38  N   UNL     1      15.696  -1.007   2.936  0.00  0.00    -0.360 N 
ATOM     39  H   UNL     1      16.145  -0.930   3.792  0.00  0.00    +0.165 HD
ENDBRANCH  29  36
ENDBRANCH   1  29
TORSDOF 10
