REMARK  Name = ZINC14476576
REMARK  7 active torsions:
REMARK  status: ('A' for Active; 'I' for Inactive)
REMARK    1  A    between atoms: C_4  and  C_7
REMARK    2  A    between atoms: C_7  and  O_8
REMARK    3  A    between atoms: O_8  and  C_9
REMARK    4  A    between atoms: C_14  and  C_15
REMARK    5  A    between atoms: C_28  and  C_31
REMARK    6  A    between atoms: N_33  and  C_34
REMARK    7  A    between atoms: C_34  and  C_35
REMARK                            x       y       z     vdW  Elec       q    Type
REMARK                         _______ _______ _______ _____ _____    ______ ____
ROOT
ATOM      1  C   UNL     1      -5.469   4.695   7.287  0.00  0.00    +0.108 C 
ATOM      2  C   UNL     1      -4.940   5.723   8.265  0.00  0.00    +0.029 C 
ATOM      3  C   UNL     1      -5.700   5.921   9.582  0.00  0.00    +0.033 C 
ATOM      4  C   UNL     1      -4.573   6.358  10.521  0.00  0.00    -0.030 C 
ATOM      5  C   UNL     1      -3.412   5.879  10.089  0.00  0.00    -0.023 C 
ATOM      6  C   UNL     1      -3.661   5.068   8.873  0.00  0.00    +0.049 C 
ATOM      7  C   UNL     1      -2.679   4.948   7.773  0.00  0.00    -0.019 A 
ATOM      8  C   UNL     1      -1.324   5.055   7.997  0.00  0.00    +0.006 A 
ATOM      9  C   UNL     1      -0.418   4.902   6.960  0.00  0.00    +0.001 A 
ATOM     10  C   UNL     1      -0.872   4.632   5.688  0.00  0.00    +0.015 A 
ATOM     11  C   UNL     1      -2.240   4.532   5.441  0.00  0.00    +0.058 A 
ATOM     12  C   UNL     1      -3.169   4.700   6.488  0.00  0.00    +0.044 A 
ATOM     13  N   UNL     1      -4.515   4.629   6.169  0.00  0.00    -0.336 N 
ATOM     14  H   UNL     1      -4.752   5.298   5.452  0.00  0.00    +0.147 HD
ENDROOT
BRANCH   1  20
ATOM     15  C   UNL     1      -7.655   4.190   6.169  0.00  0.00    +0.126 A 
ATOM     16  C   UNL     1      -8.903   4.581   5.705  0.00  0.00    +0.046 A 
ATOM     17  C   UNL     1      -9.315   5.891   5.854  0.00  0.00    +0.004 A 
ATOM     18  C   UNL     1      -8.485   6.812   6.465  0.00  0.00    +0.001 A 
ATOM     19  C   UNL     1      -7.243   6.424   6.934  0.00  0.00    +0.009 A 
ATOM     20  C   UNL     1      -6.824   5.116   6.782  0.00  0.00    +0.015 A 
BRANCH  15  21
ATOM     21  O   UNL     1      -7.248   2.902   6.022  0.00  0.00    -0.487 OA
BRANCH  21  22
ATOM     22  C   UNL     1      -8.156   2.003   5.382  0.00  0.00    +0.264 C 
BRANCH  22  26
ATOM     23  C   UNL     1      -6.402  -1.887   5.176  0.00  0.00    +0.000 A 
ATOM     24  C   UNL     1      -7.165  -1.530   6.272  0.00  0.00    +0.000 A 
ATOM     25  C   UNL     1      -7.733  -0.271   6.339  0.00  0.00    +0.007 A 
ATOM     26  C   UNL     1      -7.537   0.631   5.310  0.00  0.00    -0.010 A 
ATOM     27  C   UNL     1      -6.778   0.272   4.211  0.00  0.00    +0.007 A 
ATOM     28  C   UNL     1      -6.206  -0.985   4.147  0.00  0.00    +0.000 A 
ENDBRANCH  22  26
ENDBRANCH  21  22
ENDBRANCH  15  21
ENDBRANCH   1  20
BRANCH  11  29
ATOM     29  C   UNL     1      -2.718   4.242   4.076  0.00  0.00    +0.246 C 
ATOM     30  O   UNL     1      -3.911   4.149   3.857  0.00  0.00    -0.270 OA
ATOM     31  N   UNL     1      -1.834   4.080   3.072  0.00  0.00    -0.309 N 
ATOM     32  H   UNL     1      -0.883   4.154   3.247  0.00  0.00    +0.149 HD
BRANCH  31  33
ATOM     33  C   UNL     1      -2.309   3.792   1.717  0.00  0.00    +0.136 C 
BRANCH  33  34
ATOM     34  C   UNL     1      -1.112   3.655   0.774  0.00  0.00    +0.135 C 
ATOM     35  C   UNL     1      -1.587   3.475  -0.690  0.00  0.00    +0.035 C 
ATOM     36  C   UNL     1      -0.384   2.744  -1.334  0.00  0.00    +0.031 C 
ATOM     37  C   UNL     1       0.364   2.122  -0.138  0.00  0.00    +0.160 C 
ATOM     38  O   UNL     1      -0.384   2.437   1.048  0.00  0.00    -0.375 OA
ENDBRANCH  33  34
ENDBRANCH  31  33
ENDBRANCH  11  29
TORSDOF 7
