REMARK  Name = ZINC09540921
REMARK  8 active torsions:
REMARK  status: ('A' for Active; 'I' for Inactive)
REMARK    1  A    between atoms: C_1  and  O_2
REMARK    2  A    between atoms: O_2  and  C_3
REMARK    3  A    between atoms: C_6  and  C_9
REMARK    4  A    between atoms: C_11  and  C_15
REMARK    5  A    between atoms: C_18  and  S_21
REMARK    6  A    between atoms: N_19  and  N_20
REMARK    7  A    between atoms: S_21  and  C_22
REMARK    8  A    between atoms: C_22  and  C_23
REMARK                            x       y       z     vdW  Elec       q    Type
REMARK                         _______ _______ _______ _____ _____    ______ ____
ROOT
ATOM      1  C   UNL     1       3.772  -5.445   6.202  0.00  0.00    +0.199 A 
ATOM      2  N   UNL     1       3.287  -6.615   5.852  0.00  0.00    -0.125 NA
ATOM      3  N   UNL     1       3.831  -7.543   6.555  0.00  0.00    -0.120 NA
ATOM      4  C   UNL     1       4.696  -7.024   7.397  0.00  0.00    +0.209 A 
ATOM      5  N   UNL     1       4.694  -5.673   7.199  0.00  0.00    -0.223 N 
ENDROOT
BRANCH   1   8
ATOM      6  C   UNL     1       2.579  -2.541   4.295  0.00  0.00    +0.093 A 
ATOM      7  C   UNL     1       2.716  -3.928   4.467  0.00  0.00    +0.061 A 
ATOM      8  C   UNL     1       3.403  -4.138   5.631  0.00  0.00    +0.105 A 
ATOM      9  N   UNL     1       3.684  -2.914   6.167  0.00  0.00    -0.273 N 
ATOM     10  H   UNL     1       4.164  -2.750   6.994  0.00  0.00    +0.189 HD
ATOM     11  N   UNL     1       3.162  -1.937   5.309  0.00  0.00    -0.173 NA
BRANCH   6  15
ATOM     12  C   UNL     1       0.626  -0.618   1.041  0.00  0.00    +0.120 A 
ATOM     13  C   UNL     1       1.202   0.141   2.050  0.00  0.00    +0.046 A 
ATOM     14  C   UNL     1       1.835  -0.479   3.107  0.00  0.00    +0.013 A 
ATOM     15  C   UNL     1       1.897  -1.870   3.160  0.00  0.00    +0.002 A 
ATOM     16  C   UNL     1       1.318  -2.630   2.146  0.00  0.00    +0.013 A 
ATOM     17  C   UNL     1       0.681  -2.004   1.095  0.00  0.00    +0.046 A 
BRANCH  12  19
ATOM     18  C   UNL     1      -0.017   1.425   0.010  0.00  0.00    +0.277 C 
ATOM     19  O   UNL     1       0.002  -0.004   0.002  0.00  0.00    -0.495 OA
ENDBRANCH  12  19
ENDBRANCH   6  15
ENDBRANCH   1   8
BRANCH   5  20
ATOM     20  N   UNL     1       5.446  -4.740   7.856  0.00  0.00    -0.295 N 
ATOM     21  H   UNL     1       4.967  -4.402   8.677  0.00  0.00    +0.163 HD
ATOM     22  H   UNL     1       6.354  -5.111   8.093  0.00  0.00    +0.163 HD
ENDBRANCH   5  20
BRANCH   4  23
ATOM     23  S   UNL     1       5.681  -7.908   8.560  0.00  0.00    -0.080 S 
BRANCH  23  24
ATOM     24  C   UNL     1       5.213  -9.642   8.304  0.00  0.00    +0.115 C 
BRANCH  24  25
ATOM     25  C   UNL     1       5.994 -10.518   9.250  0.00  0.00    -0.001 A 
ATOM     26  C   UNL     1       7.221 -11.028   8.867  0.00  0.00    +0.046 A 
ATOM     27  C   UNL     1       7.937 -11.832   9.736  0.00  0.00    +0.020 A 
ATOM     28  C   UNL     1       7.427 -12.126  10.986  0.00  0.00    +0.003 A 
ATOM     29  C   UNL     1       6.200 -11.616  11.370  0.00  0.00    +0.020 A 
ATOM     30  C   UNL     1       5.486 -10.807  10.504  0.00  0.00    +0.046 A 
ATOM     31 CL   UNL     1       3.950 -10.160  10.989  0.00  0.00    -0.083 Cl
ATOM     32 CL   UNL     1       7.862 -10.660   7.296  0.00  0.00    -0.083 Cl
ENDBRANCH  24  25
ENDBRANCH  23  24
ENDBRANCH   4  23
TORSDOF 7
