REMARK  Name = ZINC39851992
REMARK  5 active torsions:
REMARK  status: ('A' for Active; 'I' for Inactive)
REMARK    1  A    between atoms: C_1  and  C_2
REMARK    2  A    between atoms: C_6  and  C_7
REMARK    3  A    between atoms: N_9  and  N_10
REMARK    4  A    between atoms: C_11  and  C_13
REMARK    5  A    between atoms: C_16  and  N_19
REMARK                            x       y       z     vdW  Elec       q    Type
REMARK                         _______ _______ _______ _____ _____    ______ ____
ROOT
ATOM      1  C   UNL     1       0.032  -0.396   2.496  0.00  0.00    +0.296 C 
ATOM      2  O   UNL     1       0.019   0.790   2.769  0.00  0.00    -0.265 OA
ATOM      3  N   UNL     1       0.054  -1.314   3.483  0.00  0.00    -0.228 N 
ATOM      4  H   UNL     1       0.065  -2.260   3.265  0.00  0.00    +0.173 HD
ENDROOT
BRANCH   1  10
ATOM      5  C   UNL     1      -0.018   1.503   0.010  0.00  0.00    +0.048 C 
ATOM      6  C   UNL     1       0.002  -0.004   0.002  0.00  0.00    +0.006 A 
ATOM      7  C   UNL     1       0.008  -0.832  -1.122  0.00  0.00    +0.023 A 
ATOM      8  C   UNL     1       0.027  -2.117  -0.677  0.00  0.00    +0.112 A 
ATOM      9  O   UNL     1       0.034  -2.105   0.657  0.00  0.00    -0.454 OA
ATOM     10  C   UNL     1       0.024  -0.827   1.094  0.00  0.00    +0.194 A 
ATOM     11  C   UNL     1       0.037  -3.315  -1.594  0.00  0.00    +0.075 C 
ATOM     12  C   UNL     1      -0.430  -2.879  -2.987  0.00  0.00    +0.010 C 
ATOM     13  C   UNL     1       0.365  -1.650  -3.440  0.00  0.00    +0.034 C 
ATOM     14  C   UNL     1      -0.002  -0.458  -2.570  0.00  0.00    +0.090 C 
ATOM     15  S   UNL     1      -1.626   0.223  -3.057  0.00  0.00    -0.138 S 
ATOM     16  C   UNL     1      -1.270   1.938  -3.586  0.00  0.00    +0.081 C 
ATOM     17  C   UNL     1       0.194   1.954  -4.096  0.00  0.00    +0.081 C 
ATOM     18  S   UNL     1       1.135   0.942  -2.885  0.00  0.00    -0.138 S 
ENDBRANCH   1  10
BRANCH   3  19
ATOM     19  N   UNL     1       0.062  -0.903   4.822  0.00  0.00    -0.230 N 
ATOM     20  C   UNL     1       0.084  -1.821   5.809  0.00  0.00    +0.260 C 
ATOM     21  O   UNL     1       0.098  -3.006   5.536  0.00  0.00    -0.269 OA
ATOM     22  H   UNL     1       0.051   0.042   5.039  0.00  0.00    +0.173 HD
BRANCH  20  23
ATOM     23  C   UNL     1       0.092  -1.387   7.222  0.00  0.00    +0.038 A 
ATOM     24  C   UNL     1       0.071  -0.028   7.538  0.00  0.00    +0.015 A 
ATOM     25  C   UNL     1       0.078   0.370   8.859  0.00  0.00    +0.033 A 
ATOM     26  C   UNL     1       0.107  -0.575   9.869  0.00  0.00    +0.126 A 
ATOM     27  C   UNL     1       0.129  -1.924   9.563  0.00  0.00    +0.033 A 
ATOM     28  C   UNL     1       0.115  -2.335   8.246  0.00  0.00    +0.015 A 
BRANCH  26  29
ATOM     29  N   UNL     1       0.115  -0.140  11.284  0.00  0.00    +0.056 N 
ATOM     30  O   UNL     1       0.097   1.038  11.555  0.00  0.00    -0.126 OA
ATOM     31  O   UNL     1       0.140  -0.964  12.169  0.00  0.00    -0.126 OA
ENDBRANCH  26  29
ENDBRANCH  20  23
ENDBRANCH   3  19
TORSDOF 4
