REMARK  Name = ZINC04727429
REMARK  1 active torsions:
REMARK  status: ('A' for Active; 'I' for Inactive)
REMARK    1  A    between atoms: C_8  and  C_10
REMARK                            x       y       z     vdW  Elec       q    Type
REMARK                         _______ _______ _______ _____ _____    ______ ____
ROOT
ATOM      1  C   UNL     1       3.140   6.435   0.007  0.00  0.00    +0.259 C 
ATOM      2  O   UNL     1       4.320   6.144   0.063  0.00  0.00    -0.269 OA
ATOM      3  N   UNL     1       2.768   7.728  -0.085  0.00  0.00    -0.256 N 
ATOM      4  C   UNL     1       1.349   8.111  -0.079  0.00  0.00    +0.210 C 
ATOM      5  C   UNL     1       1.121   9.183  -1.108  0.00  0.00    +0.235 C 
ATOM      6  O   UNL     1       0.037   9.278  -1.643  0.00  0.00    -0.274 OA
ATOM      7  N   UNL     1       2.107  10.036  -1.446  0.00  0.00    -0.283 N 
ATOM      8  C   UNL     1       3.381   9.916  -0.881  0.00  0.00    +0.055 A 
ATOM      9  C   UNL     1       3.723   8.749  -0.194  0.00  0.00    +0.058 A 
ATOM     10  C   UNL     1       4.982   8.614   0.363  0.00  0.00    +0.025 A 
ATOM     11  C   UNL     1       5.901   9.642   0.241  0.00  0.00    +0.002 A 
ATOM     12  C   UNL     1       5.563  10.799  -0.435  0.00  0.00    +0.002 A 
ATOM     13  C   UNL     1       4.307  10.940  -0.996  0.00  0.00    +0.025 A 
ATOM     14  H   UNL     1       1.931  10.741  -2.088  0.00  0.00    +0.155 HD
ENDROOT
BRANCH   1  22
ATOM     15  C   UNL     1      -0.218   1.249  -0.691  0.00  0.00    +0.001 A 
ATOM     16  C   UNL     1      -1.256   1.757   0.081  0.00  0.00    +0.001 A 
ATOM     17  C   UNL     1      -1.143   3.021   0.624  0.00  0.00    +0.016 A 
ATOM     18  C   UNL     1      -0.007   3.765   0.384  0.00  0.00    +0.021 A 
ATOM     19  C   UNL     1       1.062   3.275  -0.403  0.00  0.00    +0.008 A 
ATOM     20  C   UNL     1       0.906   1.970  -0.936  0.00  0.00    +0.010 A 
ATOM     21  C   UNL     1       2.151   4.154  -0.555  0.00  0.00    +0.068 A 
ATOM     22  C   UNL     1       2.121   5.379   0.038  0.00  0.00    +0.094 A 
ATOM     23  S   UNL     1       0.539   5.384   0.863  0.00  0.00    -0.082 S 
ATOM     24 CL   UNL     1       3.529   3.677  -1.496  0.00  0.00    -0.082 Cl
ENDBRANCH   1  22
TORSDOF 1
