REMARK  Name = ZINC43011210
REMARK  9 active torsions:
REMARK  status: ('A' for Active; 'I' for Inactive)
REMARK    1  A    between atoms: C_1  and  C_2
REMARK    2  A    between atoms: C_2  and  O_3
REMARK    3  A    between atoms: O_3  and  C_4
REMARK    4  A    between atoms: N_7  and  C_20
REMARK    5  A    between atoms: C_9  and  N_11
REMARK    6  A    between atoms: C_12  and  C_14
REMARK    7  A    between atoms: C_20  and  C_21
REMARK    8  A    between atoms: N_23  and  C_24
REMARK    9  A    between atoms: C_27  and  N_31
REMARK                            x       y       z     vdW  Elec       q    Type
REMARK                         _______ _______ _______ _____ _____    ______ ____
ROOT
ATOM      1  C   UNL     1       0.770  -1.891   1.233  0.00  0.00    +0.120 C 
ATOM      2  C   UNL     1       2.093  -2.413   0.618  0.00  0.00    -0.044 C 
ATOM      3  N   UNL     1       2.302  -3.710   1.311  0.00  0.00    +0.388 N 
ATOM      4  C   UNL     1       1.893  -3.488   2.715  0.00  0.00    -0.053 C 
ATOM      5  C   UNL     1       0.877  -2.327   2.712  0.00  0.00    +0.084 C 
ATOM      6  H   UNL     1       1.727  -4.426   0.890  0.00  0.00    -0.081 HD
ENDROOT
BRANCH   5   7
ATOM      7  N   UNL     1      -0.426  -2.786   3.202  0.00  0.00    -0.307 N 
ATOM      8  C   UNL     1      -0.707  -2.732   4.519  0.00  0.00    +0.251 C 
ATOM      9  O   UNL     1       0.121  -2.303   5.302  0.00  0.00    -0.270 OA
ATOM     10  H   UNL     1      -1.085  -3.128   2.579  0.00  0.00    +0.149 HD
BRANCH   8  11
ATOM     11  C   UNL     1      -2.009  -3.191   5.009  0.00  0.00    +0.075 A 
ATOM     12  C   UNL     1      -2.495  -3.215   6.308  0.00  0.00    +0.022 A 
ATOM     13  C   UNL     1      -3.768  -3.707   6.460  0.00  0.00    +0.028 A 
ATOM     14  C   UNL     1      -4.449  -4.125   5.362  0.00  0.00    +0.079 A 
ATOM     15  S   UNL     1      -3.384  -3.855   4.091  0.00  0.00    -0.072 S 
ATOM     16 CL   UNL     1      -6.055  -4.780   5.288  0.00  0.00    -0.076 Cl
ENDBRANCH   8  11
ENDBRANCH   5   7
BRANCH   1  17
ATOM     17  O   UNL     1       0.691  -0.468   1.129  0.00  0.00    -0.377 OA
BRANCH  17  19
ATOM     18  C   UNL     1      -0.028   1.522  -0.038  0.00  0.00    +0.034 C 
ATOM     19  C   UNL     1      -0.004  -0.008  -0.031  0.00  0.00    +0.157 C 
ENDBRANCH  17  19
ENDBRANCH   1  17
BRANCH   3  20
ATOM     20  C   UNL     1       3.718  -4.095   1.250  0.00  0.00    +0.019 C 
BRANCH  20  21
ATOM     21  C   UNL     1       4.099  -4.384  -0.179  0.00  0.00    +0.201 C 
ATOM     22  O   UNL     1       3.272  -4.280  -1.060  0.00  0.00    -0.278 OA
ATOM     23  N   UNL     1       5.359  -4.758  -0.478  0.00  0.00    -0.285 N 
ATOM     24  H   UNL     1       6.036  -4.780   0.216  0.00  0.00    +0.155 HD
BRANCH  23  25
ATOM     25  C   UNL     1       5.691  -5.116  -1.792  0.00  0.00    +0.069 A 
ATOM     26  C   UNL     1       5.083  -4.472  -2.861  0.00  0.00    +0.028 A 
ATOM     27  C   UNL     1       5.410  -4.823  -4.155  0.00  0.00    +0.028 A 
ATOM     28  C   UNL     1       6.347  -5.822  -4.389  0.00  0.00    +0.052 A 
ATOM     29  C   UNL     1       6.956  -6.467  -3.321  0.00  0.00    +0.066 A 
ATOM     30  C   UNL     1       6.633  -6.112  -2.025  0.00  0.00    +0.146 A 
ATOM     31  F   UNL     1       7.229  -6.735  -0.985  0.00  0.00    -0.203 F 
BRANCH  28  32
ATOM     32  N   UNL     1       6.677  -6.178  -5.703  0.00  0.00    -0.284 N 
ATOM     33  C   UNL     1       6.365  -7.419  -6.161  0.00  0.00    +0.095 A 
ATOM     34  C   UNL     1       6.674  -7.786  -7.427  0.00  0.00    +0.018 A 
ATOM     35  C   UNL     1       7.323  -6.881  -8.279  0.00  0.00    +0.007 A 
ATOM     36  C   UNL     1       7.635  -5.636  -7.817  0.00  0.00    +0.071 A 
ATOM     37  C   UNL     1       7.296  -5.286  -6.499  0.00  0.00    +0.256 A 
ATOM     38  O   UNL     1       7.565  -4.173  -6.075  0.00  0.00    -0.267 OA
ENDBRANCH  28  32
ENDBRANCH  23  25
ENDBRANCH  20  21
ENDBRANCH   3  20
TORSDOF 8
