REMARK  Name = ZINC00089721
REMARK  2 active torsions:
REMARK  status: ('A' for Active; 'I' for Inactive)
REMARK    1  A    between atoms: C_3  and  C_9
REMARK    2  A    between atoms: C_11  and  N_18
REMARK                            x       y       z     vdW  Elec       q    Type
REMARK                         _______ _______ _______ _____ _____    ______ ____
ROOT
ATOM      1  C   UNL     1       3.671   2.185  -0.023  0.00  0.00    +0.134 C 
ATOM      2  C   UNL     1       4.253   2.213   1.391  0.00  0.00    +0.195 C 
ATOM      3  C   UNL     1       5.441   3.182   1.414  0.00  0.00    +0.043 C 
ATOM      4  C   UNL     1       4.911   4.603   1.203  0.00  0.00    +0.098 C 
ATOM      5  C   UNL     1       3.982   4.631   0.024  0.00  0.00    +0.214 C 
ATOM      6  O   UNL     1       3.729   5.705  -0.482  0.00  0.00    -0.276 OA
ATOM      7  N   UNL     1       3.420   3.542  -0.493  0.00  0.00    -0.306 N 
ATOM      8  H   UNL     1       2.804   3.659  -1.234  0.00  0.00    +0.149 HD
ENDROOT
BRANCH   1  11
ATOM      9  C   UNL     1      -0.017   1.379   0.010  0.00  0.00    +0.020 A 
ATOM     10  C   UNL     1       1.171   2.087   0.002  0.00  0.00    +0.008 A 
ATOM     11  C   UNL     1       2.377   1.413  -0.013  0.00  0.00    -0.007 A 
ATOM     12  C   UNL     1       2.397   0.029  -0.021  0.00  0.00    +0.047 A 
ATOM     13  C   UNL     1       1.210  -0.679  -0.013  0.00  0.00    +0.040 A 
ATOM     14  C   UNL     1       0.002  -0.004   0.002  0.00  0.00    +0.042 A 
ATOM     15 CL   UNL     1      -1.489  -0.893   0.012  0.00  0.00    -0.083 Cl
ATOM     16 CL   UNL     1       3.913  -0.817  -0.041  0.00  0.00    -0.083 Cl
ENDBRANCH   1  11
BRANCH   2  17
ATOM     17  N   UNL     1       3.229   2.664   2.336  0.00  0.00    +0.028 N 
ATOM     18  O   UNL     1       2.885   1.944   3.244  0.00  0.00    -0.131 OA
ATOM     19  O   UNL     1       2.727   3.756   2.207  0.00  0.00    -0.131 OA
ENDBRANCH   2  17
TORSDOF 2
