REMARK  Name = ZINC63385240
REMARK  7 active torsions:
REMARK  status: ('A' for Active; 'I' for Inactive)
REMARK    1  A    between atoms: C_1  and  C_2
REMARK    2  A    between atoms: C_2  and  C_3
REMARK    3  A    between atoms: C_2  and  C_4
REMARK    4  A    between atoms: C_4  and  C_5
REMARK    5  A    between atoms: C_5  and  N_6
REMARK    6  A    between atoms: C_21  and  O_26
REMARK    7  A    between atoms: O_26  and  C_27
REMARK                            x       y       z     vdW  Elec       q    Type
REMARK                         _______ _______ _______ _____ _____    ______ ____
ROOT
ATOM      1  N   UNL     1       2.873  -0.545  -2.413  0.00  0.00    -0.269 N 
ATOM      2  C   UNL     1       3.495  -1.777  -2.516  0.00  0.00    +0.042 A 
ATOM      3  C   UNL     1       3.609  -2.795  -1.567  0.00  0.00    +0.024 A 
ATOM      4  C   UNL     1       4.294  -3.939  -1.944  0.00  0.00    +0.002 A 
ATOM      5  C   UNL     1       4.847  -4.079  -3.201  0.00  0.00    +0.000 A 
ATOM      6  C   UNL     1       4.741  -3.073  -4.155  0.00  0.00    +0.008 A 
ATOM      7  C   UNL     1       4.059  -1.932  -3.788  0.00  0.00    +0.005 A 
ATOM      8  C   UNL     1       3.751  -0.676  -4.538  0.00  0.00    +0.148 C 
ATOM      9  C   UNL     1       2.968   0.167  -3.555  0.00  0.00    +0.247 C 
ATOM     10  O   UNL     1       2.513   1.273  -3.755  0.00  0.00    -0.273 OA
ATOM     11  C   UNL     1       2.899  -0.965  -5.771  0.00  0.00    +0.140 C 
ATOM     12  C   UNL     1       3.813  -1.671  -6.766  0.00  0.00    -0.035 C 
ATOM     13  C   UNL     1       3.200  -2.795  -7.106  0.00  0.00    +0.003 A 
ATOM     14  C   UNL     1       3.534  -3.844  -8.083  0.00  0.00    +0.055 A 
ATOM     15  C   UNL     1       2.674  -4.895  -8.169  0.00  0.00    +0.121 A 
ATOM     16  C   UNL     1       1.513  -5.024  -7.393  0.00  0.00    +0.047 A 
ATOM     17  C   UNL     1       1.107  -4.116  -6.470  0.00  0.00    +0.029 A 
ATOM     18  C   UNL     1       1.954  -2.929  -6.288  0.00  0.00    +0.043 A 
ATOM     19  N   UNL     1       1.799  -1.889  -5.499  0.00  0.00    -0.375 N 
ATOM     20  C   UNL     1       5.175  -1.121  -7.117  0.00  0.00    +0.048 C 
ATOM     21  C   UNL     1       5.863  -0.792  -5.780  0.00  0.00    +0.086 C 
ATOM     22  N   UNL     1       4.977   0.020  -4.940  0.00  0.00    -0.297 NA
ATOM     23  H   UNL     1       4.764   0.900  -5.385  0.00  0.00    +0.123 HD
ATOM     24  H   UNL     1       1.091  -1.753  -4.850  0.00  0.00    +0.160 HD
ENDROOT
BRANCH  15  25
ATOM     25  O   UNL     1       2.957  -5.879  -9.063  0.00  0.00    -0.495 OA
ATOM     26  C   UNL     1       2.039  -6.973  -9.136  0.00  0.00    +0.277 C 
ENDBRANCH  15  25
BRANCH   1  27
ATOM     27  C   UNL     1       2.187  -0.073  -1.207  0.00  0.00    +0.114 C 
BRANCH  27  28
ATOM     28  C   UNL     1       0.718  -0.497  -1.257  0.00  0.00    +0.022 C 
BRANCH  28  30
ATOM     29  C   UNL     1      -0.019   1.526   0.010  0.00  0.00    +0.007 C 
ATOM     30  C   UNL     1       0.002  -0.004   0.002  0.00  0.00    -0.016 C 
ATOM     31  C   UNL     1      -1.433  -0.534   0.013  0.00  0.00    +0.007 C 
ENDBRANCH  28  30
ENDBRANCH  27  28
ENDBRANCH   1  27
TORSDOF 4
