REMARK  Name = ZINC12865116
REMARK  7 active torsions:
REMARK  status: ('A' for Active; 'I' for Inactive)
REMARK    1  A    between atoms: C_1  and  C_2
REMARK    2  A    between atoms: C_2  and  C_27
REMARK    3  A    between atoms: C_10  and  C_12
REMARK    4  A    between atoms: C_18  and  C_20
REMARK    5  A    between atoms: C_20  and  C_21
REMARK    6  A    between atoms: C_20  and  C_22
REMARK    7  A    between atoms: C_20  and  C_23
REMARK                            x       y       z     vdW  Elec       q    Type
REMARK                         _______ _______ _______ _____ _____    ______ ____
ROOT
ATOM      1  C   UNL     1      -4.712  -4.068  -5.738  0.00  0.00    +0.011 C 
ATOM      2  C   UNL     1      -5.084  -4.882  -4.497  0.00  0.00    -0.022 C 
ATOM      3  C   UNL     1      -3.853  -5.018  -3.596  0.00  0.00    +0.063 C 
ATOM      4  C   UNL     1      -3.443  -3.623  -3.141  0.00  0.00    +0.062 A 
ATOM      5  C   UNL     1      -4.426  -2.629  -3.048  0.00  0.00    +0.079 A 
ATOM      6  S   UNL     1      -3.498  -1.227  -2.502  0.00  0.00    -0.049 S 
ATOM      7  C   UNL     1      -1.946  -2.010  -2.434  0.00  0.00    +0.165 A 
ATOM      8  N   UNL     1      -2.227  -3.245  -2.825  0.00  0.00    -0.229 NA
ATOM      9  N   UNL     1      -0.724  -1.476  -2.069  0.00  0.00    -0.264 N 
ATOM     10  C   UNL     1      -0.636  -0.182  -1.703  0.00  0.00    +0.222 C 
ATOM     11  O   UNL     1      -1.629   0.514  -1.694  0.00  0.00    -0.275 OA
ATOM     12  C   UNL     1      -5.776  -2.797  -3.334  0.00  0.00    +0.172 C 
ATOM     13  O   UNL     1      -6.562  -1.875  -3.246  0.00  0.00    -0.291 OA
ATOM     14  C   UNL     1      -6.227  -4.182  -3.761  0.00  0.00    +0.087 C 
ATOM     15  C   UNL     1      -5.545  -6.275  -4.929  0.00  0.00    +0.011 C 
ATOM     16  H   UNL     1       0.070  -2.033  -2.077  0.00  0.00    +0.157 HD
ENDROOT
BRANCH  10  17
ATOM     17  C   UNL     1       0.696   0.400  -1.306  0.00  0.00    +0.078 C 
ATOM     18  C   UNL     1       0.519   1.875  -0.938  0.00  0.00    +0.032 C 
ATOM     19  C   UNL     1       1.881   2.471  -0.568  0.00  0.00    +0.108 C 
ATOM     20  N   UNL     1       2.483   1.653   0.493  0.00  0.00    -0.301 N 
ATOM     21  C   UNL     1       2.617   0.206   0.280  0.00  0.00    +0.108 C 
ATOM     22  C   UNL     1       1.248  -0.365  -0.100  0.00  0.00    +0.032 C 
ATOM     23  C   UNL     1       2.905   2.220   1.641  0.00  0.00    +0.221 C 
ATOM     24  O   UNL     1       3.303   1.523   2.551  0.00  0.00    -0.275 OA
BRANCH  23  25
ATOM     25  C   UNL     1       2.881   3.719   1.795  0.00  0.00    +0.039 C 
ATOM     26  C   UNL     1       3.582   4.109   3.098  0.00  0.00    +0.020 C 
ATOM     27  C   UNL     1       3.607   4.364   0.613  0.00  0.00    +0.020 C 
ATOM     28  C   UNL     1       1.431   4.205   1.830  0.00  0.00    +0.020 C 
ENDBRANCH  23  25
ENDBRANCH  10  17
TORSDOF 2
