REMARK  Name = ZINC40096739
REMARK  8 active torsions:
REMARK  status: ('A' for Active; 'I' for Inactive)
REMARK    1  A    between atoms: C_1  and  C_2
REMARK    2  A    between atoms: C_2  and  C_3
REMARK    3  A    between atoms: C_3  and  C_4
REMARK    4  A    between atoms: C_4  and  N_5
REMARK    5  A    between atoms: C_6  and  C_25
REMARK    6  A    between atoms: C_8  and  C_13
REMARK    7  A    between atoms: C_13  and  C_15
REMARK    8  A    between atoms: C_28  and  O_31
REMARK                            x       y       z     vdW  Elec       q    Type
REMARK                         _______ _______ _______ _____ _____    ______ ____
ROOT
ATOM      1  N   UNL     1      -2.845  -2.512  -0.008  0.00  0.00    -0.284 N 
ATOM      2  C   UNL     1      -3.565  -2.914   1.206  0.00  0.00    +0.145 C 
ATOM      3  C   UNL     1      -4.919  -3.405   0.750  0.00  0.00    +0.076 C 
ATOM      4  C   UNL     1      -4.944  -3.284  -0.598  0.00  0.00    +0.249 C 
ATOM      5  C   UNL     1      -3.656  -2.724  -1.059  0.00  0.00    +0.288 C 
ATOM      6  O   UNL     1      -3.372  -2.492  -2.218  0.00  0.00    -0.266 OA
ATOM      7  O   UNL     1      -5.985  -3.617  -1.396  0.00  0.00    -0.282 OA
ENDROOT
BRANCH   2   8
ATOM      8  C   UNL     1      -2.821  -4.021   1.907  0.00  0.00    -0.022 A 
ATOM      9  C   UNL     1      -2.317  -5.083   1.179  0.00  0.00    +0.009 A 
ATOM     10  C   UNL     1      -1.635  -6.100   1.819  0.00  0.00    +0.046 A 
ATOM     11  C   UNL     1      -1.455  -6.054   3.194  0.00  0.00    +0.117 A 
ATOM     12  C   UNL     1      -1.961  -4.987   3.922  0.00  0.00    +0.046 A 
ATOM     13  C   UNL     1      -2.638  -3.971   3.277  0.00  0.00    +0.009 A 
BRANCH  11  14
ATOM     14  O   UNL     1      -0.785  -7.053   3.826  0.00  0.00    -0.507 OA
ATOM     15  H   UNL     1       0.168  -6.905   3.895  0.00  0.00    +0.292 HD
ENDBRANCH  11  14
ENDBRANCH   2   8
BRANCH   3  16
ATOM     16  C   UNL     1      -5.998  -3.914   1.602  0.00  0.00    +0.195 C 
ATOM     17  O   UNL     1      -6.339  -5.079   1.521  0.00  0.00    -0.287 OA
BRANCH  16  18
ATOM     18  C   UNL     1      -6.670  -3.013   2.559  0.00  0.00    +0.026 A 
ATOM     19  C   UNL     1      -6.368  -1.648   2.568  0.00  0.00    +0.015 A 
ATOM     20  C   UNL     1      -6.995  -0.811   3.463  0.00  0.00    +0.050 A 
ATOM     21  C   UNL     1      -7.931  -1.317   4.359  0.00  0.00    +0.162 A 
ATOM     22  C   UNL     1      -8.239  -2.676   4.353  0.00  0.00    +0.163 A 
ATOM     23  C   UNL     1      -7.615  -3.521   3.455  0.00  0.00    +0.061 A 
ATOM     24  O   UNL     1      -9.158  -3.185   5.218  0.00  0.00    -0.485 OA
ATOM     25  C   UNL     1      -9.495  -2.374   6.349  0.00  0.00    +0.270 C 
ATOM     26  C   UNL     1      -9.736  -0.940   5.858  0.00  0.00    +0.270 C 
ATOM     27  O   UNL     1      -8.536  -0.472   5.235  0.00  0.00    -0.485 OA
ENDBRANCH  16  18
ENDBRANCH   3  16
BRANCH   1  28
ATOM     28  C   UNL     1      -1.485  -1.970  -0.064  0.00  0.00    +0.109 C 
BRANCH  28  29
ATOM     29  C   UNL     1      -1.539  -0.445   0.054  0.00  0.00    +0.019 C 
BRANCH  29  31
ATOM     30  C   UNL     1      -0.172   1.646   0.113  0.00  0.00    +0.004 C 
ATOM     31  C   UNL     1      -0.119   0.121  -0.004  0.00  0.00    -0.002 C 
ENDBRANCH  29  31
ENDBRANCH  28  29
ENDBRANCH   1  28
TORSDOF 7
