REMARK  Name = ZINC12704052
REMARK  11 active torsions:
REMARK  status: ('A' for Active; 'I' for Inactive)
REMARK    1  A    between atoms: C_1  and  C_2
REMARK    2  A    between atoms: C_5  and  C_7
REMARK    3  A    between atoms: N_10  and  C_12
REMARK    4  A    between atoms: C_12  and  C_13
REMARK    5  A    between atoms: N_15  and  C_16
REMARK    6  A    between atoms: N_15  and  C_23
REMARK    7  A    between atoms: C_20  and  O_22
REMARK    8  A    between atoms: C_23  and  C_25
REMARK    9  A    between atoms: C_23  and  C_31
REMARK   10  A    between atoms: C_28  and  C_30
REMARK   11  A    between atoms: N_33  and  C_34
REMARK                            x       y       z     vdW  Elec       q    Type
REMARK                         _______ _______ _______ _____ _____    ______ ____
ROOT
ATOM      1  C   UNL     1      -1.235   5.907  -0.057  0.00  0.00    +0.244 C 
ATOM      2  O   UNL     1      -1.228   7.095   0.188  0.00  0.00    -0.273 OA
ATOM      3  N   UNL     1      -0.081   5.270  -0.337  0.00  0.00    -0.251 N 
ENDROOT
BRANCH   3   4
ATOM      4  C   UNL     1      -0.056   3.873  -0.426  0.00  0.00    +0.041 A 
ATOM      5  C   UNL     1       1.092   3.224  -0.862  0.00  0.00    +0.024 A 
ATOM      6  C   UNL     1       1.116   1.846  -0.950  0.00  0.00    +0.005 A 
ATOM      7  C   UNL     1      -0.001   1.109  -0.604  0.00  0.00    +0.045 A 
ATOM      8  C   UNL     1      -1.152   1.753  -0.172  0.00  0.00    +0.119 A 
ATOM      9  C   UNL     1      -1.179   3.135  -0.078  0.00  0.00    +0.069 A 
BRANCH   8  10
ATOM     10  O   UNL     1      -2.252   1.027   0.162  0.00  0.00    -0.507 OA
ATOM     11  H   UNL     1      -2.284   0.769   1.093  0.00  0.00    +0.292 HD
ENDBRANCH   8  10
ENDBRANCH   3   4
BRANCH   1  12
ATOM     12  C   UNL     1      -2.534   5.144  -0.050  0.00  0.00    +0.264 C 
BRANCH  12  16
ATOM     13  C   UNL     1      -5.220   7.432   0.064  0.00  0.00    +0.239 A 
ATOM     14  N   UNL     1      -5.097   7.225  -1.256  0.00  0.00    -0.105 NA
ATOM     15  N   UNL     1      -4.129   6.390  -1.424  0.00  0.00    -0.045 NA
ATOM     16  N   UNL     1      -3.647   6.071  -0.274  0.00  0.00    -0.154 N 
ATOM     17  N   UNL     1      -4.298   6.690   0.649  0.00  0.00    -0.127 NA
BRANCH  13  22
ATOM     18  C   UNL     1      -7.740   9.859   3.664  0.00  0.00    +0.086 C 
ATOM     19  C   UNL     1      -7.304   9.380   2.303  0.00  0.00    +0.103 A 
ATOM     20  C   UNL     1      -7.850   9.750   1.128  0.00  0.00    +0.045 A 
ATOM     21  C   UNL     1      -7.141   9.075   0.114  0.00  0.00    +0.053 A 
ATOM     22  C   UNL     1      -6.199   8.316   0.733  0.00  0.00    +0.175 A 
ATOM     23  O   UNL     1      -6.307   8.514   2.060  0.00  0.00    -0.457 OA
ENDBRANCH  13  22
ENDBRANCH  12  16
ENDBRANCH   1  12
BRANCH   3  24
ATOM     24  C   UNL     1       1.148   6.039  -0.547  0.00  0.00    +0.233 C 
BRANCH  24  25
ATOM     25  C   UNL     1       1.677   5.771  -1.933  0.00  0.00    +0.135 A 
ATOM     26  C   UNL     1       2.215   6.686  -2.759  0.00  0.00    +0.047 A 
ATOM     27  C   UNL     1       2.574   6.006  -3.945  0.00  0.00    +0.045 A 
ATOM     28  C   UNL     1       2.234   4.716  -3.773  0.00  0.00    +0.102 A 
ATOM     29  O   UNL     1       1.696   4.579  -2.550  0.00  0.00    -0.462 OA
ATOM     30  C   UNL     1       2.429   3.610  -4.778  0.00  0.00    +0.086 C 
ENDBRANCH  24  25
BRANCH  24  31
ATOM     31  C   UNL     1       2.179   5.627   0.472  0.00  0.00    +0.242 C 
ATOM     32  O   UNL     1       1.913   4.775   1.293  0.00  0.00    -0.273 OA
ATOM     33  N   UNL     1       3.397   6.205   0.471  0.00  0.00    -0.311 N 
ATOM     34  H   UNL     1       3.609   6.887  -0.186  0.00  0.00    +0.149 HD
BRANCH  33  35
ATOM     35  C   UNL     1       4.399   5.805   1.462  0.00  0.00    +0.073 C 
ATOM     36  C   UNL     1       4.240   6.647   2.744  0.00  0.00    +0.022 C 
ATOM     37  C   UNL     1       5.693   6.883   3.226  0.00  0.00    +0.002 C 
ATOM     38  C   UNL     1       6.464   7.088   1.899  0.00  0.00    +0.002 C 
ATOM     39  C   UNL     1       5.813   6.085   0.924  0.00  0.00    +0.022 C 
ENDBRANCH  33  35
ENDBRANCH  24  31
ENDBRANCH   3  24
TORSDOF 9
