REMARK  Name = ZINC66773358
REMARK  8 active torsions:
REMARK  status: ('A' for Active; 'I' for Inactive)
REMARK    1  A    between atoms: C_1  and  C_2
REMARK    2  A    between atoms: C_2  and  O_3
REMARK    3  A    between atoms: O_3  and  C_4
REMARK    4  A    between atoms: C_4  and  C_6
REMARK    5  A    between atoms: C_6  and  C_7
REMARK    6  A    between atoms: C_6  and  C_8
REMARK    7  A    between atoms: C_6  and  N_9
REMARK    8  A    between atoms: C_10  and  C_12
REMARK                            x       y       z     vdW  Elec       q    Type
REMARK                         _______ _______ _______ _____ _____    ______ ____
ROOT
ATOM      1  N   UNL     1      -3.769  -1.584   0.822  0.00  0.00    -0.295 N 
ATOM      2  C   UNL     1      -5.064  -1.923   0.974  0.00  0.00    +0.263 C 
ATOM      3  O   UNL     1      -5.497  -2.928   0.442  0.00  0.00    -0.269 OA
ATOM      4  H   UNL     1      -3.424  -0.783   1.246  0.00  0.00    +0.150 HD
ENDROOT
BRANCH   2   5
ATOM      5  C   UNL     1      -5.954  -1.078   1.781  0.00  0.00    +0.121 A 
ATOM      6  C   UNL     1      -7.273  -1.317   2.012  0.00  0.00    +0.078 A 
ATOM      7  C   UNL     1      -7.763  -0.271   2.834  0.00  0.00    +0.020 A 
ATOM      8  C   UNL     1      -9.020   0.011   3.384  0.00  0.00    +0.026 A 
ATOM      9  C   UNL     1      -9.189   1.124   4.156  0.00  0.00    +0.019 A 
ATOM     10  C   UNL     1      -8.125   1.983   4.401  0.00  0.00    +0.017 A 
ATOM     11  C   UNL     1      -6.880   1.728   3.871  0.00  0.00    +0.027 A 
ATOM     12  C   UNL     1      -6.683   0.598   3.081  0.00  0.00    +0.049 A 
ATOM     13  N   UNL     1      -5.584   0.085   2.433  0.00  0.00    -0.349 N 
ATOM     14  H   UNL     1      -4.696   0.474   2.432  0.00  0.00    +0.166 HD
ATOM     15 BR   UNL     1     -10.888   1.501   4.897  0.00  0.00    -0.050 Br
ATOM     16 CL   UNL     1      -8.192  -2.660   1.409  0.00  0.00    -0.081 Cl
ENDBRANCH   2   5
BRANCH   1  17
ATOM     17  C   UNL     1      -2.881  -2.427   0.017  0.00  0.00    +0.126 C 
ATOM     18  C   UNL     1      -3.413  -2.505  -1.416  0.00  0.00    +0.043 C 
ATOM     19  C   UNL     1      -2.828  -3.832   0.618  0.00  0.00    +0.043 C 
BRANCH  17  20
ATOM     20  C   UNL     1      -1.496  -1.832   0.006  0.00  0.00    +0.330 C 
ATOM     21  O   UNL     1      -0.528  -2.555  -0.007  0.00  0.00    -0.248 OA
BRANCH  20  22
ATOM     22  O   UNL     1      -1.339  -0.499   0.012  0.00  0.00    -0.463 OA
BRANCH  22  24
ATOM     23  C   UNL     1      -0.019   1.526   0.010  0.00  0.00    +0.048 C 
ATOM     24  C   UNL     1       0.002  -0.004   0.002  0.00  0.00    +0.229 C 
ENDBRANCH  22  24
ENDBRANCH  20  22
ENDBRANCH  17  20
ENDBRANCH   1  17
TORSDOF 5
