REMARK  Name = ZINC66903850
REMARK  5 active torsions:
REMARK  status: ('A' for Active; 'I' for Inactive)
REMARK    1  A    between atoms: C_3  and  N_16
REMARK    2  A    between atoms: C_6  and  C_7
REMARK    3  A    between atoms: C_17  and  C_19
REMARK    4  A    between atoms: C_19  and  C_20
REMARK    5  A    between atoms: C_20  and  C_25
REMARK                            x       y       z     vdW  Elec       q    Type
REMARK                         _______ _______ _______ _____ _____    ______ ____
ROOT
ATOM      1  C   UNL     1      -0.083   1.557   0.031  0.00  0.00    +0.013 A 
ATOM      2  C   UNL     1       1.121   2.224  -0.036  0.00  0.00    +0.024 A 
ATOM      3  C   UNL     1       2.314   1.527   0.121  0.00  0.00    +0.033 A 
ATOM      4  C   UNL     1       2.296   0.155   0.347  0.00  0.00    +0.024 A 
ATOM      5  C   UNL     1       1.095  -0.517   0.415  0.00  0.00    +0.013 A 
ATOM      6  C   UNL     1      -0.104   0.180   0.257  0.00  0.00    +0.019 A 
ENDROOT
BRANCH   6   7
ATOM      7  C   UNL     1      -1.394  -0.539   0.330  0.00  0.00    +0.164 A 
ATOM      8  N   UNL     1      -1.599  -1.738   0.838  0.00  0.00    -0.129 NA
ATOM      9  N   UNL     1      -2.845  -2.049   0.734  0.00  0.00    -0.134 NA
ATOM     10  C   UNL     1      -3.496  -1.081   0.163  0.00  0.00    +0.134 A 
ATOM     11  N   UNL     1      -2.600  -0.089  -0.110  0.00  0.00    -0.311 N 
ATOM     12  C   UNL     1      -2.930   1.182  -0.753  0.00  0.00    +0.125 C 
ATOM     13  C   UNL     1      -4.298   1.048  -1.434  0.00  0.00    +0.022 C 
ATOM     14  C   UNL     1      -5.311   0.473  -0.441  0.00  0.00    +0.009 C 
ATOM     15  C   UNL     1      -4.967  -0.999  -0.163  0.00  0.00    +0.076 C 
ENDBRANCH   6   7
BRANCH   3  16
ATOM     16  N   UNL     1       3.533   2.206   0.052  0.00  0.00    -0.285 N 
ATOM     17  C   UNL     1       3.624   3.474   0.500  0.00  0.00    +0.218 C 
ATOM     18  O   UNL     1       2.675   3.994   1.048  0.00  0.00    -0.275 OA
ATOM     19  H   UNL     1       4.314   1.765  -0.318  0.00  0.00    +0.155 HD
BRANCH  17  20
ATOM     20  C   UNL     1       4.906   4.247   0.320  0.00  0.00    +0.115 C 
BRANCH  20  21
ATOM     21  C   UNL     1       4.703   5.689   0.790  0.00  0.00    +0.090 C 
ATOM     22  C   UNL     1       4.465   5.683   2.299  0.00  0.00    +0.030 C 
ATOM     23  C   UNL     1       3.592   6.901   2.712  0.00  0.00    +0.070 C 
ATOM     24  S   UNL     1       2.403   6.920   1.299  0.00  0.00    -0.160 S 
ATOM     25  C   UNL     1       3.543   6.310  -0.012  0.00  0.00    +0.087 C 
BRANCH  21  26
ATOM     26  C   UNL     1       5.960   6.469   0.505  0.00  0.00    +0.363 C 
ATOM     27  O   UNL     1       6.329   6.633  -0.646  0.00  0.00    -0.246 OA
ATOM     28  O   UNL     1       6.608   6.937   1.425  0.00  0.00    -0.246 OA
ENDBRANCH  21  26
ENDBRANCH  20  21
ENDBRANCH  17  20
ENDBRANCH   3  16
TORSDOF 5
