REMARK  Name = ZINC08646597
REMARK  10 active torsions:
REMARK  status: ('A' for Active; 'I' for Inactive)
REMARK    1  A    between atoms: C_1  and  C_2
REMARK    2  A    between atoms: C_2  and  C_3
REMARK    3  A    between atoms: C_7  and  C_30
REMARK    4  A    between atoms: C_8  and  N_9
REMARK    5  A    between atoms: C_10  and  C_12
REMARK    6  A    between atoms: C_12  and  N_13
REMARK    7  A    between atoms: C_16  and  C_20
REMARK    8  A    between atoms: C_16  and  C_21
REMARK    9  A    between atoms: C_24  and  N_27
REMARK   10  A    between atoms: C_30  and  C_31
REMARK                            x       y       z     vdW  Elec       q    Type
REMARK                         _______ _______ _______ _____ _____    ______ ____
ROOT
ATOM      1  N   UNL     1      -1.688  -2.642  -0.342  0.00  0.00    -0.215 N 
ATOM      2  C   UNL     1      -2.050  -1.351  -0.475  0.00  0.00    +0.251 C 
ATOM      3  O   UNL     1      -2.425  -0.796  -1.486  0.00  0.00    -0.272 OA
ATOM      4  C   UNL     1      -1.891  -0.736   0.901  0.00  0.00    +0.135 C 
ATOM      5  N   UNL     1      -1.413  -1.858   1.728  0.00  0.00    -0.281 N 
ATOM      6  C   UNL     1      -1.326  -2.926   0.914  0.00  0.00    +0.310 C 
ATOM      7  O   UNL     1      -0.959  -4.026   1.280  0.00  0.00    -0.252 OA
ATOM      8  C   UNL     1      -3.235  -0.220   1.419  0.00  0.00    +0.047 C 
ATOM      9  H   UNL     1      -1.201  -1.831   2.674  0.00  0.00    +0.152 HD
ENDROOT
BRANCH   4  10
ATOM     10  C   UNL     1      -0.871   0.373   0.872  0.00  0.00    -0.015 A 
ATOM     11  C   UNL     1      -0.685   1.110  -0.283  0.00  0.00    +0.008 A 
ATOM     12  C   UNL     1       0.247   2.131  -0.308  0.00  0.00    +0.033 A 
ATOM     13  C   UNL     1       1.000   2.408   0.818  0.00  0.00    +0.126 A 
ATOM     14  C   UNL     1       0.817   1.667   1.970  0.00  0.00    +0.033 A 
ATOM     15  C   UNL     1      -0.118   0.650   1.998  0.00  0.00    +0.008 A 
BRANCH  13  16
ATOM     16  N   UNL     1       2.002   3.497   0.788  0.00  0.00    +0.056 N 
ATOM     17  O   UNL     1       2.666   3.740   1.780  0.00  0.00    -0.126 OA
ATOM     18  O   UNL     1       2.163   4.149  -0.228  0.00  0.00    -0.126 OA
ENDBRANCH  13  16
ENDBRANCH   4  10
BRANCH   1  19
ATOM     19  C   UNL     1      -1.690  -3.615  -1.438  0.00  0.00    +0.214 C 
BRANCH  19  21
ATOM     20  N   UNL     1      -0.116  -4.424  -3.166  0.00  0.00    -0.284 N 
ATOM     21  C   UNL     1      -0.347  -3.604  -2.122  0.00  0.00    +0.235 C 
ATOM     22  O   UNL     1       0.526  -2.857  -1.732  0.00  0.00    -0.274 OA
ATOM     23  H   UNL     1      -0.801  -5.046  -3.455  0.00  0.00    +0.155 HD
BRANCH  20  29
ATOM     24  C   UNL     1       1.858  -5.537  -4.000  0.00  0.00    -0.026 A 
ATOM     25  C   UNL     1       3.069  -5.489  -4.664  0.00  0.00    +0.005 A 
ATOM     26  C   UNL     1       3.544  -4.286  -5.152  0.00  0.00    +0.001 A 
ATOM     27  C   UNL     1       2.807  -3.128  -4.982  0.00  0.00    +0.005 A 
ATOM     28  C   UNL     1       1.593  -3.171  -4.324  0.00  0.00    -0.026 A 
ATOM     29  C   UNL     1       1.113  -4.378  -3.833  0.00  0.00    +0.040 A 
BRANCH  24  31
ATOM     30  C   UNL     1       0.281  -7.406  -4.412  0.00  0.00    +0.009 C 
ATOM     31  C   UNL     1       1.344  -6.848  -3.463  0.00  0.00    +0.033 C 
ENDBRANCH  24  31
BRANCH  28  32
ATOM     32  C   UNL     1       0.791  -1.908  -4.139  0.00  0.00    +0.033 C 
ATOM     33  C   UNL     1       1.733  -0.703  -4.129  0.00  0.00    +0.009 C 
ENDBRANCH  28  32
ENDBRANCH  20  29
ENDBRANCH  19  21
ENDBRANCH   1  19
TORSDOF 7
