REMARK  Name = ZINC05648308
REMARK  14 active torsions:
REMARK  status: ('A' for Active; 'I' for Inactive)
REMARK    1  A    between atoms: C_1  and  C_2
REMARK    2  A    between atoms: C_2  and  N_62
REMARK    3  A    between atoms: C_3  and  C_4
REMARK    4  A    between atoms: C_3  and  N_62
REMARK    5  A    between atoms: C_5  and  C_6
REMARK    6  A    between atoms: C_5  and  N_62
REMARK    7  A    between atoms: C_6  and  C_7
REMARK    8  A    between atoms: C_7  and  C_8
REMARK    9  A    between atoms: C_8  and  C_10
REMARK   10  A    between atoms: C_8  and  N_11
REMARK   11  A    between atoms: C_12  and  C_14
REMARK   12  A    between atoms: C_14  and  C_15
REMARK   13  A    between atoms: C_17  and  O_32
REMARK   14  A    between atoms: C_20  and  O_21
REMARK                            x       y       z     vdW  Elec       q    Type
REMARK                         _______ _______ _______ _____ _____    ______ ____
ROOT
ATOM      1  C   UNL     1      -0.218   1.963   1.336  0.00  0.00    +0.007 A 
ATOM      2  C   UNL     1      -1.448   2.506   1.044  0.00  0.00    +0.053 A 
ATOM      3  C   UNL     1      -1.637   3.887   1.077  0.00  0.00    +0.129 A 
ATOM      4  C   UNL     1      -0.569   4.728   1.397  0.00  0.00    +0.078 A 
ATOM      5  C   UNL     1       0.693   4.172   1.691  0.00  0.00    +0.078 A 
ATOM      6  C   UNL     1       0.861   2.786   1.658  0.00  0.00    +0.132 A 
ATOM      7  C   UNL     1       1.826   5.050   2.029  0.00  0.00    +0.198 C 
ATOM      8  O   UNL     1       2.914   4.570   2.283  0.00  0.00    -0.286 OA
ATOM      9  C   UNL     1       1.638   6.516   2.060  0.00  0.00    +0.033 A 
ATOM     10  C   UNL     1       2.703   7.354   2.379  0.00  0.00    +0.012 A 
ATOM     11  C   UNL     1       2.518   8.725   2.405  0.00  0.00    +0.001 A 
ATOM     12  C   UNL     1       1.280   9.270   2.117  0.00  0.00    +0.001 A 
ATOM     13  C   UNL     1       0.211   8.452   1.799  0.00  0.00    +0.012 A 
ATOM     14  C   UNL     1       0.380   7.071   1.768  0.00  0.00    +0.033 A 
ATOM     15  C   UNL     1      -0.757   6.189   1.429  0.00  0.00    +0.198 C 
ATOM     16  O   UNL     1      -1.845   6.668   1.175  0.00  0.00    -0.286 OA
ENDROOT
BRANCH   6  17
ATOM     17  O   UNL     1       2.070   2.241   1.938  0.00  0.00    -0.506 OA
ATOM     18  H   UNL     1       2.640   2.130   1.165  0.00  0.00    +0.292 HD
ENDBRANCH   6  17
BRANCH   3  19
ATOM     19  O   UNL     1      -2.855   4.413   0.793  0.00  0.00    -0.506 OA
ATOM     20  H   UNL     1      -2.988   4.613  -0.143  0.00  0.00    +0.292 HD
ENDBRANCH   3  19
BRANCH   1  21
ATOM     21  C   UNL     1      -0.034   0.468   1.302  0.00  0.00    +0.134 C 
BRANCH  21  23
ATOM     22  N   UNL     1      -0.083  -1.417   2.903  0.00  0.00    -0.312 N 
ATOM     23  C   UNL     1      -0.204  -0.092   2.690  0.00  0.00    +0.218 C 
ATOM     24  O   UNL     1      -0.452   0.650   3.617  0.00  0.00    -0.275 OA
ATOM     25  H   UNL     1       0.115  -2.011   2.162  0.00  0.00    +0.149 HD
BRANCH  22  26
ATOM     26  C   UNL     1      -0.249  -1.961   4.253  0.00  0.00    +0.070 C 
ATOM     27  C   UNL     1       1.079  -1.867   5.008  0.00  0.00    +0.028 C 
BRANCH  26  28
ATOM     28  C   UNL     1      -0.681  -3.426   4.163  0.00  0.00    +0.020 C 
BRANCH  28  29
ATOM     29  C   UNL     1      -2.067  -3.510   3.519  0.00  0.00    -0.017 C 
BRANCH  29  30
ATOM     30  C   UNL     1      -2.499  -4.975   3.429  0.00  0.00    -0.079 C 
BRANCH  30  31
ATOM     31  N   UNL     1      -3.847  -5.038   2.826  0.00  0.00    +0.379 N 
ATOM     32  H   UNL     1      -4.471  -4.402   3.336  0.00  0.00    -0.082 HD
BRANCH  31  34
ATOM     33  C   UNL     1      -2.845  -5.528   0.620  0.00  0.00    -0.017 C 
ATOM     34  C   UNL     1      -3.787  -4.617   1.410  0.00  0.00    -0.082 C 
ENDBRANCH  31  34
BRANCH  31  35
ATOM     35  C   UNL     1      -4.380  -6.413   2.922  0.00  0.00    -0.082 C 
ATOM     36  C   UNL     1      -5.883  -6.379   2.636  0.00  0.00    -0.017 C 
ENDBRANCH  31  35
ENDBRANCH  30  31
ENDBRANCH  29  30
ENDBRANCH  28  29
ENDBRANCH  26  28
ENDBRANCH  22  26
ENDBRANCH  21  23
ENDBRANCH   1  21
TORSDOF 11
