REMARK  Name = ZINC36486619
REMARK  13 active torsions:
REMARK  status: ('A' for Active; 'I' for Inactive)
REMARK    1  A    between atoms: C_1  and  C_2
REMARK    2  A    between atoms: C_2  and  C_3
REMARK    3  A    between atoms: C_2  and  C_4
REMARK    4  A    between atoms: C_2  and  N_5
REMARK    5  A    between atoms: C_6  and  C_8
REMARK    6  A    between atoms: C_8  and  C_10
REMARK    7  A    between atoms: C_8  and  N_19
REMARK    8  A    between atoms: C_11  and  O_18
REMARK    9  A    between atoms: C_13  and  O_17
REMARK   10  A    between atoms: C_15  and  O_16
REMARK   11  A    between atoms: N_19  and  C_20
REMARK   12  A    between atoms: C_27  and  C_29
REMARK   13  A    between atoms: C_29  and  C_30
REMARK                            x       y       z     vdW  Elec       q    Type
REMARK                         _______ _______ _______ _____ _____    ______ ____
ROOT
ATOM      1  C   UNL     1       2.275  -0.502  -2.488  0.00  0.00    +0.204 C 
ENDROOT
BRANCH   1   2
ATOM      2  C   UNL     1       1.849  -0.454  -3.932  0.00  0.00    +0.065 A 
ATOM      3  C   UNL     1       2.229   0.613  -4.732  0.00  0.00    +0.129 A 
ATOM      4  C   UNL     1       1.836   0.657  -6.062  0.00  0.00    +0.091 A 
ATOM      5  C   UNL     1       1.065  -0.366  -6.591  0.00  0.00    +0.124 A 
ATOM      6  C   UNL     1       0.685  -1.434  -5.791  0.00  0.00    +0.091 A 
ATOM      7  C   UNL     1       1.081  -1.480  -4.463  0.00  0.00    +0.129 A 
BRANCH   7   8
ATOM      8  O   UNL     1       0.713  -2.528  -3.680  0.00  0.00    -0.506 OA
ATOM      9  H   UNL     1      -0.129  -2.401  -3.223  0.00  0.00    +0.292 HD
ENDBRANCH   7   8
BRANCH   5  10
ATOM     10  O   UNL     1       0.679  -0.323  -7.894  0.00  0.00    -0.507 OA
ATOM     11  H   UNL     1       1.302  -0.744  -8.502  0.00  0.00    +0.292 HD
ENDBRANCH   5  10
BRANCH   3  12
ATOM     12  O   UNL     1       2.985   1.616  -4.213  0.00  0.00    -0.506 OA
ATOM     13  H   UNL     1       3.935   1.506  -4.356  0.00  0.00    +0.292 HD
ENDBRANCH   3  12
ENDBRANCH   1   2
BRANCH   1  15
ATOM     14  N   UNL     1       0.428   0.149  -0.976  0.00  0.00    -0.309 N 
ATOM     15  C   UNL     1       1.501   0.524  -1.701  0.00  0.00    +0.239 C 
ATOM     16  O   UNL     1       1.843   1.688  -1.720  0.00  0.00    -0.273 OA
ATOM     17  H   UNL     1       0.154  -0.781  -0.961  0.00  0.00    +0.149 HD
BRANCH  14  19
ATOM     18  C   UNL     1      -0.875   2.211  -1.164  0.00  0.00    +0.031 C 
ATOM     19  C   UNL     1      -0.325   1.147  -0.212  0.00  0.00    +0.026 C 
ATOM     20  C   UNL     1       0.600   1.809   0.812  0.00  0.00    +0.031 C 
ATOM     21  C   UNL     1      -1.484   0.464   0.515  0.00  0.00    +0.031 C 
ENDBRANCH  14  19
ENDBRANCH   1  15
BRANCH   1  22
ATOM     22  N   UNL     1       3.708  -0.212  -2.391  0.00  0.00    -0.255 N 
ATOM     23  C   UNL     1       4.577  -0.826  -3.219  0.00  0.00    +0.225 C 
ATOM     24  O   UNL     1       4.165  -1.524  -4.121  0.00  0.00    -0.275 OA
BRANCH  22  25
ATOM     25  C   UNL     1       4.174   0.703  -1.440  0.00  0.00    +0.039 A 
ATOM     26  C   UNL     1       4.150   0.376  -0.091  0.00  0.00    +0.023 A 
ATOM     27  C   UNL     1       4.610   1.280   0.846  0.00  0.00    +0.003 A 
ATOM     28  C   UNL     1       5.096   2.510   0.442  0.00  0.00    +0.020 A 
ATOM     29  C   UNL     1       5.121   2.839  -0.902  0.00  0.00    +0.043 A 
ATOM     30  C   UNL     1       4.668   1.935  -1.845  0.00  0.00    +0.043 A 
ATOM     31 CL   UNL     1       5.731   4.385  -1.406  0.00  0.00    -0.083 Cl
ENDBRANCH  22  25
BRANCH  23  32
ATOM     32  C   UNL     1       6.060  -0.646  -3.022  0.00  0.00    +0.131 C 
BRANCH  32  33
ATOM     33  C   UNL     1       6.803  -1.368  -4.117  0.00  0.00    -0.035 A 
ATOM     34  C   UNL     1       7.169  -2.690  -3.945  0.00  0.00    +0.008 A 
ATOM     35  C   UNL     1       7.850  -3.357  -4.946  0.00  0.00    +0.050 A 
ATOM     36  C   UNL     1       8.168  -2.701  -6.124  0.00  0.00    +0.166 A 
ATOM     37  C   UNL     1       7.799  -1.369  -6.297  0.00  0.00    +0.166 A 
ATOM     38  C   UNL     1       7.112  -0.709  -5.292  0.00  0.00    +0.053 A 
ATOM     39  O   UNL     1       8.223  -0.955  -7.527  0.00  0.00    -0.453 OA
ATOM     40  C   UNL     1       9.209  -1.920  -7.939  0.00  0.00    +0.466 C 
ATOM     41  O   UNL     1       8.822  -3.122  -7.246  0.00  0.00    -0.453 OA
ENDBRANCH  32  33
ENDBRANCH  23  32
ENDBRANCH   1  22
TORSDOF 10
