REMARK  Name = ZINC40569548
REMARK  8 active torsions:
REMARK  status: ('A' for Active; 'I' for Inactive)
REMARK    1  A    between atoms: C_1  and  O_2
REMARK    2  A    between atoms: O_2  and  C_3
REMARK    3  A    between atoms: C_3  and  C_5
REMARK    4  A    between atoms: C_6  and  N_34
REMARK    5  A    between atoms: C_12  and  C_32
REMARK    6  A    between atoms: N_22  and  C_25
REMARK    7  A    between atoms: C_25  and  C_26
REMARK    8  A    between atoms: C_32  and  O_33
REMARK                            x       y       z     vdW  Elec       q    Type
REMARK                         _______ _______ _______ _____ _____    ______ ____
ROOT
ATOM      1  C   UNL     1      -1.246  -2.035   0.024  0.00  0.00    +0.120 C 
ATOM      2  C   UNL     1      -2.450  -2.662   0.109  0.00  0.00    +0.196 C 
ATOM      3  O   UNL     1      -2.539  -4.001   0.084  0.00  0.00    -0.434 OA
ATOM      4  C   UNL     1      -1.452  -4.763   0.360  0.00  0.00    +0.216 A 
ATOM      5  C   UNL     1      -1.635  -6.123   0.738  0.00  0.00    +0.228 A 
ATOM      6  O   UNL     1      -2.752  -6.610   0.817  0.00  0.00    -0.284 OA
ATOM      7  C   UNL     1      -0.480  -6.896   1.020  0.00  0.00    +0.098 A 
ATOM      8  C   UNL     1       0.730  -6.312   0.916  0.00  0.00    +0.134 A 
ATOM      9  O   UNL     1       0.865  -5.036   0.556  0.00  0.00    -0.457 OA
ATOM     10  C   UNL     1      -0.200  -4.265   0.287  0.00  0.00    +0.175 A 
ATOM     11  C   UNL     1       0.023  -2.826  -0.105  0.00  0.00    +0.171 C 
ATOM     12  C   UNL     1       0.578  -2.730  -1.492  0.00  0.00    +0.001 A 
ATOM     13  C   UNL     1       0.061  -3.114  -2.711  0.00  0.00    +0.007 A 
ATOM     14  C   UNL     1       0.850  -2.880  -3.832  0.00  0.00    +0.000 A 
ATOM     15  C   UNL     1       2.093  -2.290  -3.726  0.00  0.00    +0.002 A 
ATOM     16  C   UNL     1       2.619  -1.902  -2.504  0.00  0.00    +0.024 A 
ATOM     17  C   UNL     1       1.838  -2.131  -1.370  0.00  0.00    +0.042 A 
ATOM     18  N   UNL     1       2.110  -1.848  -0.043  0.00  0.00    -0.265 N 
ATOM     19  C   UNL     1       1.101  -2.222   0.771  0.00  0.00    +0.243 C 
ATOM     20  O   UNL     1       1.065  -2.097   1.977  0.00  0.00    -0.273 OA
ENDROOT
BRANCH   2  21
ATOM     21  N   UNL     1      -3.591  -1.913   0.222  0.00  0.00    -0.329 N 
ATOM     22  H   UNL     1      -3.546  -0.947   0.153  0.00  0.00    +0.145 HD
ATOM     23  H   UNL     1      -4.445  -2.350   0.370  0.00  0.00    +0.145 HD
ENDBRANCH   2  21
BRANCH   1  24
ATOM     24  C   UNL     1      -1.189  -0.634   0.053  0.00  0.00    +0.342 C 
ATOM     25  O   UNL     1      -1.030  -0.010  -0.981  0.00  0.00    -0.245 OA
BRANCH  24  27
ATOM     26  C   UNL     1      -1.245   1.449   1.182  0.00  0.00    +0.280 C 
ATOM     27  O   UNL     1      -1.312   0.023   1.227  0.00  0.00    -0.465 OA
ENDBRANCH  24  27
ENDBRANCH   1  24
BRANCH  18  28
ATOM     28  C   UNL     1       3.348  -1.218   0.422  0.00  0.00    +0.148 C 
BRANCH  28  29
ATOM     29  C   UNL     1       3.177   0.279   0.431  0.00  0.00    -0.030 A 
ATOM     30  C   UNL     1       3.491   1.017  -0.694  0.00  0.00    +0.005 A 
ATOM     31  C   UNL     1       3.334   2.391  -0.686  0.00  0.00    +0.000 A 
ATOM     32  C   UNL     1       2.862   3.026   0.448  0.00  0.00    +0.000 A 
ATOM     33  C   UNL     1       2.548   2.287   1.573  0.00  0.00    +0.000 A 
ATOM     34  C   UNL     1       2.701   0.913   1.563  0.00  0.00    +0.005 A 
ENDBRANCH  28  29
ENDBRANCH  18  28
BRANCH   8  35
ATOM     35  C   UNL     1       1.963  -7.125   1.214  0.00  0.00    +0.230 C 
BRANCH  35  36
ATOM     36  O   UNL     1       1.582  -8.454   1.576  0.00  0.00    -0.387 OA
ATOM     37  H   UNL     1       2.328  -9.034   1.781  0.00  0.00    +0.210 HD
ENDBRANCH  35  36
ENDBRANCH   8  35
TORSDOF 7
