REMARK  Name = ZINC39689156
REMARK  9 active torsions:
REMARK  status: ('A' for Active; 'I' for Inactive)
REMARK    1  A    between atoms: C_1  and  C_2
REMARK    2  A    between atoms: C_2  and  C_3
REMARK    3  A    between atoms: C_3  and  C_4
REMARK    4  A    between atoms: C_3  and  C_6
REMARK    5  A    between atoms: C_4  and  C_5
REMARK    6  A    between atoms: C_10  and  C_19
REMARK    7  A    between atoms: N_21  and  C_22
REMARK    8  A    between atoms: C_22  and  C_23
REMARK    9  A    between atoms: N_26  and  C_29
REMARK                            x       y       z     vdW  Elec       q    Type
REMARK                         _______ _______ _______ _____ _____    ______ ____
ROOT
ATOM      1  C   UNL     1       1.214  -2.024   1.278  0.00  0.00    +0.219 C 
ATOM      2  O   UNL     1       0.949  -2.804   2.167  0.00  0.00    -0.275 OA
ATOM      3  N   UNL     1       1.753  -2.472   0.127  0.00  0.00    -0.300 N 
ATOM      4  C   UNL     1       2.148  -1.679  -1.061  0.00  0.00    +0.121 C 
ATOM      5  C   UNL     1       3.466  -2.325  -1.542  0.00  0.00    +0.100 C 
ATOM      6  C   UNL     1       3.418  -3.764  -1.000  0.00  0.00    -0.004 C 
ATOM      7  C   UNL     1       2.091  -3.870  -0.235  0.00  0.00    +0.115 C 
ATOM      8  C   UNL     1       4.588  -4.010  -0.052  0.00  0.00    -0.010 C 
ATOM      9  C   UNL     1       4.551  -5.464   0.429  0.00  0.00    -0.082 C 
ATOM     10  N   UNL     1       4.633  -6.366  -0.727  0.00  0.00    +0.379 N 
ATOM     11  C   UNL     1       3.456  -6.187  -1.586  0.00  0.00    -0.082 C 
ATOM     12  C   UNL     1       3.446  -4.764  -2.152  0.00  0.00    -0.010 C 
ATOM     13  H   UNL     1       5.467  -6.159  -1.254  0.00  0.00    -0.086 HD
ATOM     14  H   UNL     1       4.670  -7.321  -0.404  0.00  0.00    -0.086 HD
ENDROOT
BRANCH   5  15
ATOM     15  C   UNL     1       3.528  -2.331  -3.048  0.00  0.00    +0.218 C 
ATOM     16  O   UNL     1       2.504  -2.314  -3.698  0.00  0.00    -0.275 OA
ATOM     17  N   UNL     1       4.722  -2.356  -3.673  0.00  0.00    -0.315 N 
ATOM     18  H   UNL     1       5.541  -2.369  -3.154  0.00  0.00    +0.149 HD
BRANCH  17  19
ATOM     19  C   UNL     1       4.783  -2.361  -5.137  0.00  0.00    +0.107 C 
BRANCH  19  20
ATOM     20  C   UNL     1       6.245  -2.390  -5.586  0.00  0.00    +0.003 C 
ATOM     21  C   UNL     1       6.936  -1.089  -5.167  0.00  0.00    -0.014 C 
ATOM     22  C   UNL     1       8.374  -1.091  -5.689  0.00  0.00    -0.078 C 
ATOM     23  N   UNL     1       8.367  -1.192  -7.153  0.00  0.00    +0.382 N 
ATOM     24  C   UNL     1       7.771  -2.470  -7.560  0.00  0.00    -0.078 C 
ATOM     25  C   UNL     1       6.310  -2.522  -7.111  0.00  0.00    -0.014 C 
ATOM     26  H   UNL     1       7.828  -0.432  -7.539  0.00  0.00    -0.081 HD
BRANCH  23  27
ATOM     27  C   UNL     1       9.746  -1.115  -7.654  0.00  0.00    -0.069 C 
ATOM     28  C   UNL     1       9.759  -1.088  -9.203  0.00  0.00    -0.015 C 
ATOM     29  C   UNL     1      11.117  -0.414  -9.521  0.00  0.00    -0.002 C 
ATOM     30  C   UNL     1      11.266   0.670  -8.434  0.00  0.00    -0.002 C 
ATOM     31  C   UNL     1      10.394   0.225  -7.247  0.00  0.00    -0.015 C 
ENDBRANCH  23  27
ENDBRANCH  19  20
ENDBRANCH  17  19
ENDBRANCH   5  15
BRANCH   1  32
ATOM     32  C   UNL     1       0.941  -0.553   1.459  0.00  0.00    +0.075 C 
BRANCH  32  34
ATOM     33  C   UNL     1      -0.206   1.438   0.479  0.00  0.00    +0.004 C 
ATOM     34  C   UNL     1      -0.038  -0.080   0.383  0.00  0.00    +0.009 C 
ENDBRANCH  32  34
BRANCH  32  35
ATOM     35  C   UNL     1       0.333  -0.314   2.843  0.00  0.00    +0.009 C 
ATOM     36  C   UNL     1       1.373  -0.634   3.919  0.00  0.00    +0.004 C 
ENDBRANCH  32  35
ENDBRANCH   1  32
TORSDOF 7
