REMARK  Name = ZINC02480004
REMARK  4 active torsions:
REMARK  status: ('A' for Active; 'I' for Inactive)
REMARK    1  A    between atoms: C_1  and  O_2
REMARK    2  A    between atoms: O_2  and  C_3
REMARK    3  A    between atoms: C_8  and  N_9
REMARK    4  A    between atoms: C_16  and  O_17
REMARK                            x       y       z     vdW  Elec       q    Type
REMARK                         _______ _______ _______ _____ _____    ______ ____
ROOT
ATOM      1  N   UNL     1      -0.077   5.213   0.029  0.00  0.00    -0.241 NA
ATOM      2  C   UNL     1      -1.239   5.861  -0.058  0.00  0.00    +0.106 A 
ATOM      3  C   UNL     1      -2.403   5.059  -0.043  0.00  0.00    +0.031 A 
ATOM      4  C   UNL     1      -3.704   5.459  -0.117  0.00  0.00    +0.002 A 
ATOM      5  C   UNL     1      -4.226   6.749  -0.225  0.00  0.00    +0.000 A 
ATOM      6  C   UNL     1      -3.571   7.957  -0.286  0.00  0.00    +0.004 A 
ATOM      7  C   UNL     1      -2.200   8.221  -0.257  0.00  0.00    +0.047 A 
ATOM      8  C   UNL     1      -1.157   7.323  -0.151  0.00  0.00    +0.142 A 
ENDROOT
BRANCH   1  14
ATOM      9  C   UNL     1      -0.038   3.127   1.212  0.00  0.00    +0.145 A 
ATOM     10  C   UNL     1      -0.016   1.744   1.182  0.00  0.00    +0.048 A 
ATOM     11  C   UNL     1      -0.009   1.076  -0.031  0.00  0.00    +0.004 A 
ATOM     12  C   UNL     1      -0.019   1.784  -1.220  0.00  0.00    +0.002 A 
ATOM     13  C   UNL     1      -0.047   3.163  -1.208  0.00  0.00    +0.031 A 
ATOM     14  C   UNL     1      -0.054   3.849   0.010  0.00  0.00    +0.106 A 
BRANCH   9  16
ATOM     15  C   UNL     1      -0.027   2.982   3.586  0.00  0.00    +0.277 C 
ATOM     16  O   UNL     1      -0.045   3.783   2.403  0.00  0.00    -0.493 OA
ENDBRANCH   9  16
ENDBRANCH   1  14
BRANCH   8  17
ATOM     17  O   UNL     1       0.089   7.853  -0.139  0.00  0.00    -0.505 OA
ATOM     18  H   UNL     1       0.484   7.949  -1.017  0.00  0.00    +0.292 HD
ENDBRANCH   8  17
TORSDOF 3
