REMARK  Name = ZINC63067915
REMARK  8 active torsions:
REMARK  status: ('A' for Active; 'I' for Inactive)
REMARK    1  A    between atoms: C_1  and  O_2
REMARK    2  A    between atoms: O_2  and  C_3
REMARK    3  A    between atoms: C_6  and  C_9
REMARK    4  A    between atoms: C_12  and  C_24
REMARK    5  A    between atoms: N_15  and  C_16
REMARK    6  A    between atoms: N_26  and  C_27
REMARK    7  A    between atoms: C_27  and  C_28
REMARK    8  A    between atoms: C_28  and  C_29
REMARK                            x       y       z     vdW  Elec       q    Type
REMARK                         _______ _______ _______ _____ _____    ______ ____
ROOT
ATOM      1  C   UNL     1       2.589  -2.552   4.319  0.00  0.00    +0.105 C 
ATOM      2  C   UNL     1       1.548  -3.104   5.315  0.00  0.00    +0.054 C 
ATOM      3  C   UNL     1       1.809  -4.627   5.342  0.00  0.00    +0.157 C 
ATOM      4  N   UNL     1       3.218  -4.747   4.882  0.00  0.00    -0.241 NA
ATOM      5  N   UNL     1       3.342  -3.729   3.829  0.00  0.00    -0.230 NA
ATOM      6  H   UNL     1       3.861  -4.564   5.638  0.00  0.00    +0.142 HD
ENDROOT
BRANCH   5   7
ATOM      7  C   UNL     1       4.750  -3.389   3.586  0.00  0.00    +0.096 C 
ATOM      8  C   UNL     1       5.513  -4.640   3.119  0.00  0.00    +0.044 C 
ATOM      9  C   UNL     1       7.038  -4.377   3.170  0.00  0.00    +0.167 C 
ATOM     10  S   UNL     1       7.188  -3.125   4.509  0.00  0.00    -0.029 S 
ATOM     11  O   UNL     1       7.705  -1.921   3.960  0.00  0.00    -0.174 OA
ATOM     12  O   UNL     1       7.835  -3.719   5.626  0.00  0.00    -0.174 OA
ATOM     13  C   UNL     1       5.404  -2.887   4.905  0.00  0.00    +0.186 C 
ENDBRANCH   5   7
BRANCH   1  17
ATOM     14  C   UNL     1       0.625  -0.598   1.065  0.00  0.00    +0.120 A 
ATOM     15  C   UNL     1       1.204   0.152   2.079  0.00  0.00    +0.046 A 
ATOM     16  C   UNL     1       1.838  -0.482   3.130  0.00  0.00    +0.009 A 
ATOM     17  C   UNL     1       1.896  -1.863   3.172  0.00  0.00    -0.029 A 
ATOM     18  C   UNL     1       1.320  -2.612   2.163  0.00  0.00    +0.009 A 
ATOM     19  C   UNL     1       0.680  -1.983   1.113  0.00  0.00    +0.046 A 
BRANCH  14  21
ATOM     20  C   UNL     1      -0.018   1.452   0.048  0.00  0.00    +0.277 C 
ATOM     21  O   UNL     1       0.000   0.024   0.031  0.00  0.00    -0.495 OA
ENDBRANCH  14  21
ENDBRANCH   1  17
BRANCH   3  22
ATOM     22  C   UNL     1       1.656  -5.167   6.741  0.00  0.00    +0.231 C 
ATOM     23  O   UNL     1       2.639  -5.376   7.421  0.00  0.00    -0.274 OA
ATOM     24  N   UNL     1       0.428  -5.416   7.237  0.00  0.00    -0.314 N 
ATOM     25  H   UNL     1      -0.358  -5.248   6.694  0.00  0.00    +0.149 HD
BRANCH  24  26
ATOM     26  C   UNL     1       0.280  -5.940   8.597  0.00  0.00    +0.108 C 
BRANCH  26  27
ATOM     27  C   UNL     1      -1.205  -6.133   8.911  0.00  0.00    +0.065 C 
BRANCH  27  28
ATOM     28  C   UNL     1      -1.360  -6.680  10.331  0.00  0.00    +0.175 C 
ATOM     29  N   UNL     1      -0.733  -8.004  10.432  0.00  0.00    -0.363 N 
ATOM     30  C   UNL     1      -1.664  -8.853  10.761  0.00  0.00    +0.060 A 
ATOM     31  C   UNL     1      -1.653 -10.302  11.006  0.00  0.00    +0.027 A 
ATOM     32  C   UNL     1      -2.799 -10.928  11.340  0.00  0.00    +0.002 A 
ATOM     33  C   UNL     1      -4.024 -10.250  11.467  0.00  0.00    +0.002 A 
ATOM     34  C   UNL     1      -4.145  -8.922  11.265  0.00  0.00    +0.027 A 
ATOM     35  C   UNL     1      -2.961  -8.135  10.896  0.00  0.00    +0.060 A 
ATOM     36  N   UNL     1      -2.782  -6.870  10.646  0.00  0.00    -0.363 N 
ATOM     37  H   UNL     1       0.203  -8.209  10.280  0.00  0.00    +0.162 HD
ATOM     38  H   UNL     1      -3.463  -6.180  10.664  0.00  0.00    +0.162 HD
ENDBRANCH  27  28
ENDBRANCH  26  27
ENDBRANCH  24  26
ENDBRANCH   3  22
TORSDOF 7
