REMARK  Name = ZINC47298423
REMARK  4 active torsions:
REMARK  status: ('A' for Active; 'I' for Inactive)
REMARK    1  A    between atoms: C_1  and  C_2
REMARK    2  A    between atoms: C_6  and  C_7
REMARK    3  A    between atoms: C_19  and  C_23
REMARK    4  A    between atoms: C_19  and  C_24
REMARK                            x       y       z     vdW  Elec       q    Type
REMARK                         _______ _______ _______ _____ _____    ______ ____
ROOT
ATOM      1  C   UNL     1      -0.018   1.503   0.010  0.00  0.00    +0.048 C 
ATOM      2  C   UNL     1       0.002  -0.004   0.002  0.00  0.00    +0.011 A 
ATOM      3  C   UNL     1       0.009  -0.840  -1.125  0.00  0.00    +0.062 A 
ATOM      4  C   UNL     1       0.027  -2.151  -0.662  0.00  0.00    +0.117 A 
ATOM      5  O   UNL     1       0.036  -2.114   0.664  0.00  0.00    -0.454 OA
ATOM      6  C   UNL     1       0.024  -0.829   1.089  0.00  0.00    +0.193 A 
ATOM      7  C   UNL     1       0.032  -3.344  -1.585  0.00  0.00    +0.082 C 
ATOM      8  C   UNL     1      -0.489  -2.920  -2.961  0.00  0.00    -0.021 C 
ATOM      9  C   UNL     1       0.284  -1.704  -3.482  0.00  0.00    +0.086 C 
ATOM     10  C   UNL     1       0.001  -0.525  -2.562  0.00  0.00    +0.167 C 
ATOM     11  O   UNL     1      -0.215   0.592  -2.982  0.00  0.00    -0.292 OA
ATOM     12  C   UNL     1      -1.973  -2.564  -2.850  0.00  0.00    +0.012 C 
ATOM     13  C   UNL     1      -0.322  -4.081  -3.942  0.00  0.00    +0.012 C 
ENDROOT
BRANCH   6  14
ATOM     14  C   UNL     1       0.031  -0.395   2.491  0.00  0.00    +0.285 C 
ATOM     15  O   UNL     1       0.016   0.792   2.760  0.00  0.00    -0.266 OA
ATOM     16  N   UNL     1       0.053  -1.310   3.480  0.00  0.00    -0.258 N 
ATOM     17  C   UNL     1       0.059  -0.898   4.806  0.00  0.00    +0.165 A 
ATOM     18  N   UNL     1       0.040   0.324   5.281  0.00  0.00    -0.229 NA
ATOM     19  C   UNL     1       0.049   0.575   6.597  0.00  0.00    +0.054 A 
ATOM     20  C   UNL     1       0.082  -0.525   7.385  0.00  0.00    +0.014 A 
ATOM     21  S   UNL     1       0.086  -1.847   6.197  0.00  0.00    -0.057 S 
ATOM     22  C   UNL     1       0.096  -0.178   8.842  0.00  0.00    +0.045 C 
ATOM     23  C   UNL     1       0.497   1.315   8.883  0.00  0.00    +0.011 C 
ATOM     24  C   UNL     1       0.029   1.807   7.499  0.00  0.00    +0.056 C 
ATOM     25  H   UNL     1       0.065  -2.256   3.265  0.00  0.00    +0.157 HD
ENDBRANCH   6  14
TORSDOF 1
