REMARK  Name = ZINC09315585
REMARK  8 active torsions:
REMARK  status: ('A' for Active; 'I' for Inactive)
REMARK    1  A    between atoms: C_1  and  C_2
REMARK    2  A    between atoms: C_9  and  N_14
REMARK    3  A    between atoms: C_10  and  C_11
REMARK    4  A    between atoms: C_15  and  C_17
REMARK    5  A    between atoms: C_17  and  O_18
REMARK    6  A    between atoms: O_18  and  C_19
REMARK    7  A    between atoms: C_19  and  C_21
REMARK    8  A    between atoms: C_21  and  C_22
REMARK                            x       y       z     vdW  Elec       q    Type
REMARK                         _______ _______ _______ _____ _____    ______ ____
ROOT
ATOM      1  N   UNL     1      -2.304  -5.917   0.763  0.00  0.00    -0.277 N 
ATOM      2  C   UNL     1      -3.569  -6.205   0.396  0.00  0.00    +0.255 C 
ATOM      3  O   UNL     1      -4.297  -5.325  -0.013  0.00  0.00    -0.272 OA
ATOM      4  H   UNL     1      -1.722  -6.620   1.090  0.00  0.00    +0.155 HD
ENDROOT
BRANCH   1  12
ATOM      5  C   UNL     1      -0.019   1.526   0.010  0.00  0.00    +0.008 C 
ATOM      6  C   UNL     1       0.002  -0.004   0.002  0.00  0.00    -0.009 C 
ATOM      7  C   UNL     1       0.742  -0.514   1.242  0.00  0.00    +0.008 C 
ATOM      8  C   UNL     1       0.984  -2.020   1.121  0.00  0.00    +0.037 C 
ATOM      9  C   UNL     1      -0.340  -2.706   0.809  0.00  0.00    -0.023 A 
ATOM     10  C   UNL     1      -1.390  -2.006   0.327  0.00  0.00    -0.004 A 
ATOM     11  S   UNL     1      -2.678  -3.203   0.125  0.00  0.00    -0.077 S 
ATOM     12  C   UNL     1      -1.836  -4.615   0.673  0.00  0.00    +0.084 A 
ATOM     13  C   UNL     1      -0.579  -4.127   0.999  0.00  0.00    +0.068 A 
ATOM     14  C   UNL     1      -1.437  -0.538   0.030  0.00  0.00    +0.046 C 
BRANCH  13  15
ATOM     15  C   UNL     1       0.470  -5.011   1.517  0.00  0.00    +0.244 C 
ATOM     16  O   UNL     1       0.577  -5.192   2.716  0.00  0.00    -0.270 OA
ATOM     17  N   UNL     1       1.315  -5.624   0.665  0.00  0.00    -0.325 N 
ATOM     18  H   UNL     1       1.230  -5.480  -0.291  0.00  0.00    +0.145 HD
ATOM     19  H   UNL     1       2.009  -6.209   1.007  0.00  0.00    +0.145 HD
ENDBRANCH  13  15
ENDBRANCH   1  12
BRANCH   2  20
ATOM     20  C   UNL     1      -4.078  -7.620   0.494  0.00  0.00    +0.328 C 
BRANCH  20  21
ATOM     21  O   UNL     1      -5.457  -7.670   0.043  0.00  0.00    -0.455 OA
BRANCH  21  22
ATOM     22  C   UNL     1      -6.063  -8.868   0.068  0.00  0.00    +0.312 C 
ATOM     23  O   UNL     1      -5.461  -9.842   0.453  0.00  0.00    -0.250 OA
BRANCH  22  24
ATOM     24  C   UNL     1      -7.495  -8.997  -0.385  0.00  0.00    +0.157 C 
BRANCH  24  25
ATOM     25  C   UNL     1      -7.933 -10.434  -0.260  0.00  0.00    -0.012 A 
ATOM     26  C   UNL     1      -7.922 -11.360  -1.231  0.00  0.00    +0.087 A 
ATOM     27  N   UNL     1      -8.389 -12.551  -0.746  0.00  0.00    -0.360 N 
ATOM     28  H   UNL     1      -8.471 -13.369  -1.261  0.00  0.00    +0.165 HD
ATOM     29  C   UNL     1      -8.730 -12.415   0.581  0.00  0.00    +0.047 A 
ATOM     30  C   UNL     1      -8.459 -11.082   0.944  0.00  0.00    +0.003 A 
ATOM     31  C   UNL     1      -8.709 -10.651   2.248  0.00  0.00    +0.010 A 
ATOM     32  C   UNL     1      -9.217 -11.527   3.167  0.00  0.00    +0.001 A 
ATOM     33  C   UNL     1      -9.486 -12.842   2.813  0.00  0.00    +0.002 A 
ATOM     34  C   UNL     1      -9.246 -13.288   1.532  0.00  0.00    +0.026 A 
ENDBRANCH  24  25
ENDBRANCH  22  24
ENDBRANCH  21  22
ENDBRANCH  20  21
ENDBRANCH   2  20
TORSDOF 7
