REMARK  Name = ZINC46577125
REMARK  8 active torsions:
REMARK  status: ('A' for Active; 'I' for Inactive)
REMARK    1  A    between atoms: C_1  and  C_2
REMARK    2  A    between atoms: C_2  and  C_3
REMARK    3  A    between atoms: C_2  and  C_4
REMARK    4  A    between atoms: C_2  and  C_5
REMARK    5  A    between atoms: C_8  and  S_11
REMARK    6  A    between atoms: S_11  and  N_14
REMARK    7  A    between atoms: C_17  and  C_20
REMARK    8  A    between atoms: N_22  and  N_23
REMARK                            x       y       z     vdW  Elec       q    Type
REMARK                         _______ _______ _______ _____ _____    ______ ____
ROOT
ATOM      1  N   UNL     1       2.580  -0.816  -6.143  0.00  0.00    -0.177 NA
ATOM      2  C   UNL     1       1.415  -0.904  -7.034  0.00  0.00    +0.110 C 
ATOM      3  C   UNL     1       1.900  -0.863  -8.486  0.00  0.00    +0.030 C 
ATOM      4  C   UNL     1       2.760   0.386  -8.697  0.00  0.00    +0.079 C 
ATOM      5  C   UNL     1       3.983   0.325  -7.780  0.00  0.00    +0.030 C 
ATOM      6  C   UNL     1       3.519   0.300  -6.316  0.00  0.00    +0.110 C 
ENDROOT
BRANCH   4   7
ATOM      7  C   UNL     1       3.211   0.448 -10.134  0.00  0.00    +0.232 C 
ATOM      8  O   UNL     1       2.878  -0.421 -10.912  0.00  0.00    -0.274 OA
ATOM      9  N   UNL     1       3.984   1.468 -10.554  0.00  0.00    -0.234 N 
ATOM     10  H   UNL     1       4.251   2.163  -9.931  0.00  0.00    +0.173 HD
BRANCH   9  11
ATOM     11  N   UNL     1       4.404   1.526 -11.889  0.00  0.00    -0.233 N 
ATOM     12  C   UNL     1       5.198   2.574 -12.320  0.00  0.00    +0.232 A 
ATOM     13  N   UNL     1       5.557   3.512 -11.456  0.00  0.00    -0.222 NA
ATOM     14  C   UNL     1       6.316   4.527 -11.835  0.00  0.00    +0.116 A 
ATOM     15  C   UNL     1       6.735   4.601 -13.154  0.00  0.00    +0.039 A 
ATOM     16  C   UNL     1       6.341   3.604 -14.032  0.00  0.00    +0.116 A 
ATOM     17  N   UNL     1       5.586   2.613 -13.586  0.00  0.00    -0.222 NA
ATOM     18  H   UNL     1       4.138   0.831 -12.511  0.00  0.00    +0.173 HD
ENDBRANCH   9  11
ENDBRANCH   4   7
BRANCH   1  19
ATOM     19  S   UNL     1       2.826  -1.950  -4.962  0.00  0.00    +0.061 S 
ATOM     20  O   UNL     1       4.217  -1.937  -4.669  0.00  0.00    -0.153 OA
ATOM     21  O   UNL     1       2.148  -3.127  -5.380  0.00  0.00    -0.153 OA
BRANCH  19  25
ATOM     22  C   UNL     1       0.707  -0.490  -1.238  0.00  0.00    -0.042 A 
ATOM     23  C   UNL     1       0.036  -1.284  -2.148  0.00  0.00    +0.006 A 
ATOM     24  C   UNL     1       0.683  -1.730  -3.286  0.00  0.00    +0.029 A 
ATOM     25  C   UNL     1       2.001  -1.381  -3.513  0.00  0.00    +0.105 A 
ATOM     26  C   UNL     1       2.672  -0.586  -2.603  0.00  0.00    +0.029 A 
ATOM     27  C   UNL     1       2.024  -0.137  -1.467  0.00  0.00    +0.006 A 
BRANCH  22  29
ATOM     28  C   UNL     1      -0.019   1.526   0.010  0.00  0.00    +0.015 C 
ATOM     29  C   UNL     1       0.002  -0.004   0.002  0.00  0.00    -0.013 C 
ATOM     30  C   UNL     1       0.742  -0.511   1.242  0.00  0.00    +0.015 C 
ATOM     31  C   UNL     1      -1.433  -0.534   0.013  0.00  0.00    +0.015 C 
ENDBRANCH  22  29
ENDBRANCH  19  25
ENDBRANCH   1  19
TORSDOF 5
