REMARK  Name = ZINC59811068
REMARK  9 active torsions:
REMARK  status: ('A' for Active; 'I' for Inactive)
REMARK    1  A    between atoms: C_1  and  C_2
REMARK    2  A    between atoms: C_2  and  C_3
REMARK    3  A    between atoms: C_2  and  C_4
REMARK    4  A    between atoms: C_4  and  C_6
REMARK    5  A    between atoms: C_4  and  N_17
REMARK    6  A    between atoms: C_18  and  C_20
REMARK    7  A    between atoms: C_20  and  N_21
REMARK    8  A    between atoms: C_24  and  C_27
REMARK    9  A    between atoms: N_29  and  C_30
REMARK                            x       y       z     vdW  Elec       q    Type
REMARK                         _______ _______ _______ _____ _____    ______ ____
ROOT
ATOM      1  N   UNL     1      -1.413  -1.998   0.005  0.00  0.00    -0.310 N 
ATOM      2  C   UNL     1      -1.314  -2.665  -1.163  0.00  0.00    +0.197 C 
ATOM      3  O   UNL     1      -1.240  -2.051  -2.206  0.00  0.00    -0.278 OA
ATOM      4  H   UNL     1      -1.472  -2.489   0.840  0.00  0.00    +0.149 HD
ENDROOT
BRANCH   1   5
ATOM      5  C   UNL     1      -1.433  -0.534   0.013  0.00  0.00    +0.106 C 
BRANCH   5   6
ATOM      6  C   UNL     1      -2.139  -0.048   1.253  0.00  0.00    -0.023 A 
ATOM      7  C   UNL     1      -1.925  -0.684   2.461  0.00  0.00    +0.009 A 
ATOM      8  C   UNL     1      -2.568  -0.243   3.604  0.00  0.00    +0.050 A 
ATOM      9  C   UNL     1      -3.429   0.839   3.533  0.00  0.00    +0.162 A 
ATOM     10  C   UNL     1      -3.643   1.478   2.320  0.00  0.00    +0.162 A 
ATOM     11  C   UNL     1      -2.994   1.037   1.179  0.00  0.00    +0.055 A 
ATOM     12  O   UNL     1      -4.492   2.545   2.260  0.00  0.00    -0.488 OA
ATOM     13  C   UNL     1      -5.875   2.255   2.472  0.00  0.00    +0.232 C 
ATOM     14  C   UNL     1      -6.198   2.223   3.958  0.00  0.00    +0.082 C 
ATOM     15  C   UNL     1      -5.484   1.092   4.681  0.00  0.00    +0.232 C 
ATOM     16  O   UNL     1      -4.069   1.285   4.652  0.00  0.00    -0.488 OA
ENDBRANCH   5   6
BRANCH   5  18
ATOM     17  C   UNL     1      -0.019   1.526   0.010  0.00  0.00    +0.009 C 
ATOM     18  C   UNL     1       0.002  -0.004   0.002  0.00  0.00    +0.008 C 
ATOM     19  C   UNL     1       0.742  -0.511   1.242  0.00  0.00    +0.009 C 
ENDBRANCH   5  18
ENDBRANCH   1   5
BRANCH   2  20
ATOM     20  C   UNL     1      -1.293  -4.171  -1.171  0.00  0.00    +0.019 C 
BRANCH  20  21
ATOM     21  N   UNL     1      -1.179  -4.652  -2.554  0.00  0.00    +0.385 N 
ATOM     22  C   UNL     1       0.114  -4.235  -3.111  0.00  0.00    -0.077 C 
ATOM     23  C   UNL     1       0.204  -4.663  -4.577  0.00  0.00    -0.006 C 
ATOM     24  C   UNL     1       0.075  -6.186  -4.667  0.00  0.00    +0.071 C 
ATOM     25  C   UNL     1      -1.243  -6.617  -4.018  0.00  0.00    -0.006 C 
ATOM     26  C   UNL     1      -1.280  -6.116  -2.572  0.00  0.00    -0.077 C 
ATOM     27  H   UNL     1      -1.925  -4.258  -3.109  0.00  0.00    -0.081 HD
BRANCH  24  28
ATOM     28  C   UNL     1       0.085  -6.607  -6.114  0.00  0.00    +0.216 C 
ATOM     29  O   UNL     1       0.185  -5.773  -6.988  0.00  0.00    -0.276 OA
ATOM     30  N   UNL     1      -0.017  -7.912  -6.437  0.00  0.00    -0.312 N 
ATOM     31  H   UNL     1      -0.097  -8.580  -5.738  0.00  0.00    +0.149 HD
BRANCH  30  32
ATOM     32  C   UNL     1      -0.007  -8.322  -7.843  0.00  0.00    +0.073 C 
ATOM     33  C   UNL     1      -1.025  -9.378  -8.278  0.00  0.00    +0.024 C 
ATOM     34  C   UNL     1       0.456  -9.745  -8.161  0.00  0.00    +0.024 C 
ENDBRANCH  30  32
ENDBRANCH  24  28
ENDBRANCH  20  21
ENDBRANCH   2  20
TORSDOF 7
