REMARK  Name = ZINC24273534
REMARK  7 active torsions:
REMARK  status: ('A' for Active; 'I' for Inactive)
REMARK    1  A    between atoms: C_1  and  C_2
REMARK    2  A    between atoms: C_5  and  S_7
REMARK    3  A    between atoms: S_7  and  N_10
REMARK    4  A    between atoms: N_10  and  C_11
REMARK    5  A    between atoms: C_16  and  C_17
REMARK    6  A    between atoms: N_19  and  C_20
REMARK    7  A    between atoms: C_20  and  C_21
REMARK                            x       y       z     vdW  Elec       q    Type
REMARK                         _______ _______ _______ _____ _____    ______ ____
ROOT
ATOM      1  C   UNL     1      -8.102   0.803  -1.521  0.00  0.00    +0.086 A 
ATOM      2  C   UNL     1      -9.309   1.279  -1.024  0.00  0.00    +0.027 A 
ATOM      3  C   UNL     1      -9.324   2.351  -0.155  0.00  0.00    +0.002 A 
ATOM      4  C   UNL     1      -8.139   2.957   0.233  0.00  0.00    +0.001 A 
ATOM      5  C   UNL     1      -6.933   2.495  -0.244  0.00  0.00    +0.015 A 
ATOM      6  C   UNL     1      -6.900   1.410  -1.125  0.00  0.00    +0.061 A 
ENDROOT
BRANCH   6   7
ATOM      7  C   UNL     1      -5.612   0.911  -1.639  0.00  0.00    +0.246 C 
ATOM      8  O   UNL     1      -5.588  -0.033  -2.405  0.00  0.00    -0.270 OA
ATOM      9  N   UNL     1      -4.461   1.501  -1.261  0.00  0.00    -0.309 N 
ATOM     10  H   UNL     1      -4.482   2.355  -0.568  0.00  0.00    +0.149 HD
BRANCH   9  11
ATOM     11  C   UNL     1      -3.180   1.005  -1.772  0.00  0.00    +0.136 C 
BRANCH  11  12
ATOM     12  C   UNL     1      -2.040   1.843  -1.191  0.00  0.00    +0.135 C 
ATOM     13  C   UNL     1      -0.700   1.412  -1.819  0.00  0.00    +0.035 C 
ATOM     14  C   UNL     1       0.163   0.979  -0.609  0.00  0.00    +0.031 C 
ATOM     15  C   UNL     1      -0.540   1.702   0.568  0.00  0.00    +0.160 C 
ATOM     16  O   UNL     1      -1.941   1.619   0.225  0.00  0.00    -0.375 OA
ENDBRANCH  11  12
ENDBRANCH   9  11
ENDBRANCH   6   7
BRANCH   1  17
ATOM     17  N   UNL     1      -8.084  -0.272  -2.400  0.00  0.00    -0.097 NA
BRANCH  17  18
ATOM     18  S   UNL     1      -9.293  -0.447  -3.518  0.00  0.00    +0.098 S 
ATOM     19  O   UNL     1      -8.926  -1.543  -4.344  0.00  0.00    -0.148 OA
ATOM     20  O   UNL     1     -10.519  -0.411  -2.799  0.00  0.00    -0.148 OA
BRANCH  18  25
ATOM     21  C   UNL     1      -9.841   4.746  -6.298  0.00  0.00    +0.051 C 
ATOM     22  C   UNL     1      -9.530   3.360  -5.795  0.00  0.00    -0.011 A 
ATOM     23  C   UNL     1      -8.717   2.419  -6.334  0.00  0.00    +0.013 A 
ATOM     24  C   UNL     1      -8.582   1.202  -5.691  0.00  0.00    +0.037 A 
ATOM     25  C   UNL     1      -9.268   0.986  -4.542  0.00  0.00    +0.148 A 
ATOM     26  S   UNL     1     -10.144   2.529  -4.340  0.00  0.00    -0.073 S 
ENDBRANCH  18  25
ENDBRANCH  17  18
ENDBRANCH   1  17
TORSDOF 6
