REMARK  Name = ZINC06714365
REMARK  9 active torsions:
REMARK  status: ('A' for Active; 'I' for Inactive)
REMARK    1  A    between atoms: C_1  and  C_2
REMARK    2  A    between atoms: C_4  and  O_28
REMARK    3  A    between atoms: C_5  and  C_9
REMARK    4  A    between atoms: C_9  and  C_10
REMARK    5  A    between atoms: C_9  and  C_19
REMARK    6  A    between atoms: C_13  and  N_16
REMARK    7  A    between atoms: N_16  and  C_17
REMARK    8  A    between atoms: N_16  and  C_18
REMARK    9  A    between atoms: C_22  and  C_26
REMARK                            x       y       z     vdW  Elec       q    Type
REMARK                         _______ _______ _______ _____ _____    ______ ____
ROOT
ATOM      1  C   UNL     1       3.751  -0.631  -0.035  0.00  0.00    +0.100 C 
ENDROOT
BRANCH   1   2
ATOM      2  C   UNL     1       4.548  -0.841   1.227  0.00  0.00    +0.096 A 
ATOM      3  C   UNL     1       3.912  -1.132   2.420  0.00  0.00    +0.193 A 
ATOM      4  C   UNL     1       4.697  -1.327   3.578  0.00  0.00    +0.092 A 
ATOM      5  C   UNL     1       6.037  -1.215   3.503  0.00  0.00    +0.110 A 
ATOM      6  O   UNL     1       6.646  -0.927   2.344  0.00  0.00    -0.427 OA
ATOM      7  C   UNL     1       5.944  -0.738   1.213  0.00  0.00    +0.345 A 
ATOM      8  O   UNL     1       6.525  -0.478   0.172  0.00  0.00    -0.245 OA
ATOM      9  C   UNL     1       6.867  -1.418   4.745  0.00  0.00    +0.086 C 
ATOM     10  O   UNL     1       2.563  -1.234   2.476  0.00  0.00    -0.287 OA
ENDBRANCH   1   2
BRANCH   1  15
ATOM     11  C   UNL     1       2.292   4.927  -0.424  0.00  0.00    +0.086 C 
ATOM     12  C   UNL     1       2.656   3.468  -0.321  0.00  0.00    +0.110 A 
ATOM     13  C   UNL     1       1.709   2.534  -0.529  0.00  0.00    +0.087 A 
ATOM     14  C   UNL     1       2.044   1.164  -0.441  0.00  0.00    +0.131 A 
ATOM     15  C   UNL     1       3.348   0.817  -0.140  0.00  0.00    +0.090 A 
ATOM     16  C   UNL     1       4.288   1.835   0.066  0.00  0.00    +0.345 A 
ATOM     17  O   UNL     1       5.444   1.551   0.332  0.00  0.00    -0.245 OA
ATOM     18  O   UNL     1       3.919   3.123  -0.030  0.00  0.00    -0.427 OA
BRANCH  14  19
ATOM     19  O   UNL     1       1.106   0.210  -0.647  0.00  0.00    -0.506 OA
ATOM     20  H   UNL     1       1.378  -0.853  -0.576  0.00  0.00    +0.292 HD
ENDBRANCH  14  19
ENDBRANCH   1  15
BRANCH   1  21
ATOM     21  C   UNL     1       4.593  -1.006  -1.228  0.00  0.00    -0.035 A 
ATOM     22  C   UNL     1       5.299  -0.031  -1.908  0.00  0.00    +0.006 A 
ATOM     23  C   UNL     1       6.075  -0.372  -2.998  0.00  0.00    +0.023 A 
ATOM     24  C   UNL     1       6.137  -1.695  -3.418  0.00  0.00    +0.029 A 
ATOM     25  C   UNL     1       5.422  -2.671  -2.736  0.00  0.00    +0.023 A 
ATOM     26  C   UNL     1       4.652  -2.324  -1.644  0.00  0.00    +0.006 A 
BRANCH  24  27
ATOM     27  N   UNL     1       6.917  -2.043  -4.524  0.00  0.00    -0.336 N 
ATOM     28  C   UNL     1       7.070  -3.451  -4.898  0.00  0.00    +0.129 C 
ATOM     29  C   UNL     1       7.582  -1.000  -5.309  0.00  0.00    +0.129 C 
ENDBRANCH  24  27
ENDBRANCH   1  21
TORSDOF 5
