REMARK  Name = ZINC43222257
REMARK  11 active torsions:
REMARK  status: ('A' for Active; 'I' for Inactive)
REMARK    1  A    between atoms: C_1  and  C_2
REMARK    2  A    between atoms: C_2  and  C_3
REMARK    3  A    between atoms: C_2  and  C_4
REMARK    4  A    between atoms: C_4  and  C_5
REMARK    5  A    between atoms: C_5  and  N_6
REMARK    6  A    between atoms: C_7  and  C_9
REMARK    7  A    between atoms: C_14  and  C_16
REMARK    8  A    between atoms: N_18  and  C_19
REMARK    9  A    between atoms: C_19  and  C_20
REMARK   10  A    between atoms: C_23  and  O_26
REMARK   11  A    between atoms: O_26  and  C_27
REMARK                            x       y       z     vdW  Elec       q    Type
REMARK                         _______ _______ _______ _____ _____    ______ ____
ROOT
ATOM      1  C   UNL     1      -6.119  -6.149  -2.997  0.00  0.00    +0.215 C 
ATOM      2  O   UNL     1      -6.893  -5.555  -3.717  0.00  0.00    -0.276 OA
ATOM      3  N   UNL     1      -6.085  -7.496  -3.010  0.00  0.00    -0.311 N 
ATOM      4  H   UNL     1      -5.466  -7.971  -2.433  0.00  0.00    +0.149 HD
ENDROOT
BRANCH   1   9
ATOM      5  C   UNL     1      -5.423  -3.864  -2.250  0.00  0.00    +0.068 C 
ATOM      6  C   UNL     1      -5.877  -3.371  -0.859  0.00  0.00    -0.069 C 
ATOM      7  N   UNL     1      -6.445  -4.576  -0.202  0.00  0.00    +0.380 N 
ATOM      8  C   UNL     1      -5.532  -5.676  -0.605  0.00  0.00    -0.069 C 
ATOM      9  C   UNL     1      -5.197  -5.381  -2.086  0.00  0.00    +0.068 C 
ATOM     10  H   UNL     1      -6.442  -4.465   0.801  0.00  0.00    -0.086 HD
ATOM     11  H   UNL     1      -7.380  -4.752  -0.536  0.00  0.00    -0.086 HD
BRANCH   5  13
ATOM     12  N   UNL     1      -4.110  -1.847  -2.822  0.00  0.00    -0.315 N 
ATOM     13  C   UNL     1      -4.140  -3.184  -2.653  0.00  0.00    +0.215 C 
ATOM     14  O   UNL     1      -3.135  -3.840  -2.825  0.00  0.00    -0.276 OA
ATOM     15  H   UNL     1      -4.914  -1.323  -2.684  0.00  0.00    +0.149 HD
BRANCH  12  16
ATOM     16  C   UNL     1      -2.863  -1.186  -3.214  0.00  0.00    +0.104 C 
BRANCH  16  17
ATOM     17  C   UNL     1      -3.100   0.320  -3.337  0.00  0.00    +0.022 C 
BRANCH  17  19
ATOM     18  C   UNL     1      -2.063   2.497  -3.990  0.00  0.00    +0.007 C 
ATOM     19  C   UNL     1      -1.798   1.010  -3.746  0.00  0.00    -0.016 C 
ATOM     20  C   UNL     1      -0.764   0.853  -2.629  0.00  0.00    +0.007 C 
ENDBRANCH  17  19
ENDBRANCH  16  17
ENDBRANCH  12  16
ENDBRANCH   5  13
ENDBRANCH   1   9
BRANCH   3  21
ATOM     21  C   UNL     1      -6.981  -8.243  -3.896  0.00  0.00    +0.139 C 
BRANCH  21  22
ATOM     22  C   UNL     1      -6.745  -9.721  -3.720  0.00  0.00    -0.030 A 
ATOM     23  C   UNL     1      -5.803 -10.367  -4.500  0.00  0.00    +0.009 A 
ATOM     24  C   UNL     1      -5.584 -11.721  -4.341  0.00  0.00    +0.046 A 
ATOM     25  C   UNL     1      -6.309 -12.434  -3.397  0.00  0.00    +0.128 A 
ATOM     26  C   UNL     1      -7.253 -11.784  -2.615  0.00  0.00    +0.046 A 
ATOM     27  C   UNL     1      -7.465 -10.428  -2.775  0.00  0.00    +0.009 A 
BRANCH  25  28
ATOM     28  O   UNL     1      -6.096 -13.767  -3.238  0.00  0.00    -0.456 OA
BRANCH  28  29
ATOM     29  C   UNL     1      -5.156 -14.360  -4.020  0.00  0.00    +0.128 A 
ATOM     30  C   UNL     1      -3.839 -14.431  -3.591  0.00  0.00    +0.046 A 
ATOM     31  C   UNL     1      -2.885 -15.034  -4.388  0.00  0.00    +0.004 A 
ATOM     32  C   UNL     1      -3.243 -15.566  -5.613  0.00  0.00    +0.000 A 
ATOM     33  C   UNL     1      -4.555 -15.496  -6.044  0.00  0.00    +0.004 A 
ATOM     34  C   UNL     1      -5.514 -14.900  -5.247  0.00  0.00    +0.046 A 
ENDBRANCH  28  29
ENDBRANCH  25  28
ENDBRANCH  21  22
ENDBRANCH   3  21
TORSDOF 9
