REMARK  Name = ZINC25392063
REMARK  9 active torsions:
REMARK  status: ('A' for Active; 'I' for Inactive)
REMARK    1  A    between atoms: C_1  and  C_2
REMARK    2  A    between atoms: C_2  and  C_36
REMARK    3  A    between atoms: C_13  and  C_15
REMARK    4  A    between atoms: C_15  and  N_16
REMARK    5  A    between atoms: C_21  and  O_34
REMARK    6  A    between atoms: C_22  and  O_32
REMARK    7  A    between atoms: C_25  and  C_27
REMARK    8  A    between atoms: O_32  and  C_33
REMARK    9  A    between atoms: O_34  and  C_35
REMARK                            x       y       z     vdW  Elec       q    Type
REMARK                         _______ _______ _______ _____ _____    ______ ____
ROOT
ATOM      1  N   UNL     1      -6.695  -0.599   2.380  0.00  0.00    +0.393 N 
ATOM      2  C   UNL     1      -5.930  -0.438   1.133  0.00  0.00    -0.072 C 
ATOM      3  C   UNL     1      -4.454  -0.259   1.490  0.00  0.00    +0.017 C 
ATOM      4  C   UNL     1      -4.304   0.814   2.538  0.00  0.00    -0.043 A 
ATOM      5  C   UNL     1      -3.050   1.374   2.734  0.00  0.00    +0.053 A 
ATOM      6  C   UNL     1      -2.863   2.353   3.694  0.00  0.00    +0.162 A 
ATOM      7  C   UNL     1      -3.944   2.785   4.457  0.00  0.00    +0.162 A 
ATOM      8  C   UNL     1      -5.194   2.230   4.252  0.00  0.00    +0.052 A 
ATOM      9  C   UNL     1      -5.375   1.244   3.292  0.00  0.00    -0.049 A 
ATOM     10  C   UNL     1      -6.758   0.675   3.105  0.00  0.00    +0.001 C 
ATOM     11  H   UNL     1      -6.179  -1.332   3.016  0.00  0.00    -0.080 HD
ENDROOT
BRANCH  10  12
ATOM     12  C   UNL     1      -7.389   0.448   4.455  0.00  0.00    -0.019 A 
ATOM     13  C   UNL     1      -8.290   1.216   5.115  0.00  0.00    +0.010 A 
ATOM     14  C   UNL     1      -8.736   0.807   6.357  0.00  0.00    +0.008 A 
ATOM     15  C   UNL     1      -8.261  -0.351   6.878  0.00  0.00    +0.045 A 
ATOM     16  S   UNL     1      -7.151  -0.905   5.595  0.00  0.00    -0.103 S 
ENDBRANCH  10  12
BRANCH   7  17
ATOM     17  O   UNL     1      -3.771   3.750   5.400  0.00  0.00    -0.491 OA
ATOM     18  C   UNL     1      -4.926   4.143   6.144  0.00  0.00    +0.277 C 
ENDBRANCH   7  17
BRANCH   6  19
ATOM     19  O   UNL     1      -1.630   2.893   3.887  0.00  0.00    -0.491 OA
ATOM     20  C   UNL     1      -0.569   2.399   3.067  0.00  0.00    +0.277 C 
ENDBRANCH   6  19
BRANCH   1  21
ATOM     21  C   UNL     1      -8.043  -1.116   2.108  0.00  0.00    +0.020 C 
BRANCH  21  34
ATOM     22  C   UNL     1     -10.002   1.861  -0.155  0.00  0.00    +0.042 C 
ATOM     23  C   UNL     1     -10.850   0.624   0.147  0.00  0.00    +0.113 C 
ATOM     24  C   UNL     1     -12.139   1.045   0.804  0.00  0.00    +0.241 C 
ATOM     25  O   UNL     1     -12.631   2.118   0.526  0.00  0.00    -0.273 OA
ATOM     26  N   UNL     1     -12.752   0.244   1.696  0.00  0.00    -0.282 N 
ATOM     27  C   UNL     1     -12.180  -0.977   2.072  0.00  0.00    +0.055 A 
ATOM     28  C   UNL     1     -12.923  -1.927   2.756  0.00  0.00    +0.025 A 
ATOM     29  C   UNL     1     -12.335  -3.135   3.111  0.00  0.00    +0.002 A 
ATOM     30  C   UNL     1     -11.012  -3.389   2.797  0.00  0.00    +0.002 A 
ATOM     31  C   UNL     1     -10.265  -2.444   2.117  0.00  0.00    +0.025 A 
ATOM     32  C   UNL     1     -10.846  -1.243   1.752  0.00  0.00    +0.058 A 
ATOM     33  N   UNL     1     -10.115  -0.266   1.058  0.00  0.00    -0.257 N 
ATOM     34  C   UNL     1      -8.782  -0.150   1.218  0.00  0.00    +0.204 C 
ATOM     35  O   UNL     1      -8.176   0.731   0.645  0.00  0.00    -0.277 OA
ATOM     36  C   UNL     1     -11.158  -0.118  -1.155  0.00  0.00    +0.042 C 
ATOM     37  H   UNL     1     -13.712   0.547   2.139  0.00  0.00    +0.155 HD
ENDBRANCH  21  34
ENDBRANCH   1  21
TORSDOF 5
