REMARK  Name = ZINC35746166
REMARK  18 active torsions:
REMARK  status: ('A' for Active; 'I' for Inactive)
REMARK    1  A    between atoms: C_1  and  C_2
REMARK    2  A    between atoms: C_2  and  C_3
REMARK    3  A    between atoms: C_3  and  C_4
REMARK    4  A    between atoms: C_4  and  O_6
REMARK    5  A    between atoms: O_6  and  C_7
REMARK    6  A    between atoms: C_7  and  C_8
REMARK    7  A    between atoms: C_8  and  C_10
REMARK    8  A    between atoms: C_8  and  O_36
REMARK    9  A    between atoms: C_10  and  N_11
REMARK   10  A    between atoms: N_11  and  C_12
REMARK   11  A    between atoms: N_11  and  C_32
REMARK   12  A    between atoms: C_12  and  C_13
REMARK   13  A    between atoms: C_19  and  C_24
REMARK   14  A    between atoms: C_28  and  O_30
REMARK   15  A    between atoms: O_30  and  C_31
REMARK   16  A    between atoms: C_32  and  C_33
REMARK   17  A    between atoms: C_33  and  C_34
REMARK   18  A    between atoms: C_33  and  C_35
REMARK                            x       y       z     vdW  Elec       q    Type
REMARK                         _______ _______ _______ _____ _____    ______ ____
ROOT
ATOM      1  C   UNL     1      -6.143  -8.902   0.812  0.00  0.00    +0.094 A 
ATOM      2  N   UNL     1      -5.987 -10.180   1.244  0.00  0.00    -0.312 N 
ATOM      3  H   UNL     1      -5.100 -10.502   1.470  0.00  0.00    +0.170 HD
ATOM      4  C   UNL     1      -7.040 -11.010   1.364  0.00  0.00    +0.260 A 
ATOM      5  O   UNL     1      -6.884 -12.155   1.754  0.00  0.00    -0.267 OA
ATOM      6  C   UNL     1      -8.345 -10.528   1.029  0.00  0.00    +0.080 A 
ATOM      7  C   UNL     1      -9.626 -11.224   1.075  0.00  0.00    +0.004 A 
ATOM      8  C   UNL     1     -10.745 -10.555   0.706  0.00  0.00    +0.056 A 
ATOM      9  S   UNL     1     -10.134  -8.938   0.272  0.00  0.00    -0.076 S 
ATOM     10  C   UNL     1      -8.408  -9.195   0.592  0.00  0.00    +0.116 A 
ATOM     11  N   UNL     1      -7.321  -8.432   0.503  0.00  0.00    -0.229 NA
ENDROOT
BRANCH   7  12
ATOM     12  C   UNL     1      -9.702 -12.637   1.518  0.00  0.00    -0.013 A 
ATOM     13  C   UNL     1      -8.846 -13.589   0.966  0.00  0.00    +0.009 A 
ATOM     14  C   UNL     1      -8.919 -14.904   1.380  0.00  0.00    +0.004 A 
ATOM     15  C   UNL     1      -9.840 -15.280   2.341  0.00  0.00    +0.045 A 
ATOM     16  C   UNL     1     -10.696 -14.338   2.894  0.00  0.00    +0.121 A 
ATOM     17  C   UNL     1     -10.626 -13.015   2.490  0.00  0.00    +0.054 A 
BRANCH  16  18
ATOM     18  O   UNL     1     -11.599 -14.713   3.838  0.00  0.00    -0.495 OA
ATOM     19  C   UNL     1     -11.612 -16.092   4.212  0.00  0.00    +0.277 C 
ENDBRANCH  16  18
ENDBRANCH   7  12
BRANCH   1  20
ATOM     20  C   UNL     1      -4.935  -8.009   0.693  0.00  0.00    -0.003 C 
BRANCH  20  21
ATOM     21  N   UNL     1      -5.361  -6.657   0.309  0.00  0.00    +0.386 N 
ATOM     22  H   UNL     1      -6.061  -6.328   0.957  0.00  0.00    -0.081 HD
BRANCH  21  23
ATOM     23  C   UNL     1      -4.204  -5.752   0.335  0.00  0.00    -0.043 C 
BRANCH  23  24
ATOM     24  C   UNL     1      -4.689  -4.302   0.278  0.00  0.00    +0.136 C 
BRANCH  24  25
ATOM     25  O   UNL     1      -5.282  -4.048  -0.997  0.00  0.00    -0.390 OA
ATOM     26  H   UNL     1      -4.703  -4.244  -1.746  0.00  0.00    +0.210 HD
ENDBRANCH  24  25
BRANCH  24  27
ATOM     27  C   UNL     1      -3.503  -3.359   0.486  0.00  0.00    +0.261 C 
BRANCH  27  28
ATOM     28  O   UNL     1      -3.972  -2.011   0.549  0.00  0.00    -0.462 OA
BRANCH  28  29
ATOM     29  C   UNL     1      -3.049  -1.053   0.729  0.00  0.00    +0.307 C 
ATOM     30  O   UNL     1      -1.882  -1.349   0.831  0.00  0.00    -0.251 OA
BRANCH  29  31
ATOM     31  C   UNL     1      -3.469   0.393   0.806  0.00  0.00    +0.120 C 
BRANCH  31  33
ATOM     32  C   UNL     1      -2.660   2.740   1.091  0.00  0.00    +0.004 C 
ATOM     33  C   UNL     1      -2.234   1.272   1.014  0.00  0.00    +0.008 C 
ENDBRANCH  31  33
ENDBRANCH  29  31
ENDBRANCH  28  29
ENDBRANCH  27  28
ENDBRANCH  24  27
ENDBRANCH  23  24
ENDBRANCH  21  23
BRANCH  21  34
ATOM     34  C   UNL     1      -5.927  -6.689  -1.047  0.00  0.00    -0.075 C 
BRANCH  34  35
ATOM     35  C   UNL     1      -5.142  -7.684  -1.904  0.00  0.00    -0.034 C 
ATOM     36  C   UNL     1      -5.804  -7.808  -3.277  0.00  0.00    +0.005 C 
ATOM     37  C   UNL     1      -3.705  -7.188  -2.074  0.00  0.00    +0.005 C 
ENDBRANCH  34  35
ENDBRANCH  21  34
ENDBRANCH  20  21
ENDBRANCH   1  20
TORSDOF 14
