REMARK  Name = ZINC40688619
REMARK  9 active torsions:
REMARK  status: ('A' for Active; 'I' for Inactive)
REMARK    1  A    between atoms: C_1  and  C_2
REMARK    2  A    between atoms: C_2  and  N_3
REMARK    3  A    between atoms: C_5  and  N_30
REMARK    4  A    between atoms: C_6  and  N_10
REMARK    5  A    between atoms: N_10  and  C_11
REMARK    6  A    between atoms: C_14  and  C_18
REMARK    7  A    between atoms: C_16  and  C_17
REMARK    8  A    between atoms: C_18  and  C_20
REMARK    9  A    between atoms: C_18  and  C_22
REMARK                            x       y       z     vdW  Elec       q    Type
REMARK                         _______ _______ _______ _____ _____    ______ ____
ROOT
ATOM      1  C   UNL     1      -4.336  -5.707  -0.152  0.00  0.00    +0.037 A 
ATOM      2  C   UNL     1      -3.226  -6.542  -0.167  0.00  0.00    +0.043 A 
ATOM      3  C   UNL     1      -3.395  -7.911  -0.244  0.00  0.00    +0.047 A 
ATOM      4  C   UNL     1      -4.668  -8.450  -0.306  0.00  0.00    -0.008 A 
ATOM      5  C   UNL     1      -5.774  -7.621  -0.291  0.00  0.00    +0.011 A 
ATOM      6  C   UNL     1      -5.612  -6.251  -0.208  0.00  0.00    -0.029 A 
ATOM      7  C   UNL     1      -6.819  -5.349  -0.186  0.00  0.00    +0.045 C 
ATOM      8 CL   UNL     1      -2.009  -8.957  -0.263  0.00  0.00    -0.083 Cl
ENDROOT
BRANCH   1   9
ATOM      9  N   UNL     1      -4.168  -4.321  -0.074  0.00  0.00    -0.298 N 
ATOM     10  H   UNL     1      -4.864  -3.730  -0.401  0.00  0.00    +0.154 HD
BRANCH   9  14
ATOM     11  N   UNL     1      -1.307  -0.575   1.010  0.00  0.00    -0.328 N 
ATOM     12  C   UNL     1      -1.588  -1.936   1.009  0.00  0.00    +0.145 A 
ATOM     13  C   UNL     1      -2.772  -2.415   0.446  0.00  0.00    +0.105 A 
ATOM     14  C   UNL     1      -3.005  -3.791   0.473  0.00  0.00    +0.149 A 
ATOM     15  N   UNL     1      -2.095  -4.588   1.029  0.00  0.00    -0.219 NA
ATOM     16  C   UNL     1      -0.990  -4.095   1.549  0.00  0.00    +0.225 A 
ATOM     17  N   UNL     1      -0.730  -2.803   1.541  0.00  0.00    -0.219 NA
ATOM     18  H   UNL     1      -1.938   0.051   0.620  0.00  0.00    +0.147 HD
BRANCH  13  19
ATOM     19  N   UNL     1      -3.704  -1.537  -0.130  0.00  0.00    -0.353 N 
ATOM     20  H   UNL     1      -3.530  -0.583  -0.141  0.00  0.00    +0.143 HD
ATOM     21  H   UNL     1      -4.523  -1.885  -0.517  0.00  0.00    +0.143 HD
ENDBRANCH  13  19
BRANCH  11  23
ATOM     22  C   UNL     1       0.003   1.439   1.468  0.00  0.00    +0.024 C 
ATOM     23  C   UNL     1      -0.058  -0.084   1.598  0.00  0.00    +0.099 C 
ENDBRANCH  11  23
ENDBRANCH   9  14
ENDBRANCH   1   9
BRANCH   4  24
ATOM     24  C   UNL     1      -4.850  -9.944  -0.391  0.00  0.00    +0.153 C 
BRANCH  24  25
ATOM     25  C   UNL     1      -5.426 -10.304  -1.736  0.00  0.00    -0.026 A 
ATOM     26  C   UNL     1      -6.712  -9.918  -2.063  0.00  0.00    +0.006 A 
ATOM     27  C   UNL     1      -7.241 -10.249  -3.296  0.00  0.00    +0.020 A 
ATOM     28  C   UNL     1      -6.482 -10.966  -4.204  0.00  0.00    +0.041 A 
ATOM     29  C   UNL     1      -5.194 -11.352  -3.877  0.00  0.00    +0.020 A 
ATOM     30  C   UNL     1      -4.665 -11.016  -2.645  0.00  0.00    +0.006 A 
ATOM     31 CL   UNL     1      -7.145 -11.382  -5.754  0.00  0.00    -0.084 Cl
ENDBRANCH  24  25
BRANCH  24  32
ATOM     32  C   UNL     1      -5.768 -10.387   0.671  0.00  0.00    +0.075 C 
ATOM     33  N   UNL     1      -6.476 -10.730   1.490  0.00  0.00    -0.196 NA
ENDBRANCH  24  32
ENDBRANCH   4  24
TORSDOF 7
