REMARK  Name = ZINC04753964
REMARK  5 active torsions:
REMARK  status: ('A' for Active; 'I' for Inactive)
REMARK    1  A    between atoms: C_1  and  O_2
REMARK    2  A    between atoms: O_2  and  C_3
REMARK    3  A    between atoms: C_5  and  C_10
REMARK    4  A    between atoms: C_8  and  O_9
REMARK    5  A    between atoms: N_11  and  N_12
REMARK                            x       y       z     vdW  Elec       q    Type
REMARK                         _______ _______ _______ _____ _____    ______ ____
ROOT
ATOM      1  N   UNL     1      -4.766   0.257  -2.286  0.00  0.00    -0.220 N 
ATOM      2  C   UNL     1      -5.191   0.428  -0.981  0.00  0.00    +0.150 A 
ATOM      3  C   UNL     1      -4.275   0.598   0.098  0.00  0.00    +0.052 A 
ATOM      4  C   UNL     1      -2.824   0.618   0.022  0.00  0.00    -0.025 A 
ATOM      5  C   UNL     1      -2.158   0.792   1.186  0.00  0.00    -0.004 A 
ATOM      6  S   UNL     1      -3.417   0.939   2.429  0.00  0.00    -0.073 S 
ATOM      7  C   UNL     1      -4.833   0.765   1.391  0.00  0.00    +0.114 A 
ATOM      8  N   UNL     1      -6.130   0.770   1.624  0.00  0.00    -0.228 NA
ATOM      9  C   UNL     1      -6.928   0.607   0.576  0.00  0.00    +0.224 A 
ATOM     10  N   UNL     1      -6.482   0.446  -0.654  0.00  0.00    -0.219 NA
ATOM     11  C   UNL     1      -0.670   0.848   1.385  0.00  0.00    +0.043 C 
ATOM     12  C   UNL     1       0.006   0.309   0.116  0.00  0.00    +0.005 C 
ATOM     13  C   UNL     1      -0.636   0.974  -1.105  0.00  0.00    +0.005 C 
ATOM     14  C   UNL     1      -2.061   0.452  -1.290  0.00  0.00    +0.037 C 
ATOM     15  H   UNL     1      -3.845   0.011  -2.467  0.00  0.00    +0.176 HD
ENDROOT
BRANCH   1  17
ATOM     16  C   UNL     1      -5.265   0.277  -4.570  0.00  0.00    +0.138 C 
ATOM     17  N   UNL     1      -5.664   0.438  -3.345  0.00  0.00    -0.189 NA
BRANCH  16  20
ATOM     18  C   UNL     1      -6.675   0.475  -8.044  0.00  0.00    +0.162 A 
ATOM     19  C   UNL     1      -5.784   0.295  -7.003  0.00  0.00    +0.058 A 
ATOM     20  C   UNL     1      -6.211   0.468  -5.684  0.00  0.00    -0.002 A 
ATOM     21  C   UNL     1      -7.539   0.817  -5.424  0.00  0.00    +0.013 A 
ATOM     22  C   UNL     1      -8.421   1.000  -6.469  0.00  0.00    +0.050 A 
ATOM     23  C   UNL     1      -7.996   0.828  -7.778  0.00  0.00    +0.158 A 
BRANCH  18  25
ATOM     24  C   UNL     1      -4.894  -0.054  -9.529  0.00  0.00    +0.277 C 
ATOM     25  O   UNL     1      -6.262   0.308  -9.329  0.00  0.00    -0.491 OA
ENDBRANCH  18  25
BRANCH  23  26
ATOM     26  O   UNL     1      -8.870   1.005  -8.803  0.00  0.00    -0.503 OA
ATOM     27  H   UNL     1      -9.344   0.201  -9.059  0.00  0.00    +0.292 HD
ENDBRANCH  23  26
ENDBRANCH  16  20
ENDBRANCH   1  17
TORSDOF 4
