REMARK  Name = ZINC36568692
REMARK  11 active torsions:
REMARK  status: ('A' for Active; 'I' for Inactive)
REMARK    1  A    between atoms: C_1  and  C_2
REMARK    2  A    between atoms: C_2  and  C_3
REMARK    3  A    between atoms: C_3  and  N_4
REMARK    4  A    between atoms: N_4  and  C_5
REMARK    5  A    between atoms: C_5  and  C_7
REMARK    6  A    between atoms: C_5  and  C_16
REMARK    7  A    between atoms: C_8  and  O_15
REMARK    8  A    between atoms: C_10  and  O_14
REMARK    9  A    between atoms: C_12  and  O_13
REMARK   10  A    between atoms: N_18  and  C_19
REMARK   11  A    between atoms: C_25  and  C_27
REMARK                            x       y       z     vdW  Elec       q    Type
REMARK                         _______ _______ _______ _____ _____    ______ ____
ROOT
ATOM      1  C   UNL     1      -0.197  -2.753  -2.012  0.00  0.00    +0.199 C 
ENDROOT
BRANCH   1   2
ATOM      2  C   UNL     1      -0.108  -2.869  -3.512  0.00  0.00    +0.065 A 
ATOM      3  C   UNL     1      -0.339  -4.089  -4.129  0.00  0.00    +0.129 A 
ATOM      4  C   UNL     1      -0.257  -4.196  -5.509  0.00  0.00    +0.091 A 
ATOM      5  C   UNL     1       0.055  -3.081  -6.273  0.00  0.00    +0.124 A 
ATOM      6  C   UNL     1       0.284  -1.860  -5.657  0.00  0.00    +0.091 A 
ATOM      7  C   UNL     1       0.198  -1.753  -4.277  0.00  0.00    +0.129 A 
BRANCH   7   8
ATOM      8  O   UNL     1       0.418  -0.555  -3.673  0.00  0.00    -0.506 OA
ATOM      9  H   UNL     1       1.342  -0.400  -3.433  0.00  0.00    +0.292 HD
ENDBRANCH   7   8
BRANCH   5  10
ATOM     10  O   UNL     1       0.136  -3.185  -7.625  0.00  0.00    -0.507 OA
ATOM     11  H   UNL     1      -0.700  -3.021  -8.083  0.00  0.00    +0.292 HD
ENDBRANCH   5  10
BRANCH   3  12
ATOM     12  O   UNL     1      -0.644  -5.182  -3.380  0.00  0.00    -0.506 OA
ATOM     13  H   UNL     1      -1.593  -5.347  -3.294  0.00  0.00    +0.292 HD
ENDBRANCH   3  12
ENDBRANCH   1   2
BRANCH   1  14
ATOM     14  C   UNL     1      -1.410  -1.939  -1.642  0.00  0.00    +0.239 C 
ATOM     15  O   UNL     1      -1.286  -0.939  -0.967  0.00  0.00    -0.273 OA
ATOM     16  N   UNL     1      -2.632  -2.322  -2.061  0.00  0.00    -0.311 N 
ATOM     17  H   UNL     1      -2.731  -3.121  -2.602  0.00  0.00    +0.149 HD
BRANCH  16  18
ATOM     18  C   UNL     1      -3.811  -1.530  -1.701  0.00  0.00    +0.073 C 
ATOM     19  C   UNL     1      -4.312  -1.960  -0.321  0.00  0.00    +0.022 C 
ATOM     20  C   UNL     1      -5.543  -1.133   0.055  0.00  0.00    +0.002 C 
ATOM     21  C   UNL     1      -6.646  -1.361  -0.981  0.00  0.00    +0.000 C 
ATOM     22  C   UNL     1      -6.146  -0.931  -2.361  0.00  0.00    +0.002 C 
ATOM     23  C   UNL     1      -4.914  -1.758  -2.737  0.00  0.00    +0.022 C 
ENDBRANCH  16  18
ENDBRANCH   1  14
BRANCH   1  24
ATOM     24  N   UNL     1       1.008  -2.095  -1.501  0.00  0.00    -0.279 N 
ATOM     25  C   UNL     1       2.135  -2.808  -1.307  0.00  0.00    +0.283 C 
ATOM     26  O   UNL     1       2.143  -4.005  -1.530  0.00  0.00    -0.267 OA
BRANCH  25  27
ATOM     27  C   UNL     1       3.350  -2.143  -0.827  0.00  0.00    +0.189 A 
ATOM     28  C   UNL     1       4.590  -2.708  -0.731  0.00  0.00    +0.054 A 
ATOM     29  C   UNL     1       5.447  -1.717  -0.228  0.00  0.00    +0.042 A 
ATOM     30  C   UNL     1       4.703  -0.605  -0.041  0.00  0.00    +0.196 A 
ATOM     31  O   UNL     1       3.441  -0.864  -0.407  0.00  0.00    -0.458 OA
ENDBRANCH  25  27
BRANCH  24  32
ATOM     32  C   UNL     1       0.988  -0.661  -1.201  0.00  0.00    +0.109 C 
BRANCH  32  34
ATOM     33  C   UNL     1       0.763   1.040   0.615  0.00  0.00    +0.005 C 
ATOM     34  C   UNL     1       0.774  -0.457   0.300  0.00  0.00    +0.016 C 
ENDBRANCH  32  34
ENDBRANCH  24  32
ENDBRANCH   1  24
TORSDOF 10
