REMARK  Name = ZINC13642985
REMARK  5 active torsions:
REMARK  status: ('A' for Active; 'I' for Inactive)
REMARK    1  A    between atoms: C_1  and  C_2
REMARK    2  A    between atoms: C_2  and  N_3
REMARK    3  A    between atoms: C_14  and  C_16
REMARK    4  A    between atoms: C_29  and  C_32
REMARK    5  A    between atoms: N_34  and  C_35
REMARK                            x       y       z     vdW  Elec       q    Type
REMARK                         _______ _______ _______ _____ _____    ______ ____
ROOT
ATOM      1  C   UNL     1      -5.296  -1.363   0.022  0.00  0.00    +0.105 C 
ATOM      2  C   UNL     1      -5.865  -1.647  -1.370  0.00  0.00    +0.029 C 
ATOM      3  C   UNL     1      -4.729  -1.421  -2.406  0.00  0.00    +0.033 C 
ATOM      4  C   UNL     1      -4.740   0.079  -2.624  0.00  0.00    -0.030 C 
ATOM      5  C   UNL     1      -5.895   0.586  -2.273  0.00  0.00    -0.023 C 
ATOM      6  C   UNL     1      -6.817  -0.498  -1.765  0.00  0.00    +0.049 C 
ATOM      7  C   UNL     1      -7.607  -0.009  -0.587  0.00  0.00    -0.019 A 
ATOM      8  C   UNL     1      -8.613   0.918  -0.818  0.00  0.00    +0.006 A 
ATOM      9  C   UNL     1      -9.374   1.418   0.223  0.00  0.00    +0.001 A 
ATOM     10  C   UNL     1      -9.143   1.000   1.515  0.00  0.00    +0.015 A 
ATOM     11  C   UNL     1      -8.138   0.067   1.768  0.00  0.00    +0.058 A 
ATOM     12  C   UNL     1      -7.366  -0.443   0.705  0.00  0.00    +0.044 A 
ATOM     13  N   UNL     1      -6.381  -1.372   1.003  0.00  0.00    -0.336 N 
ATOM     14  H   UNL     1      -6.774  -2.297   1.100  0.00  0.00    +0.147 HD
ENDROOT
BRANCH   1  26
ATOM     15  N   UNL     1      -3.005   3.799   0.128  0.00  0.00    -0.340 N 
ATOM     16  C   UNL     1      -4.019   4.533   0.717  0.00  0.00    +0.050 A 
ATOM     17  C   UNL     1      -4.128   5.879   1.051  0.00  0.00    +0.026 A 
ATOM     18  C   UNL     1      -5.279   6.352   1.642  0.00  0.00    +0.002 A 
ATOM     19  C   UNL     1      -6.337   5.497   1.910  0.00  0.00    +0.001 A 
ATOM     20  C   UNL     1      -6.248   4.160   1.586  0.00  0.00    +0.010 A 
ATOM     21  C   UNL     1      -5.088   3.668   0.993  0.00  0.00    +0.008 A 
ATOM     22  C   UNL     1      -4.672   2.329   0.536  0.00  0.00    +0.008 A 
ATOM     23  C   UNL     1      -3.376   2.470   0.018  0.00  0.00    +0.050 A 
ATOM     24  C   UNL     1      -2.721   1.354  -0.492  0.00  0.00    +0.027 A 
ATOM     25  C   UNL     1      -3.346   0.125  -0.487  0.00  0.00    +0.007 A 
ATOM     26  C   UNL     1      -4.627  -0.013   0.025  0.00  0.00    -0.026 A 
ATOM     27  C   UNL     1      -5.291   1.082   0.536  0.00  0.00    +0.016 A 
BRANCH  15  29
ATOM     28  C   UNL     1      -0.713   4.258   0.849  0.00  0.00    +0.027 C 
ATOM     29  C   UNL     1      -1.716   4.346  -0.303  0.00  0.00    +0.119 C 
ENDBRANCH  15  29
ENDBRANCH   1  26
BRANCH  11  30
ATOM     30  C   UNL     1      -7.883  -0.387   3.148  0.00  0.00    +0.246 C 
ATOM     31  O   UNL     1      -7.006  -1.200   3.368  0.00  0.00    -0.270 OA
ATOM     32  N   UNL     1      -8.621   0.101   4.164  0.00  0.00    -0.314 N 
ATOM     33  C   UNL     1      -8.368  -0.349   5.535  0.00  0.00    +0.128 C 
ATOM     34  H   UNL     1      -9.320   0.750   3.989  0.00  0.00    +0.149 HD
ENDBRANCH  11  30
TORSDOF 3
