REMARK  Name = ZINC17123740
REMARK  5 active torsions:
REMARK  status: ('A' for Active; 'I' for Inactive)
REMARK    1  A    between atoms: C_1  and  C_2
REMARK    2  A    between atoms: C_9  and  N_21
REMARK    3  A    between atoms: C_10  and  C_13
REMARK    4  A    between atoms: N_21  and  C_22
REMARK    5  A    between atoms: C_22  and  C_23
REMARK                            x       y       z     vdW  Elec       q    Type
REMARK                         _______ _______ _______ _____ _____    ______ ____
ROOT
ATOM      1  C   UNL     1       0.239   1.461  -0.025  0.00  0.00    +0.047 C 
ATOM      2  C   UNL     1      -0.002  -0.026  -0.011  0.00  0.00    -0.007 A 
ATOM      3  C   UNL     1      -0.235  -0.696  -1.176  0.00  0.00    +0.008 A 
ATOM      4  C   UNL     1      -0.457  -2.079  -1.146  0.00  0.00    +0.019 A 
ATOM      5  C   UNL     1      -0.441  -2.743   0.032  0.00  0.00    +0.096 A 
ATOM      6  N   UNL     1      -0.209  -2.083   1.202  0.00  0.00    -0.267 N 
ATOM      7  C   UNL     1       0.017  -0.735   1.204  0.00  0.00    +0.145 A 
ATOM      8  N   UNL     1       0.251  -0.072   2.337  0.00  0.00    -0.214 NA
ATOM      9  C   UNL     1       0.281  -0.687   3.510  0.00  0.00    +0.134 A 
ATOM     10  C   UNL     1       0.060  -2.085   3.570  0.00  0.00    +0.081 A 
ATOM     11  C   UNL     1      -0.200  -2.777   2.360  0.00  0.00    +0.267 A 
ATOM     12  O   UNL     1      -0.396  -3.980   2.364  0.00  0.00    -0.267 OA
ENDROOT
BRANCH  10  13
ATOM     13  C   UNL     1       0.085  -2.769   4.803  0.00  0.00    +0.037 C 
ATOM     14  C   UNL     1       1.080  -3.691   5.061  0.00  0.00    +0.079 C 
ATOM     15  C   UNL     1       2.224  -4.029   4.292  0.00  0.00    +0.275 C 
ATOM     16  O   UNL     1       2.471  -3.413   3.112  0.00  0.00    -0.267 OA
ATOM     17  N   UNL     1       3.029  -4.941   4.746  0.00  0.00    -0.161 NA
ATOM     18  C   UNL     1       2.803  -5.563   5.913  0.00  0.00    +0.139 C 
ATOM     19  S   UNL     1       3.728  -6.780   6.683  0.00  0.00    -0.026 S 
ATOM     20  S   UNL     1       1.289  -4.785   6.460  0.00  0.00    -0.059 S 
ENDBRANCH  10  13
BRANCH   9  21
ATOM     21  N   UNL     1       0.526   0.027   4.662  0.00  0.00    -0.325 N 
ATOM     22  H   UNL     1       0.547  -0.428   5.518  0.00  0.00    +0.148 HD
BRANCH  21  23
ATOM     23  C   UNL     1       0.754   1.472   4.593  0.00  0.00    +0.130 C 
BRANCH  23  24
ATOM     24  C   UNL     1       0.996   2.009   5.980  0.00  0.00    -0.016 C 
ATOM     25  C   UNL     1       2.083   2.692   6.238  0.00  0.00    +0.005 C 
ENDBRANCH  23  24
ENDBRANCH  21  23
ENDBRANCH   9  21
TORSDOF 4
