REMARK  Name = ZINC13429730
REMARK  3 active torsions:
REMARK  status: ('A' for Active; 'I' for Inactive)
REMARK    1  A    between atoms: C_2  and  C_23
REMARK    2  A    between atoms: C_3  and  N_11
REMARK    3  A    between atoms: C_12  and  C_14
REMARK                            x       y       z     vdW  Elec       q    Type
REMARK                         _______ _______ _______ _____ _____    ______ ____
ROOT
ATOM      1  C   UNL     1      -3.740   6.151  -0.866  0.00  0.00    +0.066 A 
ATOM      2  C   UNL     1      -2.529   5.456  -0.770  0.00  0.00    +0.088 A 
ATOM      3  C   UNL     1      -2.478   4.245  -0.061  0.00  0.00    +0.052 A 
ATOM      4  C   UNL     1      -3.626   3.745   0.531  0.00  0.00    +0.073 A 
ATOM      5  C   UNL     1      -4.822   4.442   0.435  0.00  0.00    +0.164 A 
ATOM      6  C   UNL     1      -4.876   5.646  -0.267  0.00  0.00    +0.163 A 
ATOM      7  O   UNL     1      -6.044   6.340  -0.368  0.00  0.00    -0.485 OA
ATOM      8  C   UNL     1      -7.247   5.623  -0.071  0.00  0.00    +0.270 C 
ATOM      9  C   UNL     1      -7.028   4.835   1.228  0.00  0.00    +0.270 C 
ATOM     10  O   UNL     1      -5.935   3.932   1.026  0.00  0.00    -0.485 OA
ENDROOT
BRANCH   3  11
ATOM     11  N   UNL     1      -1.277   3.545   0.041  0.00  0.00    -0.281 N 
ATOM     12  C   UNL     1      -1.280   2.197   0.036  0.00  0.00    +0.249 C 
ATOM     13  O   UNL     1      -2.334   1.591   0.023  0.00  0.00    -0.270 OA
ATOM     14  H   UNL     1      -0.439   4.028   0.117  0.00  0.00    +0.155 HD
BRANCH  12  15
ATOM     15  C   UNL     1      -0.007   1.459   0.046  0.00  0.00    +0.047 A 
ATOM     16  C   UNL     1       1.200   2.123   0.055  0.00  0.00    +0.058 A 
ATOM     17  S   UNL     1       2.361   0.835   0.056  0.00  0.00    -0.101 S 
ATOM     18  C   UNL     1       1.252  -0.545   0.045  0.00  0.00    -0.006 A 
ATOM     19  C   UNL     1       0.018   0.008   0.041  0.00  0.00    -0.025 A 
ATOM     20  C   UNL     1      -1.232  -0.863   0.029  0.00  0.00    +0.037 C 
ATOM     21  C   UNL     1      -0.846  -2.270  -0.431  0.00  0.00    +0.005 C 
ATOM     22  C   UNL     1       0.322  -2.792   0.410  0.00  0.00    +0.005 C 
ATOM     23  C   UNL     1       1.588  -2.004   0.042  0.00  0.00    +0.043 C 
ENDBRANCH  12  15
ENDBRANCH   3  11
BRANCH   2  24
ATOM     24  C   UNL     1      -1.317   5.990  -1.409  0.00  0.00    +0.388 C 
ATOM     25  O   UNL     1      -0.291   5.338  -1.409  0.00  0.00    -0.241 OA
ATOM     26  O   UNL     1      -1.343   7.204  -1.995  0.00  0.00    -0.241 OA
ENDBRANCH   2  24
TORSDOF 3
