REMARK  Name = ZINC33254029
REMARK  6 active torsions:
REMARK  status: ('A' for Active; 'I' for Inactive)
REMARK    1  A    between atoms: C_5  and  S_7
REMARK    2  A    between atoms: S_7  and  N_10
REMARK    3  A    between atoms: N_10  and  C_11
REMARK    4  A    between atoms: C_13  and  C_29
REMARK    5  A    between atoms: C_16  and  N_17
REMARK    6  A    between atoms: C_20  and  N_23
REMARK                            x       y       z     vdW  Elec       q    Type
REMARK                         _______ _______ _______ _____ _____    ______ ____
ROOT
ATOM      1  C   UNL     1       0.205  -2.586   2.416  0.00  0.00    +0.070 A 
ATOM      2  C   UNL     1      -1.099  -2.604   1.961  0.00  0.00    +0.041 A 
ATOM      3  C   UNL     1      -2.143  -2.249   2.824  0.00  0.00    +0.065 A 
ATOM      4  C   UNL     1      -1.860  -1.878   4.144  0.00  0.00    +0.017 A 
ATOM      5  C   UNL     1      -0.559  -1.862   4.591  0.00  0.00    +0.026 A 
ATOM      6  C   UNL     1       0.479  -2.219   3.737  0.00  0.00    +0.052 A 
ENDROOT
BRANCH   6   7
ATOM      7  N   UNL     1       1.793  -2.207   4.196  0.00  0.00    -0.329 N 
ATOM      8  C   UNL     1       2.611  -0.992   4.090  0.00  0.00    +0.103 C 
ATOM      9  C   UNL     1       3.175  -0.654   5.474  0.00  0.00    +0.004 C 
ATOM     10  C   UNL     1       3.923  -1.870   6.026  0.00  0.00    -0.066 C 
ATOM     11  C   UNL     1       2.953  -3.045   6.172  0.00  0.00    +0.004 C 
ATOM     12  C   UNL     1       2.385  -3.407   4.802  0.00  0.00    +0.103 C 
BRANCH  10  13
ATOM     13  N   UNL     1       4.493  -1.539   7.339  0.00  0.00    +0.382 N 
ATOM     14  C   UNL     1       5.418  -0.408   7.198  0.00  0.00    -0.078 C 
ATOM     15  C   UNL     1       5.952  -0.007   8.575  0.00  0.00    -0.019 C 
ATOM     16  C   UNL     1       6.690  -1.197   9.196  0.00  0.00    -0.004 C 
ATOM     17  C   UNL     1       5.737  -2.394   9.269  0.00  0.00    -0.019 C 
ATOM     18  C   UNL     1       5.210  -2.706   7.867  0.00  0.00    -0.078 C 
ATOM     19  H   UNL     1       3.750  -1.287   7.973  0.00  0.00    -0.081 HD
ENDBRANCH  10  13
ENDBRANCH   6   7
BRANCH   3  20
ATOM     20  C   UNL     1      -3.534  -2.266   2.345  0.00  0.00    +0.387 C 
ATOM     21  O   UNL     1      -3.779  -2.591   1.191  0.00  0.00    -0.241 OA
ATOM     22  O   UNL     1      -4.445  -1.956   3.100  0.00  0.00    -0.241 OA
ENDBRANCH   3  20
BRANCH   1  23
ATOM     23  N   UNL     1       1.252  -2.941   1.556  0.00  0.00    -0.214 N 
ATOM     24  H   UNL     1       2.022  -3.419   1.900  0.00  0.00    +0.174 HD
BRANCH  23  25
ATOM     25  S   UNL     1       1.175  -2.543  -0.050  0.00  0.00    +0.072 S 
ATOM     26  O   UNL     1      -0.063  -3.046  -0.534  0.00  0.00    -0.150 OA
ATOM     27  O   UNL     1       2.422  -2.913  -0.620  0.00  0.00    -0.150 OA
BRANCH  25  32
ATOM     28  C   UNL     1      -0.234   1.216  -0.222  0.00  0.00    +0.005 A 
ATOM     29  C   UNL     1       0.921   1.971  -0.302  0.00  0.00    +0.038 A 
ATOM     30  C   UNL     1       2.156   1.347  -0.305  0.00  0.00    +0.125 A 
ATOM     31  C   UNL     1       2.233  -0.034  -0.228  0.00  0.00    +0.067 A 
ATOM     32  C   UNL     1       1.077  -0.786  -0.148  0.00  0.00    +0.111 A 
ATOM     33  C   UNL     1      -0.156  -0.161  -0.145  0.00  0.00    +0.029 A 
ATOM     34  F   UNL     1       3.286   2.083  -0.383  0.00  0.00    -0.205 F 
ENDBRANCH  25  32
ENDBRANCH  23  25
ENDBRANCH   1  23
TORSDOF 6
