REMARK  Name = ZINC10029217
REMARK  3 active torsions:
REMARK  status: ('A' for Active; 'I' for Inactive)
REMARK    1  A    between atoms: C_11  and  S_13
REMARK    2  A    between atoms: S_13  and  C_14
REMARK    3  A    between atoms: C_14  and  C_15
REMARK                            x       y       z     vdW  Elec       q    Type
REMARK                         _______ _______ _______ _____ _____    ______ ____
ROOT
ATOM      1  C   UNL     1       1.199  -0.664  -0.013  0.00  0.00    +0.001 A 
ATOM      2  C   UNL     1       2.396   0.043  -0.021  0.00  0.00    +0.002 A 
ATOM      3  C   UNL     1       2.407   1.407  -0.013  0.00  0.00    +0.028 A 
ATOM      4  C   UNL     1       1.197   2.115   0.002  0.00  0.00    +0.072 A 
ATOM      5  C   UNL     1      -0.017   1.388   0.010  0.00  0.00    +0.014 A 
ATOM      6  C   UNL     1       0.002  -0.004   0.002  0.00  0.00    +0.011 A 
ATOM      7  C   UNL     1      -1.076   2.407   0.019  0.00  0.00    +0.061 C 
ATOM      8  C   UNL     1      -2.468   2.197   0.024  0.00  0.00    +0.218 C 
ATOM      9  N   UNL     1      -3.092   1.004   0.021  0.00  0.00    -0.202 N 
ATOM     10  N   UNL     1      -4.470   1.266   0.029  0.00  0.00    -0.135 NA
ATOM     11  C   UNL     1      -4.627   2.559   0.036  0.00  0.00    +0.274 C 
ATOM     12  O   UNL     1      -3.415   3.149   0.039  0.00  0.00    -0.415 OA
ATOM     13  C   UNL     1      -0.397   3.638   0.025  0.00  0.00    +0.125 C 
ATOM     14  N   UNL     1       0.898   3.425   0.011  0.00  0.00    -0.254 NA
ATOM     15  H   UNL     1      -2.731  -0.035   0.013  0.00  0.00    +0.178 HD
ENDROOT
BRANCH  11  16
ATOM     16  S   UNL     1      -6.174   3.402   0.049  0.00  0.00    -0.057 S 
BRANCH  16  17
ATOM     17  C   UNL     1      -7.303   1.988   0.045  0.00  0.00    +0.174 C 
BRANCH  17  18
ATOM     18  C   UNL     1      -8.726   2.481   0.055  0.00  0.00    +0.226 C 
ATOM     19  O   UNL     1      -8.956   3.672   0.063  0.00  0.00    -0.275 OA
ATOM     20  N   UNL     1      -9.745   1.599   0.054  0.00  0.00    -0.301 N 
ATOM     21  C   UNL     1      -9.485   0.153   0.045  0.00  0.00    +0.108 C 
ATOM     22  C   UNL     1     -10.236  -0.490   1.215  0.00  0.00    +0.023 C 
ATOM     23  C   UNL     1     -11.719  -0.120   1.131  0.00  0.00    -0.005 C 
ATOM     24  C   UNL     1     -12.471  -0.789   2.284  0.00  0.00    +0.004 C 
ATOM     25  C   UNL     1     -13.954  -0.421   2.211  0.00  0.00    +0.000 C 
ATOM     26  C   UNL     1     -14.106   1.098   2.318  0.00  0.00    +0.000 C 
ATOM     27  C   UNL     1     -13.359   1.766   1.163  0.00  0.00    +0.005 C 
ATOM     28  C   UNL     1     -11.875   1.399   1.232  0.00  0.00    +0.010 C 
ATOM     29  C   UNL     1     -11.139   2.063   0.070  0.00  0.00    +0.111 C 
ENDBRANCH  17  18
ENDBRANCH  16  17
ENDBRANCH  11  16
TORSDOF 3
