REMARK  Name = ZINC02789676
REMARK  8 active torsions:
REMARK  status: ('A' for Active; 'I' for Inactive)
REMARK    1  A    between atoms: C_1  and  C_2
REMARK    2  A    between atoms: C_3  and  C_14
REMARK    3  A    between atoms: C_4  and  C_13
REMARK    4  A    between atoms: N_5  and  C_7
REMARK    5  A    between atoms: C_17  and  C_33
REMARK    6  A    between atoms: N_19  and  C_27
REMARK    7  A    between atoms: C_22  and  N_26
REMARK    8  A    between atoms: C_23  and  C_24
REMARK                            x       y       z     vdW  Elec       q    Type
REMARK                         _______ _______ _______ _____ _____    ______ ____
ROOT
ATOM      1  C   UNL     1      -2.928   0.645   1.669  0.00  0.00    +0.105 C 
ATOM      2  C   UNL     1      -2.418  -0.578   0.951  0.00  0.00    +0.058 A 
ATOM      3  C   UNL     1      -1.142  -0.833   0.433  0.00  0.00    +0.136 A 
ATOM      4  N   UNL     1      -1.162  -2.032  -0.123  0.00  0.00    -0.160 NA
ATOM      5  N   UNL     1      -2.451  -2.566   0.023  0.00  0.00    -0.199 N 
ATOM      6  C   UNL     1      -3.207  -1.657   0.681  0.00  0.00    +0.230 A 
ATOM      7  O   UNL     1      -4.510  -1.724   1.053  0.00  0.00    -0.423 OA
ATOM      8  C   UNL     1      -4.955  -0.807   1.936  0.00  0.00    +0.200 C 
ATOM      9  C   UNL     1      -4.272   0.311   2.268  0.00  0.00    +0.098 C 
ENDROOT
BRANCH   1  12
ATOM     10  C   UNL     1      -4.741   0.663  -0.930  0.00  0.00    +0.068 C 
ATOM     11  C   UNL     1      -3.874   1.798  -0.449  0.00  0.00    +0.065 A 
ATOM     12  C   UNL     1      -3.074   1.789   0.699  0.00  0.00    +0.009 A 
ATOM     13  C   UNL     1      -2.458   2.990   0.787  0.00  0.00    +0.046 A 
ATOM     14  N   UNL     1      -2.850   3.732  -0.274  0.00  0.00    -0.236 N 
ATOM     15  N   UNL     1      -3.741   2.962  -1.032  0.00  0.00    -0.171 NA
ATOM     16  C   UNL     1      -1.505   3.424   1.871  0.00  0.00    +0.066 C 
BRANCH  14  17
ATOM     17  C   UNL     1      -2.441   5.042  -0.561  0.00  0.00    +0.066 A 
ATOM     18  C   UNL     1      -3.363   5.975  -1.015  0.00  0.00    +0.028 A 
ATOM     19  C   UNL     1      -2.958   7.266  -1.292  0.00  0.00    +0.002 A 
ATOM     20  C   UNL     1      -1.633   7.627  -1.128  0.00  0.00    +0.000 A 
ATOM     21  C   UNL     1      -0.711   6.698  -0.681  0.00  0.00    +0.002 A 
ATOM     22  C   UNL     1      -1.111   5.407  -0.397  0.00  0.00    +0.028 A 
ENDBRANCH  14  17
ENDBRANCH   1  12
BRANCH   5  23
ATOM     23  C   UNL     1      -2.881  -3.819  -0.432  0.00  0.00    +0.069 A 
ATOM     24  C   UNL     1      -3.804  -4.549   0.305  0.00  0.00    +0.028 A 
ATOM     25  C   UNL     1      -4.229  -5.782  -0.150  0.00  0.00    +0.002 A 
ATOM     26  C   UNL     1      -3.729  -6.294  -1.332  0.00  0.00    +0.000 A 
ATOM     27  C   UNL     1      -2.805  -5.572  -2.066  0.00  0.00    +0.002 A 
ATOM     28  C   UNL     1      -2.380  -4.337  -1.620  0.00  0.00    +0.028 A 
ENDBRANCH   5  23
BRANCH   3  29
ATOM     29  C   UNL     1       0.022   0.075   0.501  0.00  0.00    +0.155 A 
ATOM     30  C   UNL     1       1.320  -0.301   0.650  0.00  0.00    +0.051 A 
ATOM     31  C   UNL     1       2.086   0.882   0.665  0.00  0.00    +0.042 A 
ATOM     32  C   UNL     1       1.228   1.910   0.526  0.00  0.00    +0.196 A 
ATOM     33  O   UNL     1      -0.019   1.419   0.427  0.00  0.00    -0.461 OA
ENDBRANCH   3  29
BRANCH   8  34
ATOM     34  N   UNL     1      -6.173  -1.021   2.533  0.00  0.00    -0.328 N 
ATOM     35  H   UNL     1      -6.566  -0.293   3.258  0.00  0.00    +0.145 HD
ATOM     36  H   UNL     1      -6.756  -1.921   2.285  0.00  0.00    +0.145 HD
ENDBRANCH   8  34
BRANCH   9  37
ATOM     37  C   UNL     1      -4.844   1.212   3.224  0.00  0.00    +0.101 C 
ATOM     38  N   UNL     1      -5.298   1.926   3.982  0.00  0.00    -0.191 NA
ENDBRANCH   9  37
TORSDOF 6
