REMARK  Name = ZINC16907436
REMARK  8 active torsions:
REMARK  status: ('A' for Active; 'I' for Inactive)
REMARK    1  A    between atoms: C_1  and  C_2
REMARK    2  A    between atoms: C_2  and  C_3
REMARK    3  A    between atoms: C_3  and  C_5
REMARK    4  A    between atoms: C_3  and  O_7
REMARK    5  A    between atoms: O_7  and  C_8
REMARK    6  A    between atoms: C_11  and  C_14
REMARK    7  A    between atoms: N_18  and  N_22
REMARK    8  A    between atoms: C_23  and  C_25
REMARK                            x       y       z     vdW  Elec       q    Type
REMARK                         _______ _______ _______ _____ _____    ______ ____
ROOT
ATOM      1  C   UNL     1       4.447   3.897  -5.390  0.00  0.00    +0.028 C 
ATOM      2  C   UNL     1       3.576   3.787  -6.426  0.00  0.00    +0.079 C 
ATOM      3  C   UNL     1       2.134   3.470  -6.413  0.00  0.00    +0.275 C 
ATOM      4  O   UNL     1       1.535   3.259  -5.375  0.00  0.00    -0.267 OA
ATOM      5  N   UNL     1       1.526   3.428  -7.586  0.00  0.00    -0.169 N 
ATOM      6  C   UNL     1       2.194   3.662  -8.734  0.00  0.00    +0.138 C 
ATOM      7  S   UNL     1       1.590   3.654 -10.336  0.00  0.00    -0.026 S 
ATOM      8  S   UNL     1       3.858   3.992  -8.179  0.00  0.00    -0.059 S 
ENDROOT
BRANCH   1  12
ATOM      9  C   UNL     1       3.023   3.756  -1.399  0.00  0.00    +0.122 A 
ATOM     10  C   UNL     1       4.239   3.164  -1.722  0.00  0.00    +0.046 A 
ATOM     11  C   UNL     1       4.703   3.202  -3.017  0.00  0.00    +0.011 A 
ATOM     12  C   UNL     1       3.954   3.849  -4.008  0.00  0.00    -0.024 A 
ATOM     13  C   UNL     1       2.733   4.449  -3.675  0.00  0.00    +0.011 A 
ATOM     14  C   UNL     1       2.276   4.400  -2.378  0.00  0.00    +0.046 A 
BRANCH   9  15
ATOM     15  O   UNL     1       2.567   3.711  -0.120  0.00  0.00    -0.477 OA
BRANCH  15  16
ATOM     16  C   UNL     1       1.378   4.448   0.171  0.00  0.00    +0.285 C 
BRANCH  16  17
ATOM     17  C   UNL     1       0.172   3.593  -0.122  0.00  0.00    +0.396 C 
ATOM     18  O   UNL     1       0.315   2.439  -0.450  0.00  0.00    -0.242 OA
ATOM     19  O   UNL     1      -1.060   4.113  -0.017  0.00  0.00    -0.242 OA
ENDBRANCH  16  17
BRANCH  16  21
ATOM     20  C   UNL     1       2.528   5.816   1.917  0.00  0.00    +0.008 C 
ATOM     21  C   UNL     1       1.375   4.847   1.648  0.00  0.00    +0.053 C 
ENDBRANCH  16  21
ENDBRANCH  15  16
ENDBRANCH   9  15
ENDBRANCH   1  12
BRANCH   5  22
ATOM     22  N   UNL     1       0.158   3.132  -7.638  0.00  0.00    -0.222 N 
ATOM     23  C   UNL     1      -0.735   4.113  -7.880  0.00  0.00    +0.261 C 
ATOM     24  O   UNL     1      -0.353   5.254  -8.052  0.00  0.00    -0.269 OA
ATOM     25  H   UNL     1      -0.147   2.222  -7.501  0.00  0.00    +0.174 HD
BRANCH  23  26
ATOM     26  C   UNL     1      -2.179   3.801  -7.934  0.00  0.00    +0.038 A 
ATOM     27  C   UNL     1      -2.620   2.491  -7.743  0.00  0.00    +0.014 A 
ATOM     28  C   UNL     1      -3.969   2.207  -7.790  0.00  0.00    +0.021 A 
ATOM     29  C   UNL     1      -4.884   3.217  -8.038  0.00  0.00    +0.041 A 
ATOM     30  C   UNL     1      -4.451   4.518  -8.234  0.00  0.00    +0.021 A 
ATOM     31  C   UNL     1      -3.106   4.815  -8.184  0.00  0.00    +0.014 A 
ATOM     32 CL   UNL     1      -6.579   2.850  -8.104  0.00  0.00    -0.084 Cl
ENDBRANCH  23  26
ENDBRANCH   5  22
TORSDOF 7
