REMARK  Name = ZINC02807219
REMARK  8 active torsions:
REMARK  status: ('A' for Active; 'I' for Inactive)
REMARK    1  A    between atoms: C_1  and  C_2
REMARK    2  A    between atoms: C_3  and  C_20
REMARK    3  A    between atoms: C_14  and  C_18
REMARK    4  A    between atoms: C_15  and  N_17
REMARK    5  A    between atoms: C_20  and  O_22
REMARK    6  A    between atoms: O_22  and  C_23
REMARK    7  A    between atoms: C_23  and  C_24
REMARK    8  A    between atoms: C_23  and  C_25
REMARK                            x       y       z     vdW  Elec       q    Type
REMARK                         _______ _______ _______ _____ _____    ______ ____
ROOT
ATOM      1  C   UNL     1       3.463  -1.529   2.392  0.00  0.00    +0.087 C 
ATOM      2  C   UNL     1       3.132  -0.764   1.136  0.00  0.00    +0.116 C 
ATOM      3  C   UNL     1       2.947   0.562   1.212  0.00  0.00    +0.099 C 
ATOM      4  C   UNL     1       2.619   1.362  -0.015  0.00  0.00    +0.146 C 
ATOM      5  C   UNL     1       1.170   1.781   0.001  0.00  0.00    -0.001 A 
ATOM      6  C   UNL     1      -0.013   1.076   0.008  0.00  0.00    +0.007 A 
ATOM      7  C   UNL     1      -1.220   1.752   0.017  0.00  0.00    +0.000 A 
ATOM      8  C   UNL     1      -1.234   3.135   0.029  0.00  0.00    +0.002 A 
ATOM      9  C   UNL     1      -0.051   3.844   0.023  0.00  0.00    +0.023 A 
ATOM     10  C   UNL     1       1.169   3.171   0.008  0.00  0.00    +0.038 A 
ATOM     11  N   UNL     1       2.478   3.655  -0.003  0.00  0.00    -0.284 N 
ATOM     12  C   UNL     1       3.386   2.663  -0.017  0.00  0.00    +0.238 C 
ATOM     13  O   UNL     1       4.593   2.789  -0.029  0.00  0.00    -0.274 OA
ATOM     14  C   UNL     1       2.924   0.572  -1.254  0.00  0.00    +0.083 C 
ATOM     15  C   UNL     1       3.113  -0.760  -1.187  0.00  0.00    +0.197 C 
ATOM     16  O   UNL     1       3.032  -1.431  -0.022  0.00  0.00    -0.445 OA
ATOM     17  H   UNL     1       2.707   4.597   0.000  0.00  0.00    +0.155 HD
ENDROOT
BRANCH  15  18
ATOM     18  N   UNL     1       3.396  -1.458  -2.346  0.00  0.00    -0.328 N 
ATOM     19  H   UNL     1       3.458  -0.988  -3.192  0.00  0.00    +0.145 HD
ATOM     20  H   UNL     1       3.535  -2.417  -2.312  0.00  0.00    +0.145 HD
ENDBRANCH  15  18
BRANCH  14  21
ATOM     21  C   UNL     1       3.016   1.239  -2.518  0.00  0.00    -0.067 C 
ATOM     22  C   UNL     1       3.092   1.786  -3.554  0.00  0.00    +0.009 C 
ENDBRANCH  14  21
BRANCH   3  23
ATOM     23  C   UNL     1       3.064   1.215   2.463  0.00  0.00    +0.340 C 
ATOM     24  O   UNL     1       3.330   0.573   3.462  0.00  0.00    -0.245 OA
BRANCH  23  25
ATOM     25  O   UNL     1       2.879   2.549   2.548  0.00  0.00    -0.459 OA
BRANCH  25  26
ATOM     26  C   UNL     1       3.012   3.141   3.842  0.00  0.00    +0.171 C 
ATOM     27  C   UNL     1       3.512   4.580   3.695  0.00  0.00    +0.052 C 
ATOM     28  C   UNL     1       1.652   3.143   4.544  0.00  0.00    +0.052 C 
ENDBRANCH  25  26
ENDBRANCH  23  25
ENDBRANCH   3  23
TORSDOF 5
