REMARK  Name = ZINC20697869
REMARK  5 active torsions:
REMARK  status: ('A' for Active; 'I' for Inactive)
REMARK    1  A    between atoms: C_1  and  C_2
REMARK    2  A    between atoms: C_2  and  C_3
REMARK    3  A    between atoms: C_2  and  C_4
REMARK    4  A    between atoms: C_7  and  C_10
REMARK    5  A    between atoms: C_23  and  N_26
REMARK                            x       y       z     vdW  Elec       q    Type
REMARK                         _______ _______ _______ _____ _____    ______ ____
ROOT
ATOM      1  C   UNL     1       2.451   3.937   0.001  0.00  0.00    +0.105 C 
ATOM      2  C   UNL     1       2.704   4.533   1.370  0.00  0.00    +0.029 C 
ATOM      3  C   UNL     1       2.753   3.583   2.571  0.00  0.00    +0.033 C 
ATOM      4  C   UNL     1       2.264   4.494   3.700  0.00  0.00    -0.030 C 
ATOM      5  C   UNL     1       1.510   5.460   3.199  0.00  0.00    -0.023 C 
ATOM      6  C   UNL     1       1.368   5.254   1.737  0.00  0.00    +0.049 C 
ATOM      7  C   UNL     1       1.213   6.375   0.784  0.00  0.00    -0.017 A 
ATOM      8  C   UNL     1       0.591   7.552   1.145  0.00  0.00    +0.006 A 
ATOM      9  C   UNL     1       0.428   8.570   0.224  0.00  0.00    +0.003 A 
ATOM     10  C   UNL     1       0.893   8.404  -1.068  0.00  0.00    +0.034 A 
ATOM     11  C   UNL     1       1.523   7.235  -1.434  0.00  0.00    +0.147 A 
ATOM     12  C   UNL     1       1.702   6.201  -0.513  0.00  0.00    +0.062 A 
ATOM     13  N   UNL     1       2.363   5.056  -0.951  0.00  0.00    -0.335 N 
ATOM     14  H   UNL     1       2.808   4.962  -1.953  0.00  0.00    +0.147 HD
ENDROOT
BRANCH   1  18
ATOM     15  C   UNL     1      -1.220   1.752   0.025  0.00  0.00    -0.045 A 
ATOM     16  C   UNL     1      -1.207   3.077  -0.367  0.00  0.00    +0.004 A 
ATOM     17  C   UNL     1      -0.019   3.785  -0.372  0.00  0.00    +0.006 A 
ATOM     18  C   UNL     1       1.156   3.165   0.008  0.00  0.00    -0.027 A 
ATOM     19  C   UNL     1       1.144   1.838   0.395  0.00  0.00    +0.006 A 
ATOM     20  C   UNL     1      -0.043   1.131   0.401  0.00  0.00    +0.004 A 
BRANCH  15  22
ATOM     21  C   UNL     1      -2.406  -0.216  -0.908  0.00  0.00    +0.012 C 
ATOM     22  C   UNL     1      -2.515   0.982   0.037  0.00  0.00    +0.013 C 
ATOM     23  C   UNL     1      -2.801   0.487   1.456  0.00  0.00    +0.012 C 
ENDBRANCH  15  22
ENDBRANCH   1  18
BRANCH  11  24
ATOM     24  N   UNL     1       2.018   7.074  -2.819  0.00  0.00    +0.058 N 
ATOM     25  O   UNL     1       1.866   7.972  -3.628  0.00  0.00    -0.126 OA
ATOM     26  O   UNL     1       2.576   6.043  -3.151  0.00  0.00    -0.126 OA
ENDBRANCH  11  24
TORSDOF 3
