REMARK  Name = ZINC55283690
REMARK  8 active torsions:
REMARK  status: ('A' for Active; 'I' for Inactive)
REMARK    1  A    between atoms: C_5  and  N_7
REMARK    2  A    between atoms: N_10  and  C_13
REMARK    3  A    between atoms: C_13  and  C_14
REMARK    4  A    between atoms: C_18  and  O_20
REMARK    5  A    between atoms: O_20  and  C_21
REMARK    6  A    between atoms: C_21  and  C_22
REMARK    7  A    between atoms: C_29  and  C_31
REMARK    8  A    between atoms: C_31  and  C_32
REMARK                            x       y       z     vdW  Elec       q    Type
REMARK                         _______ _______ _______ _____ _____    ______ ____
ROOT
ATOM      1  C   UNL     1       2.929  -6.711  -1.178  0.00  0.00    -0.030 A 
ATOM      2  C   UNL     1       2.077  -7.777  -0.961  0.00  0.00    +0.005 A 
ATOM      3  C   UNL     1       1.781  -8.650  -1.991  0.00  0.00    +0.004 A 
ATOM      4  C   UNL     1       2.337  -8.458  -3.241  0.00  0.00    +0.045 A 
ATOM      5  C   UNL     1       3.193  -7.389  -3.462  0.00  0.00    +0.121 A 
ATOM      6  C   UNL     1       3.483  -6.511  -2.427  0.00  0.00    +0.050 A 
ENDROOT
BRANCH   1   7
ATOM      7  C   UNL     1       3.250  -5.761  -0.052  0.00  0.00    +0.119 C 
BRANCH   7  11
ATOM      8  N   UNL     1       1.236  -2.079  -0.021  0.00  0.00    -0.325 N 
ATOM      9  C   UNL     1       1.254  -2.841   1.237  0.00  0.00    +0.120 C 
ATOM     10  C   UNL     1       2.403  -3.854   1.175  0.00  0.00    +0.103 C 
ATOM     11  N   UNL     1       2.270  -4.667  -0.041  0.00  0.00    -0.295 NA
ATOM     12  C   UNL     1       2.391  -3.840  -1.250  0.00  0.00    +0.103 C 
ATOM     13  C   UNL     1       1.236  -2.827  -1.288  0.00  0.00    +0.120 C 
BRANCH   8  18
ATOM     14  C   UNL     1      -0.017   1.377   0.010  0.00  0.00    +0.002 A 
ATOM     15  C   UNL     1       1.170   2.087   0.002  0.00  0.00    +0.003 A 
ATOM     16  C   UNL     1       2.380   1.418  -0.013  0.00  0.00    +0.040 A 
ATOM     17  C   UNL     1       2.406   0.035  -0.021  0.00  0.00    +0.144 A 
ATOM     18  C   UNL     1       1.214  -0.681  -0.013  0.00  0.00    +0.065 A 
ATOM     19  C   UNL     1       0.002  -0.004   0.002  0.00  0.00    +0.026 A 
ATOM     20  F   UNL     1       3.588  -0.619  -0.036  0.00  0.00    -0.204 F 
ENDBRANCH   8  18
ENDBRANCH   7  11
ENDBRANCH   1   7
BRANCH   5  21
ATOM     21  O   UNL     1       3.741  -7.198  -4.691  0.00  0.00    -0.492 OA
BRANCH  21  22
ATOM     22  C   UNL     1       3.393  -8.138  -5.710  0.00  0.00    +0.234 C 
BRANCH  22  23
ATOM     23  C   UNL     1       4.101  -7.763  -7.013  0.00  0.00    +0.044 C 
ATOM     24  C   UNL     1       5.614  -7.906  -6.832  0.00  0.00    +0.010 C 
ATOM     25  C   UNL     1       6.325  -7.500  -8.125  0.00  0.00    +0.019 C 
ATOM     26  C   UNL     1       5.883  -8.429  -9.260  0.00  0.00    +0.108 C 
ATOM     27  N   UNL     1       4.417  -8.407  -9.345  0.00  0.00    -0.301 N 
ATOM     28  C   UNL     1       3.634  -8.694  -8.135  0.00  0.00    +0.114 C 
ATOM     29  C   UNL     1       3.801  -8.129 -10.511  0.00  0.00    +0.218 C 
ATOM     30  O   UNL     1       2.590  -8.114 -10.569  0.00  0.00    -0.276 OA
BRANCH  29  31
ATOM     31  C   UNL     1       4.618  -7.836 -11.743  0.00  0.00    +0.127 C 
BRANCH  31  32
ATOM     32  C   UNL     1       3.682  -7.554 -12.920  0.00  0.00    +0.169 C 
ATOM     33  C   UNL     1       4.477  -7.221 -14.167  0.00  0.00    +0.241 C 
ATOM     34  O   UNL     1       5.239  -6.290 -14.322  0.00  0.00    -0.273 OA
ATOM     35  N   UNL     1       4.163  -8.175 -15.066  0.00  0.00    -0.239 N 
ATOM     36  C   UNL     1       3.289  -9.055 -14.566  0.00  0.00    +0.307 C 
ATOM     37  O   UNL     1       2.856 -10.005 -15.188  0.00  0.00    -0.252 OA
ATOM     38  N   UNL     1       2.939  -8.771 -13.295  0.00  0.00    -0.287 N 
ATOM     39  H   UNL     1       4.526  -8.217 -15.964  0.00  0.00    +0.159 HD
ATOM     40  H   UNL     1       2.322  -9.268 -12.736  0.00  0.00    +0.151 HD
ENDBRANCH  31  32
ENDBRANCH  29  31
ENDBRANCH  22  23
ENDBRANCH  21  22
ENDBRANCH   5  21
TORSDOF 8
