REMARK  Name = ZINC26163373
REMARK  8 active torsions:
REMARK  status: ('A' for Active; 'I' for Inactive)
REMARK    1  A    between atoms: C_1  and  C_2
REMARK    2  A    between atoms: C_6  and  N_9
REMARK    3  A    between atoms: C_7  and  C_8
REMARK    4  A    between atoms: C_10  and  S_14
REMARK    5  A    between atoms: S_14  and  C_15
REMARK    6  A    between atoms: C_15  and  C_16
REMARK    7  A    between atoms: C_22  and  C_27
REMARK    8  A    between atoms: C_30  and  C_32
REMARK                            x       y       z     vdW  Elec       q    Type
REMARK                         _______ _______ _______ _____ _____    ______ ____
ROOT
ATOM      1  C   UNL     1       0.419  -8.160   0.454  0.00  0.00    +0.121 A 
ATOM      2  N   UNL     1       0.508  -9.479   0.767  0.00  0.00    -0.310 N 
ATOM      3  H   UNL     1       0.589  -9.742   1.697  0.00  0.00    +0.170 HD
ATOM      4  C   UNL     1       0.487 -10.427  -0.188  0.00  0.00    +0.260 A 
ATOM      5  O   UNL     1       0.567 -11.606   0.109  0.00  0.00    -0.267 OA
ATOM      6  C   UNL     1       0.367 -10.029  -1.558  0.00  0.00    +0.080 A 
ATOM      7  C   UNL     1       0.321 -10.857  -2.758  0.00  0.00    +0.010 A 
ATOM      8  C   UNL     1       0.202 -10.248  -3.965  0.00  0.00    +0.057 A 
ATOM      9  S   UNL     1       0.145  -8.516  -3.549  0.00  0.00    -0.076 S 
ATOM     10  C   UNL     1       0.281  -8.646  -1.785  0.00  0.00    +0.116 A 
ATOM     11  N   UNL     1       0.304  -7.767  -0.786  0.00  0.00    -0.226 NA
ENDROOT
BRANCH   7  12
ATOM     12  C   UNL     1       0.403 -12.329  -2.662  0.00  0.00    +0.021 A 
ATOM     13  C   UNL     1      -0.405 -13.277  -3.231  0.00  0.00    +0.016 A 
ATOM     14  C   UNL     1      -0.131 -14.608  -2.997  0.00  0.00    +0.011 A 
ATOM     15  C   UNL     1       0.927 -14.937  -2.213  0.00  0.00    -0.013 A 
ATOM     16  S   UNL     1       1.585 -13.335  -1.780  0.00  0.00    -0.093 S 
ATOM     17  C   UNL     1       1.422 -16.304  -1.816  0.00  0.00    +0.051 C 
ENDBRANCH   7  12
BRANCH   1  18
ATOM     18  C   UNL     1       0.447  -7.134   1.557  0.00  0.00    +0.151 C 
BRANCH  18  19
ATOM     19  S   UNL     1       0.303  -5.473   0.842  0.00  0.00    -0.076 S 
BRANCH  19  21
ATOM     20  N   UNL     1       0.276  -3.041   2.221  0.00  0.00    -0.187 N 
ATOM     21  C   UNL     1       0.351  -4.401   2.239  0.00  0.00    +0.214 A 
ATOM     22  N   UNL     1       0.465  -4.762   3.499  0.00  0.00    -0.101 NA
ATOM     23  N   UNL     1       0.467  -3.731   4.265  0.00  0.00    -0.022 NA
ATOM     24  N   UNL     1       0.362  -2.651   3.569  0.00  0.00    -0.038 NA
BRANCH  20  30
ATOM     25  C   UNL     1       1.751   0.908  -0.313  0.00  0.00    +0.044 C 
ATOM     26  C   UNL     1       0.850  -0.289  -0.153  0.00  0.00    -0.046 A 
ATOM     27  C   UNL     1      -0.106  -0.568  -1.113  0.00  0.00    +0.004 A 
ATOM     28  C   UNL     1      -0.935  -1.665  -0.970  0.00  0.00    +0.002 A 
ATOM     29  C   UNL     1      -0.811  -2.486   0.134  0.00  0.00    +0.028 A 
ATOM     30  C   UNL     1       0.148  -2.209   1.099  0.00  0.00    +0.073 A 
ATOM     31  C   UNL     1       0.983  -1.110   0.949  0.00  0.00    -0.022 A 
ATOM     32  C   UNL     1       2.028  -0.809   1.992  0.00  0.00    +0.046 C 
ENDBRANCH  20  30
ENDBRANCH  19  21
ENDBRANCH  18  19
ENDBRANCH   1  18
TORSDOF 5
