REMARK  Name = ZINC12009477
REMARK  5 active torsions:
REMARK  status: ('A' for Active; 'I' for Inactive)
REMARK    1  A    between atoms: C_4  and  C_7
REMARK    2  A    between atoms: C_16  and  N_25
REMARK    3  A    between atoms: C_18  and  C_20
REMARK    4  A    between atoms: C_26  and  C_28
REMARK    5  A    between atoms: C_28  and  C_29
REMARK                            x       y       z     vdW  Elec       q    Type
REMARK                         _______ _______ _______ _____ _____    ______ ____
ROOT
ATOM      1  C   UNL     1      -0.061   1.268   0.998  0.00  0.00    +0.080 A 
ATOM      2  C   UNL     1       1.122   1.953   1.224  0.00  0.00    +0.098 A 
ATOM      3  C   UNL     1       2.325   1.229   1.254  0.00  0.00    +0.253 A 
ATOM      4  O   UNL     1       3.387   1.796   1.450  0.00  0.00    -0.268 OA
ATOM      5  N   UNL     1       2.284  -0.106   1.062  0.00  0.00    -0.291 N 
ATOM      6  H   UNL     1       3.105  -0.623   1.078  0.00  0.00    +0.172 HD
ATOM      7  C   UNL     1       1.095  -0.730   0.844  0.00  0.00    +0.234 A 
ATOM      8  N   UNL     1      -0.035  -0.060   0.814  0.00  0.00    -0.212 NA
ATOM      9  N   UNL     1       1.075  -2.098   0.649  0.00  0.00    -0.184 N 
ATOM     10  C   UNL     1      -0.036  -2.861   0.426  0.00  0.00    +0.132 A 
ATOM     11  C   UNL     1       0.370  -4.148   0.284  0.00  0.00    +0.077 A 
ATOM     12  C   UNL     1       1.773  -4.177   0.434  0.00  0.00    +0.130 A 
ATOM     13  N   UNL     1       2.189  -2.946   0.653  0.00  0.00    -0.159 NA
ENDROOT
BRANCH   1  17
ATOM     14  C   UNL     1      -3.755   3.367   0.870  0.00  0.00    +0.000 A 
ATOM     15  C   UNL     1      -3.734   1.997   0.679  0.00  0.00    +0.001 A 
ATOM     16  C   UNL     1      -2.538   1.310   0.720  0.00  0.00    +0.010 A 
ATOM     17  C   UNL     1      -1.349   1.999   0.953  0.00  0.00    +0.001 A 
ATOM     18  C   UNL     1      -1.377   3.380   1.150  0.00  0.00    +0.010 A 
ATOM     19  C   UNL     1      -2.578   4.056   1.101  0.00  0.00    +0.001 A 
ENDBRANCH   1  17
BRANCH  12  20
ATOM     20  C   UNL     1       2.627  -5.381   0.360  0.00  0.00    +0.155 A 
ATOM     21  C   UNL     1       3.980  -5.409   0.499  0.00  0.00    +0.051 A 
ATOM     22  C   UNL     1       4.374  -6.754   0.359  0.00  0.00    +0.042 A 
ATOM     23  C   UNL     1       3.256  -7.472   0.135  0.00  0.00    +0.196 A 
ATOM     24  O   UNL     1       2.203  -6.639   0.136  0.00  0.00    -0.461 OA
ENDBRANCH  12  20
BRANCH  10  25
ATOM     25  N   UNL     1      -1.349  -2.400   0.354  0.00  0.00    -0.270 N 
ATOM     26  C   UNL     1      -2.355  -3.267   0.126  0.00  0.00    +0.220 C 
ATOM     27  O   UNL     1      -2.118  -4.448  -0.015  0.00  0.00    -0.275 OA
ATOM     28  H   UNL     1      -1.538  -1.456   0.467  0.00  0.00    +0.156 HD
BRANCH  26  29
ATOM     29  C   UNL     1      -3.775  -2.769   0.048  0.00  0.00    +0.122 C 
BRANCH  29  30
ATOM     30  C   UNL     1      -4.728  -3.961  -0.070  0.00  0.00    +0.112 C 
ATOM     31  C   UNL     1      -4.661  -4.770   1.233  0.00  0.00    +0.103 C 
ATOM     32  S   UNL     1      -6.408  -4.707   1.775  0.00  0.00    -0.086 S 
ATOM     33  C   UNL     1      -7.088  -3.743   0.444  0.00  0.00    +0.172 A 
ATOM     34  N   UNL     1      -6.060  -3.458  -0.402  0.00  0.00    -0.283 N 
ATOM     35  C   UNL     1      -6.364  -2.712  -1.510  0.00  0.00    +0.258 A 
ATOM     36  O   UNL     1      -5.485  -2.423  -2.306  0.00  0.00    -0.267 OA
ATOM     37  C   UNL     1      -7.677  -2.281  -1.734  0.00  0.00    +0.038 A 
ATOM     38  C   UNL     1      -8.650  -2.611  -0.836  0.00  0.00    +0.052 A 
ATOM     39  N   UNL     1      -8.322  -3.336   0.232  0.00  0.00    -0.228 NA
ATOM     40  C   UNL     1      -9.980  -2.043  -1.278  0.00  0.00    +0.056 C 
ATOM     41  C   UNL     1      -9.793  -1.694  -2.770  0.00  0.00    +0.011 C 
ATOM     42  C   UNL     1      -8.269  -1.460  -2.860  0.00  0.00    +0.043 C 
ENDBRANCH  29  30
ENDBRANCH  26  29
ENDBRANCH  10  25
TORSDOF 5
