REMARK  Name = ZINC05255350
REMARK  7 active torsions:
REMARK  status: ('A' for Active; 'I' for Inactive)
REMARK    1  A    between atoms: C_1  and  O_2
REMARK    2  A    between atoms: O_2  and  C_3
REMARK    3  A    between atoms: C_11  and  N_16
REMARK    4  A    between atoms: C_12  and  C_13
REMARK    5  A    between atoms: C_17  and  C_19
REMARK    6  A    between atoms: C_19  and  S_20
REMARK    7  A    between atoms: S_20  and  C_21
REMARK                            x       y       z     vdW  Elec       q    Type
REMARK                         _______ _______ _______ _____ _____    ______ ____
ROOT
ATOM      1  C   UNL     1       6.363   5.053  -1.089  0.00  0.00    +0.403 C 
ATOM      2  O   UNL     1       6.534   6.244  -1.258  0.00  0.00    -0.226 OA
ATOM      3  N   UNL     1       5.396   4.623  -0.254  0.00  0.00    -0.262 N 
ATOM      4  C   UNL     1       4.532   5.570   0.466  0.00  0.00    +0.116 C 
ATOM      5  C   UNL     1       3.086   5.405  -0.004  0.00  0.00    +0.056 C 
ATOM      6  C   UNL     1       2.726   3.924  -0.005  0.00  0.00    -0.020 A 
ATOM      7  C   UNL     1       3.681   2.969  -0.018  0.00  0.00    +0.013 A 
ATOM      8  S   UNL     1       2.795   1.438  -0.018  0.00  0.00    -0.076 S 
ATOM      9  C   UNL     1       1.175   2.053   0.002  0.00  0.00    +0.084 A 
ATOM     10  C   UNL     1       1.359   3.428   0.002  0.00  0.00    +0.068 A 
ATOM     11  C   UNL     1       5.165   3.182  -0.028  0.00  0.00    +0.153 C 
ENDROOT
BRANCH  10  12
ATOM     12  C   UNL     1       0.218   4.348   0.012  0.00  0.00    +0.244 C 
ATOM     13  O   UNL     1      -0.248   4.729   1.070  0.00  0.00    -0.270 OA
ATOM     14  N   UNL     1      -0.317   4.771  -1.151  0.00  0.00    -0.325 N 
ATOM     15  H   UNL     1       0.054   4.468  -1.994  0.00  0.00    +0.145 HD
ATOM     16  H   UNL     1      -1.072   5.380  -1.145  0.00  0.00    +0.145 HD
ENDBRANCH  10  12
BRANCH   9  17
ATOM     17  N   UNL     1      -0.016   1.344   0.009  0.00  0.00    -0.279 N 
ATOM     18  C   UNL     1       0.002  -0.004   0.002  0.00  0.00    +0.228 C 
ATOM     19  O   UNL     1       1.060  -0.596  -0.011  0.00  0.00    -0.275 OA
ATOM     20  H   UNL     1      -0.863   1.817   0.016  0.00  0.00    +0.155 HD
BRANCH  18  21
ATOM     21  C   UNL     1      -1.293  -0.775   0.010  0.00  0.00    +0.170 C 
BRANCH  21  22
ATOM     22  S   UNL     1      -0.937  -2.554  -0.003  0.00  0.00    -0.116 S 
BRANCH  22  23
ATOM     23  C   UNL     1      -2.530  -3.307   0.009  0.00  0.00    +0.008 A 
ATOM     24  C   UNL     1      -3.674  -2.518   0.029  0.00  0.00    +0.015 A 
ATOM     25  C   UNL     1      -4.920  -3.112   0.031  0.00  0.00    +0.001 A 
ATOM     26  C   UNL     1      -5.031  -4.490   0.025  0.00  0.00    +0.000 A 
ATOM     27  C   UNL     1      -3.895  -5.279   0.011  0.00  0.00    +0.001 A 
ATOM     28  C   UNL     1      -2.646  -4.692   0.002  0.00  0.00    +0.015 A 
ENDBRANCH  22  23
ENDBRANCH  21  22
ENDBRANCH  18  21
ENDBRANCH   9  17
BRANCH   1  30
ATOM     29  C   UNL     1       8.159   4.698  -2.620  0.00  0.00    +0.282 C 
ATOM     30  O   UNL     1       7.139   4.163  -1.736  0.00  0.00    -0.454 OA
ENDBRANCH   1  30
TORSDOF 6
