REMARK  Name = ZINC56956856
REMARK  9 active torsions:
REMARK  status: ('A' for Active; 'I' for Inactive)
REMARK    1  A    between atoms: C_1  and  C_2
REMARK    2  A    between atoms: C_2  and  N_3
REMARK    3  A    between atoms: N_3  and  C_4
REMARK    4  A    between atoms: C_4  and  C_5
REMARK    5  A    between atoms: C_6  and  C_8
REMARK    6  A    between atoms: C_8  and  C_9
REMARK    7  A    between atoms: C_9  and  N_10
REMARK    8  A    between atoms: C_16  and  C_19
REMARK    9  A    between atoms: C_24  and  C_28
REMARK                            x       y       z     vdW  Elec       q    Type
REMARK                         _______ _______ _______ _____ _____    ______ ____
ROOT
ATOM      1  N   UNL     1      -1.493  -0.595   4.918  0.00  0.00    -0.299 N 
ATOM      2  C   UNL     1      -2.115  -0.834   6.090  0.00  0.00    +0.302 C 
ATOM      3  O   UNL     1      -3.284  -1.167   6.100  0.00  0.00    -0.253 OA
ATOM      4  N   UNL     1      -1.440  -0.705   7.250  0.00  0.00    -0.286 N 
ATOM      5  C   UNL     1      -0.063  -0.193   7.262  0.00  0.00    +0.110 C 
ATOM      6  C   UNL     1       0.828  -1.191   8.008  0.00  0.00    +0.032 C 
ATOM      7  C   UNL     1       0.242  -1.453   9.397  0.00  0.00    +0.078 C 
ATOM      8  C   UNL     1      -1.155  -2.062   9.257  0.00  0.00    +0.032 C 
ATOM      9  C   UNL     1      -2.070  -1.069   8.526  0.00  0.00    +0.110 C 
ATOM     10  H   UNL     1      -0.583  -0.259   4.912  0.00  0.00    +0.150 HD
ENDROOT
BRANCH   7  11
ATOM     11  C   UNL     1       1.134  -2.408  10.146  0.00  0.00    +0.221 C 
ATOM     12  O   UNL     1       2.139  -2.838   9.621  0.00  0.00    -0.275 OA
ATOM     13  N   UNL     1       0.815  -2.786  11.400  0.00  0.00    -0.270 N 
ATOM     14  C   UNL     1       1.692  -3.585  12.132  0.00  0.00    +0.125 A 
ATOM     15  C   UNL     1       1.407  -3.883  13.460  0.00  0.00    +0.047 A 
ATOM     16  C   UNL     1       2.286  -4.677  14.175  0.00  0.00    -0.046 A 
ATOM     17  C   UNL     1       3.425  -5.148  13.534  0.00  0.00    +0.023 A 
ATOM     18  C   UNL     1       3.644  -4.813  12.213  0.00  0.00    +0.113 A 
ATOM     19  N   UNL     1       2.785  -4.058  11.555  0.00  0.00    -0.240 NA
ATOM     20  C   UNL     1       2.015  -5.023  15.616  0.00  0.00    +0.044 C 
ATOM     21  H   UNL     1      -0.024  -2.501  11.794  0.00  0.00    +0.156 HD
ENDBRANCH   7  11
BRANCH   1  22
ATOM     22  C   UNL     1      -2.191  -0.842   3.654  0.00  0.00    +0.115 C 
BRANCH  22  23
ATOM     23  C   UNL     1      -1.268  -0.492   2.485  0.00  0.00    +0.114 C 
BRANCH  23  25
ATOM     24  N   UNL     1      -1.365  -0.507   0.013  0.00  0.00    -0.302 N 
ATOM     25  C   UNL     1      -1.986  -0.746   1.185  0.00  0.00    +0.217 C 
ATOM     26  O   UNL     1      -3.124  -1.166   1.193  0.00  0.00    -0.276 OA
BRANCH  24  28
ATOM     27  C   UNL     1      -0.011   1.530   0.012  0.00  0.00    +0.024 C 
ATOM     28  C   UNL     1       0.010   0.001   0.004  0.00  0.00    +0.104 C 
ENDBRANCH  24  28
BRANCH  24  29
ATOM     29  C   UNL     1      -2.063  -0.754  -1.250  0.00  0.00    +0.104 C 
ATOM     30  C   UNL     1      -1.806  -2.193  -1.702  0.00  0.00    +0.024 C 
ENDBRANCH  24  29
ENDBRANCH  23  25
ENDBRANCH  22  23
ENDBRANCH   1  22
TORSDOF 6
