REMARK  Name = ZINC32598061
REMARK  6 active torsions:
REMARK  status: ('A' for Active; 'I' for Inactive)
REMARK    1  A    between atoms: C_1  and  N_2
REMARK    2  A    between atoms: N_2  and  C_3
REMARK    3  A    between atoms: N_2  and  C_4
REMARK    4  A    between atoms: C_7  and  C_10
REMARK    5  A    between atoms: N_14  and  C_26
REMARK    6  A    between atoms: C_29  and  O_32
REMARK                            x       y       z     vdW  Elec       q    Type
REMARK                         _______ _______ _______ _____ _____    ______ ____
ROOT
ATOM      1  C   UNL     1      -4.097   7.079   0.371  0.00  0.00    +0.028 C 
ATOM      2  C   UNL     1      -3.845   5.758   0.207  0.00  0.00    +0.073 C 
ATOM      3  C   UNL     1      -2.554   5.088  -0.038  0.00  0.00    +0.259 C 
ATOM      4  O   UNL     1      -1.529   5.739  -0.117  0.00  0.00    -0.269 OA
ATOM      5  N   UNL     1      -2.523   3.769  -0.175  0.00  0.00    -0.239 N 
ATOM      6  C   UNL     1      -3.784   3.048  -0.063  0.00  0.00    +0.197 C 
ATOM      7  S   UNL     1      -4.994   4.387   0.241  0.00  0.00    -0.080 S 
ATOM      8  C   UNL     1      -3.798   2.047   1.052  0.00  0.00    +0.017 A 
ATOM      9  C   UNL     1      -3.559   2.124   2.406  0.00  0.00    +0.009 A 
ATOM     10  C   UNL     1      -3.655   0.991   3.193  0.00  0.00    +0.000 A 
ATOM     11  C   UNL     1      -3.991  -0.221   2.616  0.00  0.00    +0.002 A 
ATOM     12  C   UNL     1      -4.229  -0.304   1.260  0.00  0.00    +0.024 A 
ATOM     13  C   UNL     1      -4.136   0.832   0.460  0.00  0.00    +0.040 A 
ATOM     14  N   UNL     1      -4.327   0.999  -0.913  0.00  0.00    -0.282 N 
ATOM     15  C   UNL     1      -4.137   2.277  -1.301  0.00  0.00    +0.257 C 
ATOM     16  O   UNL     1      -4.232   2.716  -2.427  0.00  0.00    -0.272 OA
ATOM     17  H   UNL     1      -4.599   0.137  -1.540  0.00  0.00    +0.155 HD
ENDROOT
BRANCH   1  21
ATOM     18  C   UNL     1      -8.100   8.464   0.585  0.00  0.00    +0.029 A 
ATOM     19  C   UNL     1      -7.065   9.254   1.076  0.00  0.00    +0.023 A 
ATOM     20  C   UNL     1      -5.765   8.809   1.009  0.00  0.00    +0.010 A 
ATOM     21  C   UNL     1      -5.484   7.559   0.445  0.00  0.00    -0.024 A 
ATOM     22  C   UNL     1      -6.527   6.769  -0.053  0.00  0.00    +0.010 A 
ATOM     23  C   UNL     1      -7.825   7.220   0.024  0.00  0.00    +0.023 A 
BRANCH  18  25
ATOM     24  C   UNL     1      -9.722  10.167   1.358  0.00  0.00    +0.129 C 
ATOM     25  N   UNL     1      -9.415   8.919   0.655  0.00  0.00    -0.336 N 
ATOM     26  C   UNL     1     -10.492   8.149   0.026  0.00  0.00    +0.129 C 
ENDBRANCH  18  25
ENDBRANCH   1  21
BRANCH   5  27
ATOM     27  C   UNL     1      -1.321   3.094  -0.414  0.00  0.00    +0.039 A 
ATOM     28  C   UNL     1      -0.884   2.891  -1.717  0.00  0.00    +0.027 A 
ATOM     29  C   UNL     1       0.299   2.220  -1.952  0.00  0.00    +0.047 A 
ATOM     30  C   UNL     1       1.058   1.757  -0.887  0.00  0.00    +0.117 A 
ATOM     31  C   UNL     1       0.625   1.964   0.415  0.00  0.00    +0.047 A 
ATOM     32  C   UNL     1      -0.560   2.630   0.652  0.00  0.00    +0.027 A 
BRANCH  30  33
ATOM     33  O   UNL     1       2.226   1.101  -1.119  0.00  0.00    -0.507 OA
ATOM     34  H   UNL     1       2.827   0.733  -0.274  0.00  0.00    +0.292 HD
ENDBRANCH  30  33
ENDBRANCH   5  27
TORSDOF 4
