REMARK  Name = ZINC15678567
REMARK  5 active torsions:
REMARK  status: ('A' for Active; 'I' for Inactive)
REMARK    1  A    between atoms: C_1  and  C_2
REMARK    2  A    between atoms: C_2  and  C_3
REMARK    3  A    between atoms: C_10  and  S_15
REMARK    4  A    between atoms: S_15  and  N_18
REMARK    5  A    between atoms: N_18  and  C_19
REMARK                            x       y       z     vdW  Elec       q    Type
REMARK                         _______ _______ _______ _____ _____    ______ ____
ROOT
ATOM      1  S   UNL     1       1.704   6.141  -0.809  0.00  0.00    +0.072 S 
ATOM      2  O   UNL     1       0.348   6.514  -0.609  0.00  0.00    -0.150 OA
ATOM      3  O   UNL     1       2.785   6.848  -0.217  0.00  0.00    -0.150 OA
ENDROOT
BRANCH   1  10
ATOM      4  C   UNL     1       0.898  -0.659   0.149  0.00  0.00    +0.137 C 
ATOM      5  C   UNL     1      -0.338   0.201   0.205  0.00  0.00    +0.231 C 
ATOM      6  O   UNL     1      -1.417  -0.344   0.306  0.00  0.00    -0.274 OA
ATOM      7  N   UNL     1      -0.303   1.528   0.149  0.00  0.00    -0.284 N 
ATOM      8  C   UNL     1       0.835   2.329   0.149  0.00  0.00    +0.049 A 
ATOM      9  C   UNL     1       0.733   3.653  -0.266  0.00  0.00    +0.053 A 
ATOM     10  C   UNL     1       1.849   4.466  -0.282  0.00  0.00    +0.110 A 
ATOM     11  C   UNL     1       3.080   3.975   0.113  0.00  0.00    +0.030 A 
ATOM     12  C   UNL     1       3.196   2.661   0.531  0.00  0.00    +0.018 A 
ATOM     13  C   UNL     1       2.079   1.843   0.551  0.00  0.00    +0.030 A 
ATOM     14  S   UNL     1       2.217   0.167   1.090  0.00  0.00    -0.111 S 
ATOM     15  H   UNL     1      -1.157   1.985   0.100  0.00  0.00    +0.155 HD
BRANCH   4  17
ATOM     16  C   UNL     1       2.515  -1.808  -1.370  0.00  0.00    +0.005 C 
ATOM     17  C   UNL     1       1.337  -0.834  -1.306  0.00  0.00    +0.020 C 
ENDBRANCH   4  17
ENDBRANCH   1  10
BRANCH   1  18
ATOM     18  N   UNL     1       1.964   6.163  -2.445  0.00  0.00    -0.216 N 
ATOM     19  H   UNL     1       2.700   6.678  -2.812  0.00  0.00    +0.174 HD
BRANCH  18  20
ATOM     20  C   UNL     1       1.127   5.442  -3.293  0.00  0.00    +0.056 A 
ATOM     21  C   UNL     1      -0.218   5.329  -3.012  0.00  0.00    +0.025 A 
ATOM     22  C   UNL     1      -1.063   4.612  -3.853  0.00  0.00    +0.002 A 
ATOM     23  C   UNL     1      -0.588   4.003  -4.974  0.00  0.00    +0.008 A 
ATOM     24  C   UNL     1       0.777   4.093  -5.297  0.00  0.00    -0.016 A 
ATOM     25  C   UNL     1       1.646   4.826  -4.452  0.00  0.00    +0.004 A 
ATOM     26  C   UNL     1       3.010   4.912  -4.773  0.00  0.00    +0.010 A 
ATOM     27  C   UNL     1       3.478   4.300  -5.896  0.00  0.00    +0.001 A 
ATOM     28  C   UNL     1       2.623   3.583  -6.731  0.00  0.00    +0.001 A 
ATOM     29  C   UNL     1       1.296   3.475  -6.448  0.00  0.00    +0.008 A 
ENDBRANCH  18  20
ENDBRANCH   1  18
TORSDOF 4
