REMARK  Name = ZINC39682856
REMARK  9 active torsions:
REMARK  status: ('A' for Active; 'I' for Inactive)
REMARK    1  A    between atoms: C_1  and  O_2
REMARK    2  A    between atoms: O_2  and  C_3
REMARK    3  A    between atoms: C_6  and  C_10
REMARK    4  A    between atoms: C_14  and  C_23
REMARK    5  A    between atoms: N_25  and  C_26
REMARK    6  A    between atoms: C_26  and  C_27
REMARK    7  A    between atoms: C_27  and  C_28
REMARK    8  A    between atoms: C_28  and  C_29
REMARK    9  A    between atoms: C_29  and  C_30
REMARK                            x       y       z     vdW  Elec       q    Type
REMARK                         _______ _______ _______ _____ _____    ______ ____
ROOT
ATOM      1  C   UNL     1      -4.963  -2.621   0.038  0.00  0.00    +0.247 C 
ATOM      2  O   UNL     1      -5.443  -3.004   1.087  0.00  0.00    -0.270 OA
ATOM      3  N   UNL     1      -5.613  -2.842  -1.121  0.00  0.00    -0.296 N 
ATOM      4  C   UNL     1      -5.135  -2.569  -2.497  0.00  0.00    +0.121 C 
ATOM      5  C   UNL     1      -5.634  -3.772  -3.329  0.00  0.00    +0.100 C 
ATOM      6  C   UNL     1      -6.838  -4.319  -2.545  0.00  0.00    -0.004 C 
ATOM      7  C   UNL     1      -6.966  -3.418  -1.309  0.00  0.00    +0.115 C 
ATOM      8  C   UNL     1      -6.577  -5.760  -2.115  0.00  0.00    -0.010 C 
ATOM      9  C   UNL     1      -7.811  -6.301  -1.387  0.00  0.00    -0.082 C 
ATOM     10  N   UNL     1      -8.975  -6.238  -2.280  0.00  0.00    +0.379 N 
ATOM     11  C   UNL     1      -9.275  -4.841  -2.614  0.00  0.00    -0.082 C 
ATOM     12  C   UNL     1      -8.103  -4.238  -3.394  0.00  0.00    -0.010 C 
ATOM     13  H   UNL     1      -8.776  -6.750  -3.126  0.00  0.00    -0.086 HD
ATOM     14  H   UNL     1      -9.772  -6.651  -1.820  0.00  0.00    -0.086 HD
ENDROOT
BRANCH   1  18
ATOM     15  C   UNL     1      -1.232  -0.589   0.026  0.00  0.00    +0.157 A 
ATOM     16  C   UNL     1      -1.547  -1.455   1.068  0.00  0.00    +0.085 A 
ATOM     17  C   UNL     1      -2.756  -2.116   1.075  0.00  0.00    +0.036 A 
ATOM     18  C   UNL     1      -3.666  -1.915   0.034  0.00  0.00    +0.040 A 
ATOM     19  C   UNL     1      -3.346  -1.044  -1.011  0.00  0.00    +0.036 A 
ATOM     20  C   UNL     1      -2.137  -0.383  -1.009  0.00  0.00    +0.085 A 
ATOM     21 CL   UNL     1      -1.741   0.704  -2.303  0.00  0.00    -0.080 Cl
ATOM     22 CL   UNL     1      -0.415  -1.704   2.361  0.00  0.00    -0.080 Cl
BRANCH  15  24
ATOM     23  C   UNL     1       0.007   1.333   0.670  0.00  0.00    +0.277 C 
ATOM     24  O   UNL     1      -0.040   0.060   0.023  0.00  0.00    -0.492 OA
ENDBRANCH  15  24
ENDBRANCH   1  18
BRANCH   5  25
ATOM     25  C   UNL     1      -4.555  -4.818  -3.437  0.00  0.00    +0.218 C 
ATOM     26  O   UNL     1      -3.799  -5.008  -2.508  0.00  0.00    -0.275 OA
ATOM     27  N   UNL     1      -4.429  -5.543  -4.566  0.00  0.00    -0.315 N 
ATOM     28  H   UNL     1      -5.034  -5.392  -5.310  0.00  0.00    +0.149 HD
BRANCH  27  29
ATOM     29  C   UNL     1      -3.381  -6.561  -4.671  0.00  0.00    +0.104 C 
BRANCH  29  30
ATOM     30  C   UNL     1      -3.457  -7.233  -6.043  0.00  0.00    +0.019 C 
BRANCH  30  31
ATOM     31  C   UNL     1      -2.362  -8.295  -6.153  0.00  0.00    +0.013 C 
BRANCH  31  32
ATOM     32  C   UNL     1      -2.438  -8.967  -7.525  0.00  0.00    +0.125 C 
BRANCH  32  33
ATOM     33  C   UNL     1      -1.359 -10.014  -7.633  0.00  0.00    +0.356 C 
ATOM     34  O   UNL     1      -0.600 -10.204  -6.699  0.00  0.00    -0.246 OA
ATOM     35  O   UNL     1      -1.246 -10.670  -8.654  0.00  0.00    -0.246 OA
ENDBRANCH  32  33
ENDBRANCH  31  32
ENDBRANCH  30  31
ENDBRANCH  29  30
ENDBRANCH  27  29
ENDBRANCH   5  25
TORSDOF 8
