REMARK  Name = ZINC39683697
REMARK  5 active torsions:
REMARK  status: ('A' for Active; 'I' for Inactive)
REMARK    1  A    between atoms: C_5  and  C_7
REMARK    2  A    between atoms: C_7  and  C_8
REMARK    3  A    between atoms: C_8  and  N_9
REMARK    4  A    between atoms: C_10  and  C_12
REMARK    5  A    between atoms: C_23  and  C_25
REMARK                            x       y       z     vdW  Elec       q    Type
REMARK                         _______ _______ _______ _____ _____    ______ ____
ROOT
ATOM      1  C   UNL     1       1.538  -6.353   2.556  0.00  0.00    +0.100 C 
ATOM      2  C   UNL     1       0.159  -6.909   2.136  0.00  0.00    +0.121 C 
ATOM      3  N   UNL     1      -0.033  -8.113   2.978  0.00  0.00    -0.295 N 
ATOM      4  C   UNL     1       0.508  -7.725   4.303  0.00  0.00    +0.115 C 
ATOM      5  C   UNL     1       1.763  -6.891   3.979  0.00  0.00    -0.004 C 
ATOM      6  C   UNL     1       1.896  -5.735   4.966  0.00  0.00    -0.010 C 
ATOM      7  C   UNL     1       2.177  -6.293   6.364  0.00  0.00    -0.082 C 
ATOM      8  N   UNL     1       3.413  -7.085   6.338  0.00  0.00    +0.379 N 
ATOM      9  C   UNL     1       3.244  -8.247   5.457  0.00  0.00    -0.082 C 
ATOM     10  C   UNL     1       3.008  -7.772   4.021  0.00  0.00    -0.010 C 
ATOM     11  C   UNL     1      -0.576  -9.293   2.620  0.00  0.00    +0.265 C 
ATOM     12  O   UNL     1      -0.741 -10.163   3.452  0.00  0.00    -0.268 OA
ATOM     13  H   UNL     1       4.170  -6.513   5.995  0.00  0.00    -0.086 HD
ATOM     14  H   UNL     1       3.629  -7.401   7.271  0.00  0.00    -0.086 HD
ENDROOT
BRANCH  11  15
ATOM     15  C   UNL     1      -0.971  -9.530   1.212  0.00  0.00    +0.126 A 
ATOM     16  C   UNL     1      -1.633 -10.707   0.869  0.00  0.00    +0.033 A 
ATOM     17  C   UNL     1      -1.996 -10.915  -0.452  0.00  0.00    +0.004 A 
ATOM     18  C   UNL     1      -1.684  -9.938  -1.385  0.00  0.00    +0.020 A 
ATOM     19  C   UNL     1      -1.024  -8.792  -0.973  0.00  0.00    +0.111 A 
ATOM     20  N   UNL     1      -0.696  -8.618   0.289  0.00  0.00    -0.250 NA
ENDBRANCH  11  15
BRANCH   1  22
ATOM     21  N   UNL     1       2.673  -4.157   2.482  0.00  0.00    -0.315 N 
ATOM     22  C   UNL     1       1.518  -4.847   2.562  0.00  0.00    +0.218 C 
ATOM     23  O   UNL     1       0.462  -4.255   2.638  0.00  0.00    -0.275 OA
ATOM     24  H   UNL     1       3.517  -4.630   2.421  0.00  0.00    +0.149 HD
BRANCH  21  25
ATOM     25  C   UNL     1       2.653  -2.692   2.487  0.00  0.00    +0.109 C 
BRANCH  25  26
ATOM     26  C   UNL     1       4.085  -2.162   2.388  0.00  0.00    +0.055 C 
BRANCH  26  31
ATOM     27  C   UNL     1       4.058   1.423   1.203  0.00  0.00    +0.000 A 
ATOM     28  C   UNL     1       4.029   2.110   2.403  0.00  0.00    +0.001 A 
ATOM     29  C   UNL     1       4.017   1.415   3.597  0.00  0.00    +0.015 A 
ATOM     30  C   UNL     1       4.035   0.032   3.593  0.00  0.00    +0.021 A 
ATOM     31  C   UNL     1       4.065  -0.655   2.393  0.00  0.00    -0.032 A 
ATOM     32  C   UNL     1       4.076   0.040   1.198  0.00  0.00    +0.005 A 
ATOM     33 BR   UNL     1       4.021  -0.920   5.227  0.00  0.00    -0.050 Br
ENDBRANCH  26  31
ENDBRANCH  25  26
ENDBRANCH  21  25
ENDBRANCH   1  22
TORSDOF 5
