REMARK  Name = ZINC03877871
REMARK  4 active torsions:
REMARK  status: ('A' for Active; 'I' for Inactive)
REMARK    1  A    between atoms: C_1  and  C_2
REMARK    2  A    between atoms: C_3  and  C_11
REMARK    3  A    between atoms: N_16  and  C_17
REMARK    4  A    between atoms: C_20  and  N_23
REMARK                            x       y       z     vdW  Elec       q    Type
REMARK                         _______ _______ _______ _____ _____    ______ ____
ROOT
ATOM      1  C   UNL     1      -1.053   1.940  -0.344  0.00  0.00    +0.099 A 
ATOM      2  C   UNL     1       0.017   1.107  -0.525  0.00  0.00    +0.078 A 
ATOM      3  S   UNL     1       1.368   2.274  -0.429  0.00  0.00    -0.060 S 
ATOM      4  C   UNL     1       0.383   3.739  -0.152  0.00  0.00    +0.163 A 
ATOM      5  N   UNL     1      -0.841   3.241  -0.156  0.00  0.00    -0.223 NA
ATOM      6  N   UNL     1       0.793   5.052   0.020  0.00  0.00    -0.294 N 
ATOM      7  H   UNL     1       0.136   5.763   0.075  0.00  0.00    +0.154 HD
ENDROOT
BRANCH   1  10
ATOM      8  C   UNL     1      -3.534   3.222   1.063  0.00  0.00    +0.068 C 
ATOM      9  C   UNL     1      -3.522   1.949   0.257  0.00  0.00    +0.066 A 
ATOM     10  C   UNL     1      -2.430   1.401  -0.352  0.00  0.00    +0.095 A 
ATOM     11  N   UNL     1      -2.857   0.254  -0.979  0.00  0.00    -0.298 N 
ATOM     12  C   UNL     1      -2.208  -0.688  -1.723  0.00  0.00    +0.093 A 
ATOM     13  C   UNL     1      -2.878  -1.745  -2.229  0.00  0.00    +0.018 A 
ATOM     14  C   UNL     1      -4.255  -1.892  -1.990  0.00  0.00    +0.005 A 
ATOM     15  C   UNL     1      -4.913  -0.962  -1.245  0.00  0.00    +0.047 A 
ATOM     16  C   UNL     1      -4.200   0.135  -0.724  0.00  0.00    +0.138 A 
ATOM     17  N   UNL     1      -4.575   1.169   0.018  0.00  0.00    -0.232 NA
ENDBRANCH   1  10
BRANCH   6  18
ATOM     18  C   UNL     1       2.158   5.351   0.115  0.00  0.00    +0.033 A 
ATOM     19  C   UNL     1       3.027   4.449   0.715  0.00  0.00    +0.025 A 
ATOM     20  C   UNL     1       4.373   4.742   0.804  0.00  0.00    +0.024 A 
ATOM     21  C   UNL     1       4.857   5.944   0.304  0.00  0.00    +0.025 A 
ATOM     22  C   UNL     1       3.987   6.849  -0.290  0.00  0.00    +0.024 A 
ATOM     23  C   UNL     1       2.642   6.553  -0.385  0.00  0.00    +0.025 A 
BRANCH  21  24
ATOM     24  N   UNL     1       6.221   6.244   0.400  0.00  0.00    -0.358 N 
ATOM     25  H   UNL     1       6.558   7.084   0.051  0.00  0.00    +0.142 HD
ATOM     26  H   UNL     1       6.828   5.612   0.815  0.00  0.00    +0.142 HD
ENDBRANCH  21  24
ENDBRANCH   6  18
TORSDOF 3
