REMARK  Name = ZINC21799441
REMARK  9 active torsions:
REMARK  status: ('A' for Active; 'I' for Inactive)
REMARK    1  A    between atoms: C_1  and  C_2
REMARK    2  A    between atoms: C_2  and  C_3
REMARK    3  A    between atoms: C_3  and  C_5
REMARK    4  A    between atoms: C_3  and  N_6
REMARK    5  A    between atoms: N_6  and  C_7
REMARK    6  A    between atoms: C_9  and  C_27
REMARK    7  A    between atoms: C_14  and  C_23
REMARK    8  A    between atoms: C_15  and  C_16
REMARK    9  A    between atoms: C_19  and  C_22
REMARK                            x       y       z     vdW  Elec       q    Type
REMARK                         _______ _______ _______ _____ _____    ______ ____
ROOT
ATOM      1  C   UNL     1      -3.478  -0.037  -1.266  0.00  0.00    +0.124 A 
ATOM      2  C   UNL     1      -4.232  -0.291  -0.139  0.00  0.00    +0.066 A 
ATOM      3  C   UNL     1      -5.619  -0.165  -0.206  0.00  0.00    +0.044 A 
ATOM      4  N   UNL     1      -6.201   0.182  -1.333  0.00  0.00    -0.232 NA
ATOM      5  C   UNL     1      -5.485   0.427  -2.436  0.00  0.00    +0.166 A 
ATOM      6  N   UNL     1      -4.119   0.323  -2.422  0.00  0.00    -0.200 N 
ATOM      7  N   UNL     1      -3.650   0.633  -3.703  0.00  0.00    -0.159 NA
ATOM      8  C   UNL     1      -4.667   0.917  -4.478  0.00  0.00    +0.175 A 
ATOM      9  C   UNL     1      -5.848   0.804  -3.735  0.00  0.00    +0.058 A 
ATOM     10  C   UNL     1      -6.456  -0.435   1.018  0.00  0.00    +0.066 C 
ENDROOT
BRANCH   9  11
ATOM     11  C   UNL     1      -7.224   1.039  -4.229  0.00  0.00    -0.012 A 
ATOM     12  C   UNL     1      -8.136  -0.014  -4.291  0.00  0.00    +0.009 A 
ATOM     13  C   UNL     1      -9.418   0.213  -4.747  0.00  0.00    +0.004 A 
ATOM     14  C   UNL     1      -9.797   1.480  -5.154  0.00  0.00    -0.050 A 
ATOM     15  C   UNL     1      -8.895   2.527  -5.101  0.00  0.00    +0.004 A 
ATOM     16  C   UNL     1      -7.611   2.314  -4.641  0.00  0.00    +0.009 A 
ATOM     17  C   UNL     1     -11.197   1.719  -5.657  0.00  0.00    +0.044 C 
ENDBRANCH   9  11
BRANCH   8  18
ATOM     18  C   UNL     1      -4.580   1.304  -5.932  0.00  0.00    +0.437 C 
ATOM     19  F   UNL     1      -4.459   2.693  -6.039  0.00  0.00    -0.164 F 
ATOM     20  F   UNL     1      -3.462   0.692  -6.511  0.00  0.00    -0.164 F 
ATOM     21  F   UNL     1      -5.737   0.884  -6.596  0.00  0.00    -0.164 F 
ENDBRANCH   8  18
BRANCH   1  22
ATOM     22  N   UNL     1      -2.105  -0.148  -1.230  0.00  0.00    -0.326 N 
ATOM     23  H   UNL     1      -1.514   0.052  -2.136  0.00  0.00    +0.148 HD
BRANCH  22  24
ATOM     24  C   UNL     1      -1.433  -0.534   0.013  0.00  0.00    +0.068 C 
ATOM     25  C   UNL     1      -1.413  -2.059   0.130  0.00  0.00    +0.028 C 
BRANCH  24  27
ATOM     26  C   UNL     1      -0.019   1.526   0.010  0.00  0.00    +0.005 C 
ATOM     27  C   UNL     1       0.002  -0.004   0.002  0.00  0.00    +0.018 C 
ENDBRANCH  24  27
ENDBRANCH  22  24
ENDBRANCH   1  22
TORSDOF 5
