REMARK  Name = ZINC35442605
REMARK  12 active torsions:
REMARK  status: ('A' for Active; 'I' for Inactive)
REMARK    1  A    between atoms: C_1  and  C_2
REMARK    2  A    between atoms: C_4  and  C_23
REMARK    3  A    between atoms: C_6  and  C_20
REMARK    4  A    between atoms: C_9  and  C_11
REMARK    5  A    between atoms: C_11  and  C_12
REMARK    6  A    between atoms: N_14  and  C_15
REMARK    7  A    between atoms: C_20  and  C_21
REMARK    8  A    between atoms: C_20  and  C_22
REMARK    9  A    between atoms: C_23  and  N_24
REMARK   10  A    between atoms: C_25  and  C_27
REMARK   11  A    between atoms: C_30  and  N_33
REMARK   12  A    between atoms: C_34  and  C_36
REMARK                            x       y       z     vdW  Elec       q    Type
REMARK                         _______ _______ _______ _____ _____    ______ ____
ROOT
ATOM      1  C   UNL     1       0.622   1.080  -0.467  0.00  0.00    +0.039 C 
ATOM      2  C   UNL     1       0.514  -0.334   0.044  0.00  0.00    -0.073 C 
ATOM      3  C   UNL     1       0.603  -1.298  -0.815  0.00  0.00    -0.022 C 
ATOM      4  C   UNL     1       0.503  -2.753  -0.459  0.00  0.00    +0.032 C 
ATOM      5  C   UNL     1       0.713  -2.943   1.045  0.00  0.00    +0.000 C 
ATOM      6  C   UNL     1      -0.194  -1.955   1.790  0.00  0.00    +0.012 C 
ATOM      7  C   UNL     1       0.316  -0.536   1.518  0.00  0.00    +0.023 C 
ENDROOT
BRANCH   5   8
ATOM      8  C   UNL     1       0.350  -4.377   1.438  0.00  0.00    -0.013 C 
ATOM      9  C   UNL     1       0.699  -4.606   2.909  0.00  0.00    +0.007 C 
ATOM     10  C   UNL     1      -1.149  -4.599   1.228  0.00  0.00    +0.007 C 
ENDBRANCH   5   8
BRANCH   7  11
ATOM     11  C   UNL     1       1.646  -0.322   2.242  0.00  0.00    +0.103 C 
BRANCH  11  12
ATOM     12  C   UNL     1       1.416  -0.346   3.731  0.00  0.00    +0.214 C 
ATOM     13  O   UNL     1       0.287  -0.398   4.170  0.00  0.00    -0.276 OA
ATOM     14  N   UNL     1       2.466  -0.309   4.576  0.00  0.00    -0.312 N 
ATOM     15  H   UNL     1       3.370  -0.268   4.225  0.00  0.00    +0.149 HD
BRANCH  14  16
ATOM     16  C   UNL     1       2.243  -0.333   6.024  0.00  0.00    +0.073 C 
ATOM     17  C   UNL     1       2.047   1.103   6.551  0.00  0.00    +0.022 C 
ATOM     18  C   UNL     1       2.753   1.101   7.930  0.00  0.00    +0.002 C 
ATOM     19  C   UNL     1       3.996   0.214   7.676  0.00  0.00    +0.002 C 
ATOM     20  C   UNL     1       3.483  -0.898   6.739  0.00  0.00    +0.022 C 
ENDBRANCH  14  16
ENDBRANCH  11  12
ENDBRANCH   7  11
BRANCH   4  21
ATOM     21  C   UNL     1       1.575  -3.535  -1.220  0.00  0.00    +0.112 C 
BRANCH  21  22
ATOM     22  N   UNL     1       1.320  -3.439  -2.660  0.00  0.00    -0.311 N 
ATOM     23  C   UNL     1       2.142  -4.055  -3.532  0.00  0.00    +0.244 C 
ATOM     24  O   UNL     1       3.095  -4.691  -3.125  0.00  0.00    -0.270 OA
ATOM     25  H   UNL     1       0.560  -2.932  -2.985  0.00  0.00    +0.149 HD
BRANCH  23  26
ATOM     26  C   UNL     1       1.885  -3.958  -4.982  0.00  0.00    +0.037 A 
ATOM     27  C   UNL     1       0.793  -3.223  -5.453  0.00  0.00    +0.015 A 
ATOM     28  C   UNL     1       0.557  -3.135  -6.806  0.00  0.00    +0.024 A 
ATOM     29  C   UNL     1       1.403  -3.776  -7.705  0.00  0.00    +0.033 A 
ATOM     30  C   UNL     1       2.491  -4.509  -7.240  0.00  0.00    +0.024 A 
ATOM     31  C   UNL     1       2.736  -4.597  -5.889  0.00  0.00    +0.015 A 
BRANCH  29  32
ATOM     32  N   UNL     1       1.160  -3.685  -9.075  0.00  0.00    -0.286 N 
ATOM     33  C   UNL     1       0.641  -2.554  -9.594  0.00  0.00    +0.214 C 
ATOM     34  O   UNL     1       0.476  -1.583  -8.887  0.00  0.00    -0.276 OA
ATOM     35  C   UNL     1       0.266  -2.497 -11.052  0.00  0.00    +0.109 C 
ATOM     36  H   UNL     1       1.365  -4.435  -9.655  0.00  0.00    +0.155 HD
ENDBRANCH  29  32
ENDBRANCH  23  26
ENDBRANCH  21  22
ENDBRANCH   4  21
TORSDOF 8
