REMARK  Name = ZINC02498201
REMARK  7 active torsions:
REMARK  status: ('A' for Active; 'I' for Inactive)
REMARK    1  A    between atoms: C_1  and  C_2
REMARK    2  A    between atoms: N_6  and  C_7
REMARK    3  A    between atoms: C_7  and  C_8
REMARK    4  A    between atoms: C_8  and  C_9
REMARK    5  A    between atoms: C_9  and  C_10
REMARK    6  A    between atoms: N_12  and  C_13
REMARK    7  A    between atoms: C_14  and  C_22
REMARK                            x       y       z     vdW  Elec       q    Type
REMARK                         _______ _______ _______ _____ _____    ______ ____
ROOT
ATOM      1  C   UNL     1      -3.232  -2.390  -2.845  0.00  0.00    +0.218 C 
ATOM      2  O   UNL     1      -2.609  -1.913  -3.770  0.00  0.00    -0.275 OA
ATOM      3  N   UNL     1      -4.295  -3.183  -3.087  0.00  0.00    -0.279 N 
ATOM      4  H   UNL     1      -4.793  -3.564  -2.347  0.00  0.00    +0.155 HD
ENDROOT
BRANCH   3   5
ATOM      5  C   UNL     1      -4.676  -3.453  -4.392  0.00  0.00    +0.084 A 
ATOM      6  C   UNL     1      -5.728  -4.241  -4.837  0.00  0.00    +0.068 A 
ATOM      7  C   UNL     1      -5.917  -4.360  -6.273  0.00  0.00    -0.023 A 
ATOM      8  C   UNL     1      -5.025  -3.683  -7.029  0.00  0.00    -0.004 A 
ATOM      9  S   UNL     1      -3.952  -2.893  -5.863  0.00  0.00    -0.077 S 
ATOM     10  C   UNL     1      -4.968  -3.625  -8.524  0.00  0.00    +0.043 C 
ATOM     11  C   UNL     1      -5.849  -4.751  -9.086  0.00  0.00    +0.005 C 
ATOM     12  C   UNL     1      -7.200  -4.726  -8.366  0.00  0.00    +0.005 C 
ATOM     13  C   UNL     1      -7.026  -5.182  -6.917  0.00  0.00    +0.037 C 
BRANCH   6  14
ATOM     14  C   UNL     1      -6.617  -4.926  -3.894  0.00  0.00    +0.244 C 
ATOM     15  O   UNL     1      -7.622  -4.370  -3.491  0.00  0.00    -0.270 OA
ATOM     16  N   UNL     1      -6.322  -6.172  -3.473  0.00  0.00    -0.325 N 
ATOM     17  H   UNL     1      -5.521  -6.615  -3.794  0.00  0.00    +0.145 HD
ATOM     18  H   UNL     1      -6.910  -6.625  -2.849  0.00  0.00    +0.145 HD
ENDBRANCH   6  14
ENDBRANCH   3   5
BRANCH   1  19
ATOM     19  C   UNL     1      -2.817  -2.097  -1.427  0.00  0.00    +0.098 C 
BRANCH  19  20
ATOM     20  C   UNL     1      -1.592  -1.180  -1.433  0.00  0.00    +0.032 C 
BRANCH  20  21
ATOM     21  C   UNL     1      -1.171  -0.882   0.008  0.00  0.00    +0.144 C 
BRANCH  21  27
ATOM     22  C   UNL     1      -1.245   2.218   0.020  0.00  0.00    +0.066 C 
ATOM     23  C   UNL     1      -0.016   1.346   0.009  0.00  0.00    +0.052 A 
ATOM     24  C   UNL     1       1.267   1.776  -0.001  0.00  0.00    +0.089 A 
ATOM     25  C   UNL     1       2.098   0.650  -0.015  0.00  0.00    +0.249 A 
ATOM     26  N   UNL     1       1.341  -0.417  -0.013  0.00  0.00    -0.145 NA
ATOM     27  N   UNL     1       0.002  -0.004   0.002  0.00  0.00    -0.265 N 
ATOM     28  N   UNL     1       3.578   0.663  -0.029  0.00  0.00    +0.078 N 
ATOM     29  O   UNL     1       4.197  -0.386  -0.042  0.00  0.00    -0.125 OA
ATOM     30  O   UNL     1       4.177   1.724  -0.030  0.00  0.00    -0.125 OA
ATOM     31 BR   UNL     1       1.837   3.579   0.003  0.00  0.00    -0.044 Br
ENDBRANCH  21  27
ENDBRANCH  20  21
ENDBRANCH  19  20
ENDBRANCH   1  19
TORSDOF 6
