REMARK  Name = ZINC64746042
REMARK  8 active torsions:
REMARK  status: ('A' for Active; 'I' for Inactive)
REMARK    1  A    between atoms: C_1  and  C_2
REMARK    2  A    between atoms: C_7  and  C_12
REMARK    3  A    between atoms: C_12  and  N_13
REMARK    4  A    between atoms: N_13  and  S_14
REMARK    5  A    between atoms: S_14  and  C_17
REMARK    6  A    between atoms: C_19  and  C_23
REMARK    7  A    between atoms: C_21  and  C_22
REMARK    8  A    between atoms: C_26  and  C_29
REMARK                            x       y       z     vdW  Elec       q    Type
REMARK                         _______ _______ _______ _____ _____    ______ ____
ROOT
ATOM      1  C   UNL     1       4.343  -6.169   1.495  0.00  0.00    +0.116 A 
ATOM      2  C   UNL     1       5.475  -6.389   0.732  0.00  0.00    +0.045 A 
ATOM      3  C   UNL     1       5.702  -7.629   0.235  0.00  0.00    +0.053 A 
ATOM      4  S   UNL     1       4.292  -8.537   0.848  0.00  0.00    -0.091 S 
ATOM      5  C   UNL     1       3.498  -7.203   1.729  0.00  0.00    +0.013 A 
ATOM      6  C   UNL     1       2.218  -7.220   2.525  0.00  0.00    +0.053 C 
ENDROOT
BRANCH   3   7
ATOM      7  C   UNL     1       6.848  -8.116  -0.614  0.00  0.00    +0.330 C 
ATOM      8  N   UNL     1       7.088  -9.549  -0.381  0.00  0.00    -0.285 N 
ATOM      9  C   UNL     1       6.888 -10.189  -1.590  0.00  0.00    +0.168 C 
ATOM     10  N   UNL     1       6.563  -9.348  -2.517  0.00  0.00    -0.066 NA
ATOM     11  O   UNL     1       6.513  -8.026  -2.007  0.00  0.00    -0.364 OA
ATOM     12  H   UNL     1       7.337  -9.964   0.460  0.00  0.00    +0.151 HD
BRANCH   9  13
ATOM     13  C   UNL     1       7.029 -11.648  -1.797  0.00  0.00    +0.018 A 
ATOM     14  C   UNL     1       7.380 -12.476  -0.730  0.00  0.00    +0.014 A 
ATOM     15  C   UNL     1       7.509 -13.834  -0.928  0.00  0.00    +0.039 A 
ATOM     16  C   UNL     1       7.292 -14.378  -2.184  0.00  0.00    +0.123 A 
ATOM     17  C   UNL     1       6.944 -13.560  -3.247  0.00  0.00    +0.039 A 
ATOM     18  C   UNL     1       6.806 -12.200  -3.058  0.00  0.00    +0.014 A 
ATOM     19  F   UNL     1       7.421 -15.709  -2.373  0.00  0.00    -0.205 F 
ENDBRANCH   9  13
ENDBRANCH   3   7
BRANCH   1  20
ATOM     20  S   UNL     1       4.009  -4.572   2.160  0.00  0.00    +0.059 S 
ATOM     21  O   UNL     1       2.659  -4.271   1.834  0.00  0.00    -0.153 OA
ATOM     22  O   UNL     1       5.090  -3.736   1.772  0.00  0.00    -0.153 OA
BRANCH  20  23
ATOM     23  N   UNL     1       4.080  -4.703   3.809  0.00  0.00    -0.186 NA
ATOM     24  H   UNL     1       3.285  -4.548   4.343  0.00  0.00    +0.148 HD
BRANCH  23  25
ATOM     25  C   UNL     1       5.343  -5.054   4.462  0.00  0.00    +0.152 C 
BRANCH  25  32
ATOM     26  C   UNL     1       1.039  -1.159   8.383  0.00  0.00    +0.044 C 
ATOM     27  C   UNL     1       1.849  -2.337   7.905  0.00  0.00    -0.048 A 
ATOM     28  C   UNL     1       1.364  -3.634   8.149  0.00  0.00    +0.005 A 
ATOM     29  C   UNL     1       2.024  -4.742   7.757  0.00  0.00    +0.027 A 
ATOM     30  C   UNL     1       3.303  -4.611   7.046  0.00  0.00    +0.060 A 
ATOM     31  N   UNL     1       4.139  -5.483   6.561  0.00  0.00    -0.362 N 
ATOM     32  C   UNL     1       5.250  -4.738   5.956  0.00  0.00    +0.190 C 
ATOM     33  N   UNL     1       4.950  -3.314   6.153  0.00  0.00    -0.362 N 
ATOM     34  C   UNL     1       3.816  -3.238   6.787  0.00  0.00    +0.060 A 
ATOM     35  C   UNL     1       3.008  -2.104   7.257  0.00  0.00    +0.030 A 
ATOM     36  H   UNL     1       4.046  -6.448   6.593  0.00  0.00    +0.162 HD
ATOM     37  H   UNL     1       5.497  -2.567   5.863  0.00  0.00    +0.162 HD
ENDBRANCH  25  32
ENDBRANCH  23  25
ENDBRANCH  20  23
ENDBRANCH   1  20
TORSDOF 6
