REMARK  Name = ZINC56524610
REMARK  12 active torsions:
REMARK  status: ('A' for Active; 'I' for Inactive)
REMARK    1  A    between atoms: C_1  and  N_2
REMARK    2  A    between atoms: N_2  and  C_3
REMARK    3  A    between atoms: N_2  and  C_4
REMARK    4  A    between atoms: C_4  and  C_5
REMARK    5  A    between atoms: C_5  and  C_6
REMARK    6  A    between atoms: N_9  and  C_12
REMARK    7  A    between atoms: C_12  and  C_13
REMARK    8  A    between atoms: N_15  and  C_16
REMARK    9  A    between atoms: N_15  and  C_21
REMARK   10  A    between atoms: C_16  and  C_17
REMARK   11  A    between atoms: C_17  and  C_18
REMARK   12  A    between atoms: C_21  and  C_22
REMARK                            x       y       z     vdW  Elec       q    Type
REMARK                         _______ _______ _______ _____ _____    ______ ____
ROOT
ATOM      1  C   UNL     1      -6.114  -6.192  -1.673  0.00  0.00    +0.199 C 
ATOM      2  O   UNL     1      -5.029  -6.733  -1.699  0.00  0.00    -0.278 OA
ATOM      3  N   UNL     1      -7.237  -6.929  -1.786  0.00  0.00    -0.298 N 
ENDROOT
BRANCH   1   4
ATOM      4  C   UNL     1      -6.207  -4.697  -1.515  0.00  0.00    +0.019 C 
BRANCH   4   8
ATOM      5  C   UNL     1      -2.794  -2.566  -0.111  0.00  0.00    -0.016 C 
ATOM      6  C   UNL     1      -3.533  -2.068  -1.356  0.00  0.00    -0.015 C 
ATOM      7  C   UNL     1      -4.941  -2.665  -1.379  0.00  0.00    -0.078 C 
ATOM      8  N   UNL     1      -4.855  -4.130  -1.413  0.00  0.00    +0.385 N 
ATOM      9  C   UNL     1      -4.212  -4.620  -0.189  0.00  0.00    -0.078 C 
ATOM     10  C   UNL     1      -2.775  -4.097  -0.119  0.00  0.00    -0.015 C 
ATOM     11  H   UNL     1      -4.312  -4.415  -2.215  0.00  0.00    -0.081 HD
BRANCH   5  12
ATOM     12  C   UNL     1      -1.358  -2.037  -0.122  0.00  0.00    -0.015 C 
BRANCH  12  13
ATOM     13  C   UNL     1      -1.376  -0.512   0.012  0.00  0.00    -0.079 C 
BRANCH  13  15
ATOM     14  C   UNL     1      -0.018   1.465   0.010  0.00  0.00    -0.097 C 
ATOM     15  N   UNL     1       0.002  -0.004   0.002  0.00  0.00    +0.376 N 
ATOM     16  C   UNL     1       0.713  -0.491   1.192  0.00  0.00    -0.097 C 
ATOM     17  H   UNL     1       0.474  -0.330  -0.828  0.00  0.00    -0.083 HD
ENDBRANCH  13  15
ENDBRANCH  12  13
ENDBRANCH   5  12
ENDBRANCH   4   8
ENDBRANCH   1   4
BRANCH   3  18
ATOM     18  C   UNL     1      -8.548  -6.276  -1.754  0.00  0.00    +0.117 C 
BRANCH  18  19
ATOM     19  C   UNL     1      -8.962  -5.894  -3.177  0.00  0.00    +0.114 C 
BRANCH  19  20
ATOM     20  C   UNL     1     -10.310  -5.222  -3.144  0.00  0.00    +0.212 C 
ATOM     21  O   UNL     1     -10.884  -5.064  -2.087  0.00  0.00    -0.276 OA
ATOM     22  N   UNL     1     -10.879  -4.796  -4.290  0.00  0.00    -0.329 N 
ATOM     23  H   UNL     1     -10.420  -4.922  -5.135  0.00  0.00    +0.145 HD
ATOM     24  H   UNL     1     -11.747  -4.364  -4.269  0.00  0.00    +0.145 HD
ENDBRANCH  19  20
ENDBRANCH  18  19
ENDBRANCH   3  18
BRANCH   3  25
ATOM     25  C   UNL     1      -7.147  -8.383  -1.940  0.00  0.00    +0.142 C 
BRANCH  25  26
ATOM     26  C   UNL     1      -7.158  -9.034  -0.581  0.00  0.00    -0.030 A 
ATOM     27  C   UNL     1      -5.969  -9.258   0.088  0.00  0.00    +0.005 A 
ATOM     28  C   UNL     1      -5.979  -9.855   1.335  0.00  0.00    +0.000 A 
ATOM     29  C   UNL     1      -7.178 -10.227   1.913  0.00  0.00    +0.000 A 
ATOM     30  C   UNL     1      -8.367 -10.003   1.245  0.00  0.00    +0.000 A 
ATOM     31  C   UNL     1      -8.357  -9.402  -0.000  0.00  0.00    +0.005 A 
ENDBRANCH  25  26
ENDBRANCH   3  25
TORSDOF 10
