REMARK  Name = ZINC63280814
REMARK  5 active torsions:
REMARK  status: ('A' for Active; 'I' for Inactive)
REMARK    1  A    between atoms: C_6  and  C_7
REMARK    2  A    between atoms: N_9  and  C_10
REMARK    3  A    between atoms: C_10  and  C_11
REMARK    4  A    between atoms: C_11  and  C_12
REMARK    5  A    between atoms: C_23  and  C_26
REMARK                            x       y       z     vdW  Elec       q    Type
REMARK                         _______ _______ _______ _____ _____    ______ ____
ROOT
ATOM      1  C   UNL     1      -1.268  -0.758   0.011  0.00  0.00    +0.244 C 
ATOM      2  O   UNL     1      -1.254  -1.973   0.004  0.00  0.00    -0.270 OA
ATOM      3  N   UNL     1      -2.443  -0.098   0.026  0.00  0.00    -0.311 N 
ATOM      4  H   UNL     1      -2.454   0.872   0.031  0.00  0.00    +0.149 HD
ENDROOT
BRANCH   1  10
ATOM      5  C   UNL     1      -0.017   1.397   0.010  0.00  0.00    +0.015 A 
ATOM      6  C   UNL     1       1.150   2.104   0.002  0.00  0.00    +0.028 A 
ATOM      7  C   UNL     1       2.370   1.439  -0.013  0.00  0.00    +0.066 A 
ATOM      8  C   UNL     1       2.408   0.032  -0.021  0.00  0.00    +0.090 A 
ATOM      9  C   UNL     1       1.214  -0.687  -0.013  0.00  0.00    +0.043 A 
ATOM     10  C   UNL     1       0.002  -0.004   0.002  0.00  0.00    +0.039 A 
ATOM     11  N   UNL     1       3.718  -0.329  -0.035  0.00  0.00    -0.224 NA
ATOM     12  C   UNL     1       4.463   0.737  -0.037  0.00  0.00    +0.213 A 
ATOM     13  N   UNL     1       3.684   1.853  -0.023  0.00  0.00    -0.335 N 
ATOM     14  H   UNL     1       3.997   2.772  -0.021  0.00  0.00    +0.167 HD
BRANCH  12  15
ATOM     15  C   UNL     1       5.970   0.736  -0.050  0.00  0.00    +0.450 C 
ATOM     16  F   UNL     1       6.432  -0.536  -0.403  0.00  0.00    -0.163 F 
ATOM     17  F   UNL     1       6.428   1.674  -0.982  0.00  0.00    -0.163 F 
ATOM     18  F   UNL     1       6.448   1.071   1.221  0.00  0.00    -0.163 F 
ENDBRANCH  12  15
ENDBRANCH   1  10
BRANCH   3  19
ATOM     19  C   UNL     1      -3.703  -0.845   0.034  0.00  0.00    +0.109 C 
BRANCH  19  20
ATOM     20  C   UNL     1      -4.878   0.135   0.051  0.00  0.00    +0.052 C 
BRANCH  20  21
ATOM     21  C   UNL     1      -6.173  -0.634   0.060  0.00  0.00    -0.040 C 
ATOM     22  C   UNL     1      -6.913  -0.969   1.142  0.00  0.00    +0.002 A 
ATOM     23  C   UNL     1      -6.738  -0.727   2.579  0.00  0.00    +0.048 A 
ATOM     24  C   UNL     1      -7.669  -1.198   3.442  0.00  0.00    +0.124 A 
ATOM     25  C   UNL     1      -8.794  -1.909   2.997  0.00  0.00    +0.040 A 
ATOM     26  C   UNL     1      -9.022  -2.170   1.692  0.00  0.00    +0.029 A 
ATOM     27  C   UNL     1      -8.108  -1.722   0.699  0.00  0.00    +0.043 A 
ATOM     28  N   UNL     1      -8.108  -1.847  -0.606  0.00  0.00    -0.380 N 
ATOM     29  C   UNL     1      -6.914  -1.182  -1.139  0.00  0.00    +0.144 C 
ATOM     30  F   UNL     1      -7.511  -0.977   4.766  0.00  0.00    -0.205 F 
ATOM     31  H   UNL     1      -8.785  -2.301  -1.131  0.00  0.00    +0.160 HD
ENDBRANCH  20  21
ENDBRANCH  19  20
ENDBRANCH   3  19
TORSDOF 5
