REMARK  Name = ZINC59583861
REMARK  6 active torsions:
REMARK  status: ('A' for Active; 'I' for Inactive)
REMARK    1  A    between atoms: C_1  and  C_2
REMARK    2  A    between atoms: N_6  and  C_14
REMARK    3  A    between atoms: C_14  and  C_15
REMARK    4  A    between atoms: C_15  and  C_16
REMARK    5  A    between atoms: N_18  and  C_19
REMARK    6  A    between atoms: C_26  and  C_29
REMARK                            x       y       z     vdW  Elec       q    Type
REMARK                         _______ _______ _______ _____ _____    ______ ____
ROOT
ATOM      1  C   UNL     1       3.916  -0.328  -4.477  0.00  0.00    +0.219 C 
ATOM      2  O   UNL     1       4.079  -1.511  -4.691  0.00  0.00    -0.275 OA
ATOM      3  N   UNL     1       4.393   0.586  -5.345  0.00  0.00    -0.285 N 
ATOM      4  H   UNL     1       4.206   1.528  -5.210  0.00  0.00    +0.155 HD
ENDROOT
BRANCH   3   5
ATOM      5  C   UNL     1       5.159   0.174  -6.444  0.00  0.00    +0.036 A 
ATOM      6  C   UNL     1       4.864  -1.028  -7.083  0.00  0.00    +0.025 A 
ATOM      7  C   UNL     1       5.609  -1.444  -8.165  0.00  0.00    +0.029 A 
ATOM      8  C   UNL     1       6.661  -0.664  -8.623  0.00  0.00    +0.067 A 
ATOM      9  C   UNL     1       6.966   0.551  -7.985  0.00  0.00    +0.091 A 
ATOM     10  C   UNL     1       6.199   0.966  -6.891  0.00  0.00    +0.053 A 
ATOM     11  N   UNL     1       8.024   1.093  -8.636  0.00  0.00    -0.225 NA
ATOM     12  C   UNL     1       8.388   0.304  -9.621  0.00  0.00    +0.175 A 
ATOM     13  N   UNL     1       7.574  -0.799  -9.655  0.00  0.00    -0.335 N 
ATOM     14  H   UNL     1       7.628  -1.535 -10.284  0.00  0.00    +0.167 HD
BRANCH  12  15
ATOM     15  C   UNL     1       9.500   0.564 -10.547  0.00  0.00    +0.170 A 
ATOM     16  C   UNL     1      10.323   1.650 -10.525  0.00  0.00    +0.053 A 
ATOM     17  C   UNL     1      11.236   1.488 -11.583  0.00  0.00    +0.042 A 
ATOM     18  C   UNL     1      10.932   0.324 -12.194  0.00  0.00    +0.196 A 
ATOM     19  O   UNL     1       9.887  -0.234 -11.563  0.00  0.00    -0.460 OA
ENDBRANCH  12  15
ENDBRANCH   3   5
BRANCH   1  20
ATOM     20  C   UNL     1       3.182   0.120  -3.240  0.00  0.00    +0.115 C 
BRANCH  20  21
ATOM     21  C   UNL     1       2.750  -1.105  -2.431  0.00  0.00    +0.123 C 
BRANCH  21  26
ATOM     22  C   UNL     1      -0.046   1.518  -0.011  0.00  0.00    +0.062 C 
ATOM     23  C   UNL     1      -0.016  -0.011  -0.014  0.00  0.00    +0.256 C 
ATOM     24  C   UNL     1       0.696  -0.497  -1.251  0.00  0.00    +0.260 C 
ATOM     25  O   UNL     1       0.069  -0.732  -2.262  0.00  0.00    -0.271 OA
ATOM     26  N   UNL     1       2.036  -0.669  -1.228  0.00  0.00    -0.265 N 
ATOM     27  C   UNL     1       2.732  -0.424  -0.036  0.00  0.00    +0.078 A 
ATOM     28  C   UNL     1       4.109  -0.275  -0.039  0.00  0.00    +0.027 A 
ATOM     29  C   UNL     1       4.777  -0.035   1.148  0.00  0.00    +0.002 A 
ATOM     30  C   UNL     1       4.074   0.055   2.336  0.00  0.00    +0.004 A 
ATOM     31  C   UNL     1       2.699  -0.093   2.345  0.00  0.00    +0.047 A 
ATOM     32  C   UNL     1       2.024  -0.332   1.161  0.00  0.00    +0.143 A 
ATOM     33  O   UNL     1       0.672  -0.477   1.150  0.00  0.00    -0.478 OA
ENDBRANCH  21  26
ENDBRANCH  20  21
ENDBRANCH   1  20
TORSDOF 5
