REMARK  Name = ZINC20353123
REMARK  7 active torsions:
REMARK  status: ('A' for Active; 'I' for Inactive)
REMARK    1  A    between atoms: C_1  and  C_2
REMARK    2  A    between atoms: C_2  and  O_3
REMARK    3  A    between atoms: O_3  and  C_4
REMARK    4  A    between atoms: C_7  and  N_10
REMARK    5  A    between atoms: N_10  and  C_11
REMARK    6  A    between atoms: C_11  and  N_13
REMARK    7  A    between atoms: C_16  and  C_20
REMARK                            x       y       z     vdW  Elec       q    Type
REMARK                         _______ _______ _______ _____ _____    ______ ____
ROOT
ATOM      1  N   UNL     1      -0.039   0.862  -0.274  0.00  0.00    -0.280 N 
ATOM      2  C   UNL     1       1.187   1.476  -0.564  0.00  0.00    +0.146 A 
ATOM      3  C   UNL     1       2.444   0.861  -0.509  0.00  0.00    +0.073 A 
ATOM      4  C   UNL     1       3.380   1.792  -0.861  0.00  0.00    +0.068 A 
ATOM      5  N   UNL     1       2.719   2.954  -1.127  0.00  0.00    -0.275 N 
ATOM      6  H   UNL     1       3.282   3.850  -1.429  0.00  0.00    +0.189 HD
ATOM      7  N   UNL     1       1.351   2.724  -0.937  0.00  0.00    -0.158 NA
ATOM      8  H   UNL     1      -0.077  -0.216  -0.061  0.00  0.00    +0.155 HD
ENDROOT
BRANCH   4   9
ATOM      9  C   UNL     1       4.842   1.578  -0.939  0.00  0.00    -0.000 A 
ATOM     10  C   UNL     1       5.384   0.330  -0.631  0.00  0.00    +0.011 A 
ATOM     11  C   UNL     1       6.747   0.134  -0.711  0.00  0.00    +0.020 A 
ATOM     12  C   UNL     1       7.578   1.177  -1.084  0.00  0.00    +0.041 A 
ATOM     13  C   UNL     1       7.046   2.419  -1.385  0.00  0.00    +0.020 A 
ATOM     14  C   UNL     1       5.684   2.624  -1.315  0.00  0.00    +0.011 A 
ATOM     15 CL   UNL     1       9.293   0.926  -1.174  0.00  0.00    -0.084 Cl
ENDBRANCH   4   9
BRANCH   1  16
ATOM     16  C   UNL     1      -1.171   1.593  -0.257  0.00  0.00    +0.140 C 
ATOM     17  S   UNL     1      -1.132   3.243  -0.710  0.00  0.00    -0.018 S 
BRANCH  16  18
ATOM     18  N   UNL     1      -2.335   1.024   0.117  0.00  0.00    -0.297 N 
ATOM     19  H   UNL     1      -2.345  -0.008   0.498  0.00  0.00    +0.154 HD
BRANCH  18  23
ATOM     20  C   UNL     1      -5.894   3.177  -0.169  0.00  0.00    +0.121 A 
ATOM     21  C   UNL     1      -4.950   3.261  -1.181  0.00  0.00    +0.047 A 
ATOM     22  C   UNL     1      -3.771   2.548  -1.087  0.00  0.00    +0.027 A 
ATOM     23  C   UNL     1      -3.531   1.747   0.021  0.00  0.00    +0.033 A 
ATOM     24  C   UNL     1      -4.479   1.659   1.032  0.00  0.00    +0.027 A 
ATOM     25  C   UNL     1      -5.655   2.377   0.939  0.00  0.00    +0.047 A 
BRANCH  20  26
ATOM     26  O   UNL     1      -7.055   3.879  -0.262  0.00  0.00    -0.492 OA
BRANCH  26  28
ATOM     27  C   UNL     1      -9.218   4.603   0.536  0.00  0.00    +0.048 C 
ATOM     28  C   UNL     1      -7.982   3.745   0.817  0.00  0.00    +0.225 C 
ENDBRANCH  26  28
ENDBRANCH  20  26
ENDBRANCH  18  23
ENDBRANCH  16  18
ENDBRANCH   1  16
TORSDOF 6
