REMARK  Name = ZINC64439060
REMARK  8 active torsions:
REMARK  status: ('A' for Active; 'I' for Inactive)
REMARK    1  A    between atoms: C_1  and  N_2
REMARK    2  A    between atoms: C_10  and  N_14
REMARK    3  A    between atoms: C_17  and  C_20
REMARK    4  A    between atoms: N_22  and  C_23
REMARK    5  A    between atoms: C_23  and  C_24
REMARK    6  A    between atoms: C_24  and  C_25
REMARK    7  A    between atoms: C_28  and  O_34
REMARK    8  A    between atoms: O_34  and  C_35
REMARK                            x       y       z     vdW  Elec       q    Type
REMARK                         _______ _______ _______ _____ _____    ______ ____
ROOT
ATOM      1  N   UNL     1       1.498  -2.603   1.249  0.00  0.00    +0.398 N 
ATOM      2  C   UNL     1       2.208  -2.084   0.074  0.00  0.00    -0.075 C 
ATOM      3  C   UNL     1       3.691  -2.453   0.165  0.00  0.00    -0.006 C 
ATOM      4  C   UNL     1       3.829  -3.978   0.214  0.00  0.00    +0.071 C 
ATOM      5  C   UNL     1       3.022  -4.516   1.400  0.00  0.00    -0.006 C 
ATOM      6  C   UNL     1       1.565  -4.070   1.263  0.00  0.00    -0.075 C 
ATOM      7  H   UNL     1       1.926  -2.240   2.087  0.00  0.00    -0.078 HD
ENDROOT
BRANCH   1  17
ATOM      8  C   UNL     1      -0.018   1.461   0.010  0.00  0.00    +0.140 C 
ATOM      9  N   UNL     1       0.002  -0.004   0.002  0.00  0.00    -0.258 N 
ATOM     10  C   UNL     1       0.006  -0.686  -1.215  0.00  0.00    +0.148 A 
ATOM     11  C   UNL     1      -0.274  -2.056  -1.233  0.00  0.00    +0.067 A 
ATOM     12  C   UNL     1      -0.280  -2.739  -2.437  0.00  0.00    +0.028 A 
ATOM     13  C   UNL     1       0.001  -2.024  -3.596  0.00  0.00    +0.022 A 
ATOM     14  C   UNL     1       0.273  -0.674  -3.507  0.00  0.00    +0.113 A 
ATOM     15  N   UNL     1       0.269  -0.049  -2.344  0.00  0.00    -0.238 NA
ATOM     16  N   UNL     1      -0.537  -2.711  -0.024  0.00  0.00    -0.346 N 
ATOM     17  C   UNL     1       0.092  -2.180   1.196  0.00  0.00    +0.105 C 
ATOM     18  C   UNL     1       0.022  -0.675   1.169  0.00  0.00    +0.224 C 
ATOM     19  O   UNL     1      -0.021  -0.059   2.213  0.00  0.00    -0.275 OA
ATOM     20  H   UNL     1      -1.115  -3.490   0.009  0.00  0.00    +0.145 HD
ENDBRANCH   1  17
BRANCH   4  21
ATOM     21  C   UNL     1       5.280  -4.347   0.383  0.00  0.00    +0.216 C 
ATOM     22  O   UNL     1       6.122  -3.478   0.457  0.00  0.00    -0.276 OA
ATOM     23  N   UNL     1       5.642  -5.644   0.451  0.00  0.00    -0.315 N 
ATOM     24  H   UNL     1       4.968  -6.339   0.392  0.00  0.00    +0.149 HD
BRANCH  23  25
ATOM     25  C   UNL     1       7.053  -6.003   0.615  0.00  0.00    +0.108 C 
BRANCH  25  26
ATOM     26  C   UNL     1       7.189  -7.526   0.663  0.00  0.00    +0.052 C 
BRANCH  26  27
ATOM     27  C   UNL     1       8.640  -7.895   0.832  0.00  0.00    -0.040 C 
ATOM     28  C   UNL     1       9.280  -8.167   1.991  0.00  0.00    +0.002 A 
ATOM     29  C   UNL     1       8.837  -8.200   3.389  0.00  0.00    +0.055 A 
ATOM     30  C   UNL     1       9.725  -8.513   4.364  0.00  0.00    +0.121 A 
ATOM     31  C   UNL     1      11.070  -8.811   4.086  0.00  0.00    +0.047 A 
ATOM     32  C   UNL     1      11.572  -8.807   2.832  0.00  0.00    +0.029 A 
ATOM     33  C   UNL     1      10.698  -8.482   1.700  0.00  0.00    +0.043 A 
ATOM     34  N   UNL     1      10.925  -8.407   0.412  0.00  0.00    -0.380 N 
ATOM     35  C   UNL     1       9.674  -8.043  -0.262  0.00  0.00    +0.144 C 
ATOM     36  H   UNL     1      11.776  -8.570  -0.023  0.00  0.00    +0.160 HD
BRANCH  30  37
ATOM     37  O   UNL     1       9.300  -8.539   5.655  0.00  0.00    -0.495 OA
ATOM     38  C   UNL     1      10.269  -8.873   6.650  0.00  0.00    +0.277 C 
ENDBRANCH  30  37
ENDBRANCH  26  27
ENDBRANCH  25  26
ENDBRANCH  23  25
ENDBRANCH   4  21
TORSDOF 6
