REMARK  Name = ZINC63073019
REMARK  8 active torsions:
REMARK  status: ('A' for Active; 'I' for Inactive)
REMARK    1  A    between atoms: C_1  and  C_2
REMARK    2  A    between atoms: C_2  and  C_4
REMARK    3  A    between atoms: C_2  and  N_14
REMARK    4  A    between atoms: C_8  and  S_10
REMARK    5  A    between atoms: S_10  and  N_13
REMARK    6  A    between atoms: C_15  and  C_17
REMARK    7  A    between atoms: C_17  and  C_18
REMARK    8  A    between atoms: C_18  and  C_19
REMARK                            x       y       z     vdW  Elec       q    Type
REMARK                         _______ _______ _______ _____ _____    ______ ____
ROOT
ATOM      1  N   UNL     1      -1.372  -0.511   0.012  0.00  0.00    -0.309 N 
ATOM      2  C   UNL     1      -2.051  -0.643  -1.145  0.00  0.00    +0.214 C 
ATOM      3  O   UNL     1      -1.524  -0.341  -2.194  0.00  0.00    -0.276 OA
ATOM      4  H   UNL     1      -1.794  -0.752   0.852  0.00  0.00    +0.149 HD
ENDROOT
BRANCH   1   6
ATOM      5  C   UNL     1      -0.019   1.526   0.010  0.00  0.00    +0.033 C 
ATOM      6  C   UNL     1       0.002  -0.004   0.002  0.00  0.00    +0.100 C 
BRANCH   6   7
ATOM      7  C   UNL     1       0.731  -0.503   1.223  0.00  0.00    -0.026 A 
ATOM      8  C   UNL     1       0.081  -0.558   2.442  0.00  0.00    +0.005 A 
ATOM      9  C   UNL     1       0.749  -1.016   3.562  0.00  0.00    +0.002 A 
ATOM     10  C   UNL     1       2.068  -1.420   3.463  0.00  0.00    +0.028 A 
ATOM     11  C   UNL     1       2.718  -1.365   2.244  0.00  0.00    +0.105 A 
ATOM     12  C   UNL     1       2.048  -0.911   1.123  0.00  0.00    +0.034 A 
BRANCH  11  13
ATOM     13  S   UNL     1       4.399  -1.879   2.118  0.00  0.00    +0.056 S 
ATOM     14  O   UNL     1       4.941  -1.217   0.984  0.00  0.00    -0.153 OA
ATOM     15  O   UNL     1       4.961  -1.749   3.417  0.00  0.00    -0.153 OA
BRANCH  13  16
ATOM     16  N   UNL     1       4.391  -3.496   1.764  0.00  0.00    -0.204 NA
ATOM     17  H   UNL     1       3.549  -3.968   1.668  0.00  0.00    +0.144 HD
ATOM     18  H   UNL     1       5.229  -3.972   1.653  0.00  0.00    +0.144 HD
ENDBRANCH  13  16
ENDBRANCH  11  13
ENDBRANCH   6   7
ENDBRANCH   1   6
BRANCH   2  19
ATOM     19  C   UNL     1      -3.465  -1.164  -1.134  0.00  0.00    +0.100 C 
BRANCH  19  20
ATOM     20  C   UNL     1      -4.000  -1.215  -2.566  0.00  0.00    +0.042 C 
BRANCH  20  21
ATOM     21  C   UNL     1      -5.414  -1.737  -2.555  0.00  0.00    -0.041 C 
ATOM     22  C   UNL     1      -6.551  -1.004  -2.546  0.00  0.00    -0.001 A 
ATOM     23  C   UNL     1      -6.802   0.442  -2.542  0.00  0.00    +0.010 A 
ATOM     24  C   UNL     1      -8.080   0.886  -2.531  0.00  0.00    +0.001 A 
ATOM     25  C   UNL     1      -9.167   0.002  -2.524  0.00  0.00    +0.002 A 
ATOM     26  C   UNL     1      -9.016  -1.340  -2.527  0.00  0.00    +0.026 A 
ATOM     27  C   UNL     1      -7.717  -1.917  -2.538  0.00  0.00    +0.043 A 
ATOM     28  N   UNL     1      -7.316  -3.165  -2.542  0.00  0.00    -0.380 N 
ATOM     29  C   UNL     1      -5.849  -3.185  -2.560  0.00  0.00    +0.144 C 
ATOM     30  H   UNL     1      -7.893  -3.945  -2.539  0.00  0.00    +0.160 HD
ENDBRANCH  20  21
ENDBRANCH  19  20
ENDBRANCH   2  19
TORSDOF 7
