REMARK  Name = ZINC47971587
REMARK  6 active torsions:
REMARK  status: ('A' for Active; 'I' for Inactive)
REMARK    1  A    between atoms: C_1  and  C_2
REMARK    2  A    between atoms: C_5  and  C_7
REMARK    3  A    between atoms: C_7  and  N_8
REMARK    4  A    between atoms: C_9  and  C_11
REMARK    5  A    between atoms: C_17  and  N_24
REMARK    6  A    between atoms: C_21  and  C_23
REMARK                            x       y       z     vdW  Elec       q    Type
REMARK                         _______ _______ _______ _____ _____    ______ ____
ROOT
ATOM      1  C   UNL     1       1.742  -6.151  -3.189  0.00  0.00    +0.306 C 
ATOM      2  O   UNL     1       1.647  -5.695  -2.067  0.00  0.00    -0.265 OA
ATOM      3  N   UNL     1       2.162  -7.418  -3.368  0.00  0.00    -0.260 N 
ATOM      4  C   UNL     1       2.407  -8.333  -2.341  0.00  0.00    +0.040 A 
ATOM      5  C   UNL     1       2.282  -8.167  -0.960  0.00  0.00    +0.026 A 
ATOM      6  C   UNL     1       2.577  -9.208  -0.105  0.00  0.00    +0.034 A 
ATOM      7  C   UNL     1       2.998 -10.425  -0.610  0.00  0.00    +0.127 A 
ATOM      8  C   UNL     1       3.123 -10.597  -1.976  0.00  0.00    +0.038 A 
ATOM      9  C   UNL     1       2.829  -9.556  -2.836  0.00  0.00    -0.022 A 
ATOM     10  C   UNL     1       2.879  -9.473  -4.345  0.00  0.00    +0.059 C 
ATOM     11  C   UNL     1       2.424  -8.040  -4.668  0.00  0.00    +0.083 C 
ATOM     12  C   UNL     1       3.534  -7.287  -5.403  0.00  0.00    +0.029 C 
ENDROOT
BRANCH   1  14
ATOM     13  N   UNL     1       1.084  -4.005  -4.200  0.00  0.00    -0.303 N 
ATOM     14  C   UNL     1       1.391  -5.306  -4.370  0.00  0.00    +0.300 C 
ATOM     15  O   UNL     1       1.383  -5.792  -5.482  0.00  0.00    -0.265 OA
ATOM     16  H   UNL     1       1.091  -3.616  -3.312  0.00  0.00    +0.149 HD
BRANCH  13  17
ATOM     17  C   UNL     1       0.741  -3.176  -5.359  0.00  0.00    +0.147 C 
BRANCH  17  22
ATOM     18  C   UNL     1      -1.317   1.783  -3.554  0.00  0.00    +0.051 C 
ATOM     19  C   UNL     1      -0.538   0.589  -4.042  0.00  0.00    -0.013 A 
ATOM     20  C   UNL     1       0.784   0.488  -4.321  0.00  0.00    +0.011 A 
ATOM     21  C   UNL     1       1.287  -0.722  -4.761  0.00  0.00    +0.013 A 
ATOM     22  C   UNL     1       0.441  -1.772  -4.902  0.00  0.00    +0.007 A 
ATOM     23  S   UNL     1      -1.117  -1.062  -4.397  0.00  0.00    -0.097 S 
ENDBRANCH  17  22
ENDBRANCH  13  17
ENDBRANCH   1  14
BRANCH   7  24
ATOM     24  N   UNL     1       3.313 -11.540   0.310  0.00  0.00    +0.056 N 
ATOM     25  O   UNL     1       3.203 -11.388   1.504  0.00  0.00    -0.126 OA
ATOM     26  O   UNL     1       3.681 -12.604  -0.132  0.00  0.00    -0.126 OA
ENDBRANCH   7  24
TORSDOF 4
