REMARK  Name = ZINC08014673
REMARK  5 active torsions:
REMARK  status: ('A' for Active; 'I' for Inactive)
REMARK    1  A    between atoms: C_1  and  C_2
REMARK    2  A    between atoms: C_5  and  N_8
REMARK    3  A    between atoms: C_10  and  C_15
REMARK    4  A    between atoms: N_17  and  C_18
REMARK    5  A    between atoms: C_27  and  C_30
REMARK                            x       y       z     vdW  Elec       q    Type
REMARK                         _______ _______ _______ _____ _____    ______ ____
ROOT
ATOM      1  C   UNL     1       3.707   6.042   0.730  0.00  0.00    +0.222 C 
ATOM      2  O   UNL     1       4.726   5.450   0.444  0.00  0.00    -0.275 OA
ATOM      3  N   UNL     1       2.517   5.415   0.643  0.00  0.00    -0.285 N 
ATOM      4  H   UNL     1       1.697   5.906   0.809  0.00  0.00    +0.155 HD
ENDROOT
BRANCH   3   5
ATOM      5  C   UNL     1       2.464   4.055   0.313  0.00  0.00    +0.035 A 
ATOM      6  C   UNL     1       1.494   3.240   0.881  0.00  0.00    +0.027 A 
ATOM      7  C   UNL     1       1.438   1.897   0.558  0.00  0.00    +0.049 A 
ATOM      8  C   UNL     1       2.351   1.362  -0.334  0.00  0.00    +0.143 A 
ATOM      9  C   UNL     1       3.326   2.177  -0.906  0.00  0.00    +0.077 A 
ATOM     10  C   UNL     1       3.382   3.522  -0.583  0.00  0.00    +0.050 A 
ATOM     11  N   UNL     1       4.244   1.619  -1.807  0.00  0.00    -0.279 N 
ATOM     12  C   UNL     1       3.982   0.406  -2.341  0.00  0.00    +0.258 C 
ATOM     13  O   UNL     1       4.777  -0.109  -3.100  0.00  0.00    -0.271 OA
ATOM     14  C   UNL     1       2.700  -0.304  -1.991  0.00  0.00    +0.256 C 
ATOM     15  O   UNL     1       2.307   0.042  -0.661  0.00  0.00    -0.478 OA
ATOM     16  C   UNL     1       2.914  -1.816  -2.082  0.00  0.00    +0.062 C 
ATOM     17  H   UNL     1       5.056   2.095  -2.041  0.00  0.00    +0.155 HD
ENDBRANCH   3   5
BRANCH   1  20
ATOM     18  N   UNL     1       5.231   8.834   2.518  0.00  0.00    -0.271 N 
ATOM     19  C   UNL     1       5.236   7.939   1.355  0.00  0.00    +0.127 C 
ATOM     20  C   UNL     1       3.771   7.478   1.183  0.00  0.00    +0.102 C 
ATOM     21  C   UNL     1       3.223   7.629   2.621  0.00  0.00    +0.110 C 
ATOM     22  C   UNL     1       4.115   8.677   3.250  0.00  0.00    +0.221 C 
ATOM     23  O   UNL     1       3.860   9.288   4.266  0.00  0.00    -0.275 OA
BRANCH  18  28
ATOM     24  C   UNL     1       9.391  12.485   3.763  0.00  0.00    +0.044 C 
ATOM     25  C   UNL     1       8.286  11.515   3.432  0.00  0.00    -0.050 A 
ATOM     26  C   UNL     1       8.331  10.794   2.253  0.00  0.00    +0.005 A 
ATOM     27  C   UNL     1       7.320   9.904   1.947  0.00  0.00    +0.024 A 
ATOM     28  C   UNL     1       6.257   9.734   2.825  0.00  0.00    +0.036 A 
ATOM     29  C   UNL     1       6.213  10.463   4.006  0.00  0.00    +0.024 A 
ATOM     30  C   UNL     1       7.229  11.348   4.309  0.00  0.00    +0.005 A 
ENDBRANCH  18  28
ENDBRANCH   1  20
TORSDOF 3
