REMARK  Name = ZINC08383923
REMARK  15 active torsions:
REMARK  status: ('A' for Active; 'I' for Inactive)
REMARK    1  A    between atoms: C_1  and  C_2
REMARK    2  A    between atoms: C_7  and  C_12
REMARK    3  A    between atoms: C_12  and  C_13
REMARK    4  A    between atoms: C_14  and  C_26
REMARK    5  A    between atoms: N_16  and  C_21
REMARK    6  A    between atoms: C_21  and  C_22
REMARK    7  A    between atoms: C_22  and  C_23
REMARK    8  A    between atoms: C_23  and  O_24
REMARK    9  A    between atoms: O_24  and  C_25
REMARK   10  A    between atoms: C_28  and  O_36
REMARK   11  A    between atoms: C_29  and  O_34
REMARK   12  A    between atoms: C_30  and  O_32
REMARK   13  A    between atoms: O_32  and  C_33
REMARK   14  A    between atoms: O_34  and  C_35
REMARK   15  A    between atoms: O_36  and  C_37
REMARK                            x       y       z     vdW  Elec       q    Type
REMARK                         _______ _______ _______ _____ _____    ______ ____
ROOT
ATOM      1  C   UNL     1      -1.840  -6.119   3.213  0.00  0.00    +0.076 C 
ATOM      2  C   UNL     1      -0.501  -6.079   3.912  0.00  0.00    +0.145 C 
ATOM      3  N   UNL     1      -0.374  -7.355   4.626  0.00  0.00    -0.283 N 
ATOM      4  C   UNL     1      -1.487  -8.073   4.391  0.00  0.00    +0.288 C 
ATOM      5  O   UNL     1      -1.708  -9.182   4.834  0.00  0.00    -0.266 OA
ATOM      6  C   UNL     1      -2.405  -7.310   3.519  0.00  0.00    +0.249 C 
ATOM      7  O   UNL     1      -3.617  -7.735   3.093  0.00  0.00    -0.282 OA
ENDROOT
BRANCH   2   8
ATOM      8  C   UNL     1       0.607  -5.938   2.901  0.00  0.00    -0.015 A 
ATOM      9  C   UNL     1       0.968  -7.019   2.119  0.00  0.00    +0.055 A 
ATOM     10  C   UNL     1       1.988  -6.894   1.188  0.00  0.00    +0.165 A 
ATOM     11  C   UNL     1       2.647  -5.679   1.040  0.00  0.00    +0.204 A 
ATOM     12  C   UNL     1       2.281  -4.595   1.828  0.00  0.00    +0.165 A 
ATOM     13  C   UNL     1       1.256  -4.726   2.753  0.00  0.00    +0.055 A 
BRANCH  12  14
ATOM     14  O   UNL     1       2.922  -3.404   1.688  0.00  0.00    -0.491 OA
ATOM     15  C   UNL     1       2.413  -2.300   2.439  0.00  0.00    +0.277 C 
ENDBRANCH  12  14
BRANCH  11  16
ATOM     16  O   UNL     1       3.649  -5.553   0.128  0.00  0.00    -0.488 OA
ATOM     17  C   UNL     1       3.278  -5.139  -1.189  0.00  0.00    +0.277 C 
ENDBRANCH  11  16
BRANCH  10  18
ATOM     18  O   UNL     1       2.343  -7.959   0.419  0.00  0.00    -0.491 OA
ATOM     19  C   UNL     1       1.623  -9.176   0.625  0.00  0.00    +0.277 C 
ENDBRANCH  10  18
ENDBRANCH   2   8
BRANCH   1  20
ATOM     20  C   UNL     1      -2.418  -5.067   2.370  0.00  0.00    +0.195 C 
ATOM     21  O   UNL     1      -2.593  -5.266   1.182  0.00  0.00    -0.287 OA
BRANCH  20  27
ATOM     22  C   UNL     1      -5.047   1.790   3.320  0.00  0.00    +0.052 C 
ATOM     23  C   UNL     1      -3.910   0.769   3.254  0.00  0.00    +0.175 C 
ATOM     24  C   UNL     1      -4.148  -0.243   2.109  0.00  0.00    +0.083 C 
ATOM     25  C   UNL     1      -3.614  -1.529   2.712  0.00  0.00    -0.002 A 
ATOM     26  C   UNL     1      -3.272  -2.734   2.151  0.00  0.00    +0.019 A 
ATOM     27  C   UNL     1      -2.789  -3.767   2.963  0.00  0.00    +0.023 A 
ATOM     28  C   UNL     1      -2.660  -3.557   4.339  0.00  0.00    +0.015 A 
ATOM     29  C   UNL     1      -3.010  -2.348   4.890  0.00  0.00    +0.046 A 
ATOM     30  C   UNL     1      -3.495  -1.317   4.082  0.00  0.00    +0.124 A 
ATOM     31  O   UNL     1      -3.906  -0.064   4.426  0.00  0.00    -0.488 OA
ENDBRANCH  20  27
ENDBRANCH   1  20
BRANCH   3  32
ATOM     32  C   UNL     1       0.764  -7.773   5.448  0.00  0.00    +0.111 C 
BRANCH  32  33
ATOM     33  C   UNL     1       0.536  -7.331   6.896  0.00  0.00    +0.047 C 
BRANCH  33  34
ATOM     34  C   UNL     1       1.725  -7.768   7.755  0.00  0.00    +0.161 C 
BRANCH  34  35
ATOM     35  O   UNL     1       1.512  -7.355   9.106  0.00  0.00    -0.383 OA
ATOM     36  C   UNL     1       2.570  -7.716   9.997  0.00  0.00    +0.193 C 
ENDBRANCH  34  35
ENDBRANCH  33  34
ENDBRANCH  32  33
ENDBRANCH   3  32
TORSDOF 10
