REMARK  Name = ZINC40064078
REMARK  9 active torsions:
REMARK  status: ('A' for Active; 'I' for Inactive)
REMARK    1  A    between atoms: C_1  and  C_2
REMARK    2  A    between atoms: C_2  and  C_3
REMARK    3  A    between atoms: C_3  and  N_4
REMARK    4  A    between atoms: C_5  and  C_22
REMARK    5  A    between atoms: C_13  and  C_21
REMARK    6  A    between atoms: C_14  and  C_20
REMARK    7  A    between atoms: C_25  and  O_30
REMARK    8  A    between atoms: C_26  and  O_28
REMARK    9  A    between atoms: O_28  and  C_29
REMARK                            x       y       z     vdW  Elec       q    Type
REMARK                         _______ _______ _______ _____ _____    ______ ____
ROOT
ATOM      1  N   UNL     1       0.762  -1.976   1.234  0.00  0.00    -0.284 N 
ATOM      2  C   UNL     1      -0.255  -2.858   1.829  0.00  0.00    +0.145 C 
ATOM      3  C   UNL     1       0.209  -4.252   1.564  0.00  0.00    +0.072 A 
ATOM      4  C   UNL     1      -0.375  -5.550   1.920  0.00  0.00    +0.199 A 
ATOM      5  O   UNL     1      -1.496  -5.673   2.380  0.00  0.00    -0.287 OA
ATOM      6  C   UNL     1       0.530  -6.699   1.665  0.00  0.00    +0.065 A 
ATOM      7  C   UNL     1       0.203  -7.972   2.131  0.00  0.00    +0.015 A 
ATOM      8  C   UNL     1       1.050  -9.019   1.893  0.00  0.00    +0.004 A 
ATOM      9  C   UNL     1       2.230  -8.818   1.191  0.00  0.00    -0.044 A 
ATOM     10  C   UNL     1       2.567  -7.568   0.722  0.00  0.00    -0.005 A 
ATOM     11  C   UNL     1       1.719  -6.484   0.950  0.00  0.00    +0.143 A 
ATOM     12  O   UNL     1       2.066  -5.267   0.472  0.00  0.00    -0.449 OA
ATOM     13  C   UNL     1       1.385  -4.175   0.873  0.00  0.00    +0.199 A 
ATOM     14  C   UNL     1       1.712  -2.752   0.674  0.00  0.00    +0.283 C 
ATOM     15  O   UNL     1       2.696  -2.339   0.093  0.00  0.00    -0.267 OA
ATOM     16  C   UNL     1       3.854  -7.371  -0.037  0.00  0.00    +0.048 C 
ATOM     17  C   UNL     1       3.153  -9.981   0.939  0.00  0.00    +0.044 C 
ENDROOT
BRANCH   2  18
ATOM     18  C   UNL     1      -0.351  -2.613   3.313  0.00  0.00    -0.019 A 
ATOM     19  C   UNL     1       0.797  -2.392   4.051  0.00  0.00    +0.009 A 
ATOM     20  C   UNL     1       0.715  -2.168   5.412  0.00  0.00    +0.049 A 
ATOM     21  C   UNL     1      -0.520  -2.163   6.040  0.00  0.00    +0.158 A 
ATOM     22  C   UNL     1      -1.676  -2.385   5.298  0.00  0.00    +0.162 A 
ATOM     23  C   UNL     1      -1.587  -2.605   3.932  0.00  0.00    +0.055 A 
BRANCH  22  24
ATOM     24  O   UNL     1      -2.890  -2.382   5.909  0.00  0.00    -0.491 OA
ATOM     25  C   UNL     1      -4.033  -2.617   5.084  0.00  0.00    +0.277 C 
ENDBRANCH  22  24
BRANCH  21  26
ATOM     26  O   UNL     1      -0.603  -1.943   7.380  0.00  0.00    -0.503 OA
ATOM     27  H   UNL     1      -0.699  -1.011   7.620  0.00  0.00    +0.292 HD
ENDBRANCH  21  26
ENDBRANCH   2  18
BRANCH   1  28
ATOM     28  C   UNL     1       0.742  -0.511   1.242  0.00  0.00    +0.109 C 
BRANCH  28  30
ATOM     29  C   UNL     1      -0.019   1.526   0.010  0.00  0.00    +0.005 C 
ATOM     30  C   UNL     1       0.002  -0.004   0.002  0.00  0.00    +0.016 C 
ENDBRANCH  28  30
ENDBRANCH   1  28
TORSDOF 5
