REMARK  Name = ZINC04476450
REMARK  1 active torsions:
REMARK  status: ('A' for Active; 'I' for Inactive)
REMARK    1  A    between atoms: N_17  and  O_18
REMARK                            x       y       z     vdW  Elec       q    Type
REMARK                         _______ _______ _______ _____ _____    ______ ____
ROOT
ATOM      1  C   UNL     1       5.106   5.543  -0.234  0.00  0.00    +0.001 C 
ATOM      2  C   UNL     1       4.134   5.885  -1.366  0.00  0.00    +0.004 C 
ATOM      3  C   UNL     1       2.741   5.360  -1.014  0.00  0.00    +0.045 C 
ATOM      4  C   UNL     1       2.793   3.841  -0.835  0.00  0.00    +0.176 C 
ATOM      5  C   UNL     1       3.772   3.496   0.297  0.00  0.00    +0.034 C 
ATOM      6  C   UNL     1       5.163   4.025  -0.056  0.00  0.00    +0.007 C 
ATOM      7  C   UNL     1       3.829   1.970   0.412  0.00  0.00    +0.047 C 
ATOM      8  C   UNL     1       2.432   1.400   0.425  0.00  0.00    +0.015 C 
ATOM      9  C   UNL     1       1.377   2.097   0.000  0.00  0.00    +0.103 C 
ATOM     10  O   UNL     1       1.501   3.369  -0.456  0.00  0.00    -0.492 OA
ATOM     11  C   UNL     1      -0.019   1.520   0.010  0.00  0.00    +0.074 C 
ATOM     12  C   UNL     1       0.002  -0.004   0.002  0.00  0.00    +0.014 C 
ATOM     13  C   UNL     1       0.869  -0.490   1.173  0.00  0.00    +0.059 C 
ATOM     14  C   UNL     1       2.269   0.024   0.924  0.00  0.00    +0.086 C 
ATOM     15  N   UNL     1       3.303  -0.729   1.145  0.00  0.00    -0.092 NA
ENDROOT
BRANCH  15  16
ATOM     16  O   UNL     1       3.127  -2.050   1.624  0.00  0.00    -0.409 OA
ATOM     17  H   UNL     1       3.954  -2.533   1.757  0.00  0.00    +0.328 HD
ENDBRANCH  15  16
TORSDOF 1
