REMARK  Name = ZINC12420060
REMARK  9 active torsions:
REMARK  status: ('A' for Active; 'I' for Inactive)
REMARK    1  A    between atoms: C_1  and  C_2
REMARK    2  A    between atoms: C_5  and  C_27
REMARK    3  A    between atoms: C_9  and  C_10
REMARK    4  A    between atoms: C_9  and  N_54
REMARK    5  A    between atoms: C_10  and  C_12
REMARK    6  A    between atoms: C_10  and  O_26
REMARK    7  A    between atoms: C_12  and  O_13
REMARK    8  A    between atoms: O_13  and  C_14
REMARK    9  A    between atoms: C_19  and  C_20
REMARK                            x       y       z     vdW  Elec       q    Type
REMARK                         _______ _______ _______ _____ _____    ______ ____
ROOT
ATOM      1  C   UNL     1      -3.171   6.827   0.959  0.00  0.00    +0.258 C 
ENDROOT
BRANCH   1   2
ATOM      2  C   UNL     1      -2.768   5.359   1.113  0.00  0.00    +0.135 C 
BRANCH   2   3
ATOM      3  O   UNL     1      -2.206   5.153   2.410  0.00  0.00    -0.390 OA
ATOM      4  H   UNL     1      -1.417   5.685   2.586  0.00  0.00    +0.210 HD
ENDBRANCH   2   3
BRANCH   2   5
ATOM      5  C   UNL     1      -1.734   5.000   0.044  0.00  0.00    -0.044 C 
BRANCH   5  13
ATOM      6  C   UNL     1      -3.253   0.388  -0.738  0.00  0.00    +0.005 C 
ATOM      7  C   UNL     1      -2.147   1.262  -0.143  0.00  0.00    -0.031 C 
ATOM      8  C   UNL     1      -0.809   0.911  -0.800  0.00  0.00    +0.003 C 
ATOM      9  C   UNL     1       0.282   1.831  -0.244  0.00  0.00    -0.031 C 
ATOM     10  C   UNL     1      -0.109   3.289  -0.498  0.00  0.00    -0.076 C 
ATOM     11  C   UNL     1      -2.466   2.736  -0.401  0.00  0.00    -0.076 C 
ATOM     12  C   UNL     1       0.428   1.598   1.261  0.00  0.00    +0.005 C 
ATOM     13  N   UNL     1      -1.392   3.569   0.181  0.00  0.00    +0.382 N 
ATOM     14  H   UNL     1      -1.298   3.342   1.178  0.00  0.00    -0.082 HD
ENDBRANCH   5  13
ENDBRANCH   2   5
ENDBRANCH   1   2
BRANCH   1  15
ATOM     15  O   UNL     1      -4.220   7.133   1.879  0.00  0.00    -0.489 OA
BRANCH  15  16
ATOM     16  C   UNL     1      -4.697   8.405   1.872  0.00  0.00    +0.128 A 
ATOM     17  C   UNL     1      -4.163   9.342   1.002  0.00  0.00    +0.046 A 
ATOM     18  C   UNL     1      -4.652  10.635   0.992  0.00  0.00    +0.004 A 
ATOM     19  C   UNL     1      -5.668  11.003   1.856  0.00  0.00    +0.001 A 
ATOM     20  C   UNL     1      -6.205  10.081   2.731  0.00  0.00    +0.012 A 
ATOM     21  C   UNL     1      -5.723   8.774   2.746  0.00  0.00    +0.024 A 
BRANCH  21  22
ATOM     22  C   UNL     1      -6.298   7.779   3.684  0.00  0.00    -0.014 A 
ATOM     23  C   UNL     1      -6.716   6.536   3.215  0.00  0.00    +0.008 A 
ATOM     24  C   UNL     1      -7.244   5.611   4.093  0.00  0.00    +0.001 A 
ATOM     25  C   UNL     1      -7.369   5.922   5.436  0.00  0.00    +0.000 A 
ATOM     26  C   UNL     1      -6.961   7.157   5.906  0.00  0.00    +0.001 A 
ATOM     27  C   UNL     1      -6.426   8.087   5.037  0.00  0.00    +0.008 A 
ENDBRANCH  21  22
ENDBRANCH  15  16
ENDBRANCH   1  15
TORSDOF 7
