REMARK  Name = ZINC50361670
REMARK  8 active torsions:
REMARK  status: ('A' for Active; 'I' for Inactive)
REMARK    1  A    between atoms: C_1  and  C_2
REMARK    2  A    between atoms: C_2  and  N_3
REMARK    3  A    between atoms: N_3  and  C_4
REMARK    4  A    between atoms: N_3  and  C_11
REMARK    5  A    between atoms: C_9  and  C_10
REMARK    6  A    between atoms: C_11  and  C_13
REMARK    7  A    between atoms: C_11  and  C_15
REMARK    8  A    between atoms: C_13  and  N_14
REMARK                            x       y       z     vdW  Elec       q    Type
REMARK                         _______ _______ _______ _____ _____    ______ ____
ROOT
ATOM      1  C   UNL     1      -0.110  -0.715  -2.563  0.00  0.00    +0.122 C 
ENDROOT
BRANCH   1   2
ATOM      2  C   UNL     1      -1.158  -1.786  -2.405  0.00  0.00    +0.126 A 
ATOM      3  C   UNL     1      -1.315  -2.855  -3.206  0.00  0.00    +0.063 A 
ATOM      4  C   UNL     1      -2.409  -3.592  -2.694  0.00  0.00    +0.070 A 
ATOM      5  C   UNL     1      -2.854  -2.928  -1.611  0.00  0.00    +0.184 A 
ATOM      6  O   UNL     1      -2.089  -1.837  -1.438  0.00  0.00    -0.450 OA
ATOM      7 BR   UNL     1      -4.306  -3.446  -0.515  0.00  0.00    -0.007 Br
ATOM      8 BR   UNL     1      -3.111  -5.201  -3.397  0.00  0.00    -0.046 Br
ENDBRANCH   1   2
BRANCH   1   9
ATOM      9  N   UNL     1       0.412  -0.344  -1.245  0.00  0.00    -0.322 N 
BRANCH   9  10
ATOM     10  C   UNL     1       1.759  -0.555  -0.942  0.00  0.00    +0.033 A 
ATOM     11  C   UNL     1       2.700   0.425  -1.234  0.00  0.00    +0.023 A 
ATOM     12  C   UNL     1       4.031   0.213  -0.932  0.00  0.00    +0.002 A 
ATOM     13  C   UNL     1       4.427  -0.973  -0.341  0.00  0.00    +0.000 A 
ATOM     14  C   UNL     1       3.493  -1.950  -0.050  0.00  0.00    +0.005 A 
ATOM     15  C   UNL     1       2.159  -1.742  -0.343  0.00  0.00    -0.029 A 
ATOM     16  C   UNL     1       1.141  -2.805  -0.019  0.00  0.00    +0.045 C 
ENDBRANCH   9  10
BRANCH   9  18
ATOM     17  C   UNL     1      -0.472   1.772  -0.394  0.00  0.00    +0.024 C 
ATOM     18  C   UNL     1      -0.480   0.249  -0.245  0.00  0.00    +0.102 C 
ENDBRANCH   9  18
ENDBRANCH   1   9
BRANCH   1  19
ATOM     19  C   UNL     1      -0.732   0.514  -3.230  0.00  0.00    -0.056 C 
BRANCH  19  20
ATOM     20  N   UNL     1       0.282   1.568  -3.358  0.00  0.00    +0.380 N 
ATOM     21  H   UNL     1       0.998   1.270  -4.004  0.00  0.00    -0.090 HD
ATOM     22  H   UNL     1      -0.151   2.412  -3.702  0.00  0.00    -0.090 HD
ATOM     23  H   UNL     1       0.698   1.747  -2.456  0.00  0.00    -0.090 HD
ENDBRANCH  19  20
ENDBRANCH   1  19
TORSDOF 6
