REMARK  Name = ZINC01420982
REMARK  7 active torsions:
REMARK  status: ('A' for Active; 'I' for Inactive)
REMARK    1  A    between atoms: C_1  and  O_2
REMARK    2  A    between atoms: O_2  and  C_3
REMARK    3  A    between atoms: C_3  and  C_5
REMARK    4  A    between atoms: C_6  and  N_26
REMARK    5  A    between atoms: C_12  and  C_24
REMARK    6  A    between atoms: C_15  and  C_17
REMARK    7  A    between atoms: C_24  and  O_25
REMARK                            x       y       z     vdW  Elec       q    Type
REMARK                         _______ _______ _______ _____ _____    ______ ____
ROOT
ATOM      1  C   UNL     1      -1.247  -2.035   0.008  0.00  0.00    +0.108 C 
ATOM      2  C   UNL     1      -2.450  -2.659   0.109  0.00  0.00    +0.196 C 
ATOM      3  O   UNL     1      -2.540  -3.999   0.100  0.00  0.00    -0.435 OA
ATOM      4  C   UNL     1      -1.452  -4.752   0.392  0.00  0.00    +0.215 A 
ATOM      5  C   UNL     1      -1.633  -6.107   0.794  0.00  0.00    +0.228 A 
ATOM      6  O   UNL     1      -2.749  -6.595   0.878  0.00  0.00    -0.284 OA
ATOM      7  C   UNL     1      -0.477  -6.871   1.092  0.00  0.00    +0.098 A 
ATOM      8  C   UNL     1       0.732  -6.285   0.984  0.00  0.00    +0.134 A 
ATOM      9  O   UNL     1       0.865  -5.014   0.607  0.00  0.00    -0.457 OA
ATOM     10  C   UNL     1      -0.201  -4.254   0.311  0.00  0.00    +0.163 A 
ATOM     11  C   UNL     1       0.025  -2.825  -0.122  0.00  0.00    +0.131 C 
ENDROOT
BRANCH  11  12
ATOM     12  C   UNL     1       0.482  -2.800  -1.558  0.00  0.00    -0.032 A 
ATOM     13  C   UNL     1      -0.336  -3.304  -2.552  0.00  0.00    +0.006 A 
ATOM     14  C   UNL     1       0.084  -3.281  -3.869  0.00  0.00    +0.015 A 
ATOM     15  C   UNL     1       1.321  -2.755  -4.192  0.00  0.00    +0.018 A 
ATOM     16  C   UNL     1       2.139  -2.251  -3.197  0.00  0.00    +0.015 A 
ATOM     17  C   UNL     1       1.717  -2.269  -1.881  0.00  0.00    +0.006 A 
ATOM     18 BR   UNL     1       1.895  -2.724  -5.994  0.00  0.00    -0.050 Br
ENDBRANCH  11  12
BRANCH   2  19
ATOM     19  N   UNL     1      -3.590  -1.909   0.220  0.00  0.00    -0.329 N 
ATOM     20  H   UNL     1      -3.543  -0.943   0.150  0.00  0.00    +0.145 HD
ATOM     21  H   UNL     1      -4.444  -2.344   0.369  0.00  0.00    +0.145 HD
ENDBRANCH   2  19
BRANCH   1  22
ATOM     22  C   UNL     1      -1.192  -0.634   0.020  0.00  0.00    +0.341 C 
ATOM     23  O   UNL     1      -0.870  -0.045   1.037  0.00  0.00    -0.245 OA
BRANCH  22  25
ATOM     24  C   UNL     1      -1.420   1.488  -1.012  0.00  0.00    +0.280 C 
ATOM     25  O   UNL     1      -1.497   0.064  -1.096  0.00  0.00    -0.465 OA
ENDBRANCH  22  25
ENDBRANCH   1  22
BRANCH   8  26
ATOM     26  C   UNL     1       1.966  -7.090   1.300  0.00  0.00    +0.230 C 
BRANCH  26  27
ATOM     27  O   UNL     1       1.588  -8.414   1.680  0.00  0.00    -0.387 OA
ATOM     28  H   UNL     1       2.335  -8.989   1.897  0.00  0.00    +0.210 HD
ENDBRANCH  26  27
ENDBRANCH   8  26
TORSDOF 6
