REMARK  Name = ZINC04758391
REMARK  11 active torsions:
REMARK  status: ('A' for Active; 'I' for Inactive)
REMARK    1  A    between atoms: C_1  and  C_2
REMARK    2  A    between atoms: N_4  and  C_5
REMARK    3  A    between atoms: C_7  and  O_39
REMARK    4  A    between atoms: C_9  and  O_38
REMARK    5  A    between atoms: C_11  and  C_17
REMARK    6  A    between atoms: C_14  and  O_16
REMARK    7  A    between atoms: C_17  and  O_18
REMARK    8  A    between atoms: O_18  and  C_19
REMARK    9  A    between atoms: C_19  and  C_20
REMARK   10  A    between atoms: C_19  and  C_26
REMARK   11  A    between atoms: C_19  and  C_32
REMARK                            x       y       z     vdW  Elec       q    Type
REMARK                         _______ _______ _______ _____ _____    ______ ____
ROOT
ATOM      1  O   UNL     1      -0.397   1.873   1.364  0.00  0.00    -0.357 OA
ENDROOT
BRANCH   1   2
ATOM      2  C   UNL     1      -0.048   1.739  -0.015  0.00  0.00    +0.196 C 
BRANCH   2   6
ATOM      3  C   UNL     1      -3.018   2.540  -2.985  0.00  0.00    +0.160 C 
ATOM      4  C   UNL     1      -1.650   3.196  -3.197  0.00  0.00    +0.171 C 
ATOM      5  C   UNL     1      -0.610   2.472  -2.338  0.00  0.00    +0.176 C 
ATOM      6  C   UNL     1      -1.052   2.512  -0.873  0.00  0.00    +0.178 C 
ATOM      7  O   UNL     1      -2.344   1.914  -0.750  0.00  0.00    -0.341 OA
ATOM      8  C   UNL     1      -3.367   2.577  -1.495  0.00  0.00    +0.270 C 
BRANCH   3  12
ATOM      9  C   UNL     1      -3.142  -0.574  -5.208  0.00  0.00    +0.109 C 
ATOM     10  C   UNL     1      -3.192   0.857  -4.738  0.00  0.00    +0.210 C 
ATOM     11  O   UNL     1      -3.432   1.746  -5.527  0.00  0.00    -0.276 OA
ATOM     12  N   UNL     1      -2.970   1.149  -3.441  0.00  0.00    -0.305 N 
ATOM     13  H   UNL     1      -2.778   0.437  -2.810  0.00  0.00    +0.149 HD
ENDBRANCH   3  12
BRANCH   8  14
ATOM     14  O   UNL     1      -4.616   1.917  -1.281  0.00  0.00    -0.365 OA
ATOM     15  H   UNL     1      -4.901   1.902  -0.357  0.00  0.00    +0.213 HD
ENDBRANCH   8  14
BRANCH   5  16
ATOM     16  O   UNL     1      -0.499   1.113  -2.766  0.00  0.00    -0.387 OA
ATOM     17  H   UNL     1       0.141   0.592  -2.261  0.00  0.00    +0.210 HD
ENDBRANCH   5  16
BRANCH   4  18
ATOM     18  O   UNL     1      -1.715   4.571  -2.813  0.00  0.00    -0.387 OA
ATOM     19  H   UNL     1      -0.882   5.049  -2.921  0.00  0.00    +0.210 HD
ENDBRANCH   4  18
ENDBRANCH   2   6
ENDBRANCH   1   2
BRANCH   1  20
ATOM     20  C   UNL     1       0.482   1.184   2.256  0.00  0.00    +0.144 C 
BRANCH  20  21
ATOM     21  C   UNL     1       0.471  -0.288   1.935  0.00  0.00    -0.007 A 
ATOM     22  C   UNL     1       1.457  -0.828   1.131  0.00  0.00    +0.007 A 
ATOM     23  C   UNL     1       1.449  -2.180   0.841  0.00  0.00    +0.000 A 
ATOM     24  C   UNL     1       0.449  -2.990   1.346  0.00  0.00    +0.000 A 
ATOM     25  C   UNL     1      -0.540  -2.449   2.145  0.00  0.00    +0.000 A 
ATOM     26  C   UNL     1      -0.530  -1.098   2.440  0.00  0.00    +0.007 A 
ENDBRANCH  20  21
BRANCH  20  27
ATOM     27  C   UNL     1       1.881   1.722   2.097  0.00  0.00    -0.007 A 
ATOM     28  C   UNL     1       2.956   1.008   2.592  0.00  0.00    +0.007 A 
ATOM     29  C   UNL     1       4.240   1.499   2.442  0.00  0.00    +0.000 A 
ATOM     30  C   UNL     1       4.447   2.709   1.806  0.00  0.00    +0.000 A 
ATOM     31  C   UNL     1       3.371   3.425   1.315  0.00  0.00    +0.000 A 
ATOM     32  C   UNL     1       2.088   2.932   1.460  0.00  0.00    +0.007 A 
ENDBRANCH  20  27
BRANCH  20  33
ATOM     33  C   UNL     1       0.022   1.393   3.675  0.00  0.00    -0.007 A 
ATOM     34  C   UNL     1       0.252   0.416   4.627  0.00  0.00    +0.007 A 
ATOM     35  C   UNL     1      -0.166   0.609   5.930  0.00  0.00    +0.000 A 
ATOM     36  C   UNL     1      -0.823   1.774   6.280  0.00  0.00    +0.000 A 
ATOM     37  C   UNL     1      -1.057   2.749   5.327  0.00  0.00    +0.000 A 
ATOM     38  C   UNL     1      -0.634   2.558   4.025  0.00  0.00    +0.007 A 
ENDBRANCH  20  33
ENDBRANCH   1  20
TORSDOF 10
