REMARK  Name = ZINC20080451
REMARK  9 active torsions:
REMARK  status: ('A' for Active; 'I' for Inactive)
REMARK    1  A    between atoms: C_1  and  C_2
REMARK    2  A    between atoms: C_2  and  O_3
REMARK    3  A    between atoms: O_3  and  C_4
REMARK    4  A    between atoms: C_11  and  C_16
REMARK    5  A    between atoms: C_16  and  C_18
REMARK    6  A    between atoms: C_16  and  N_30
REMARK    7  A    between atoms: N_22  and  C_23
REMARK    8  A    between atoms: C_23  and  C_24
REMARK    9  A    between atoms: N_33  and  C_36
REMARK                            x       y       z     vdW  Elec       q    Type
REMARK                         _______ _______ _______ _____ _____    ______ ____
ROOT
ATOM      1  C   UNL     1       3.034  -6.309   4.957  0.00  0.00    +0.162 C 
ENDROOT
BRANCH   1   9
ATOM      2  C   UNL     1       0.802  -1.825   1.306  0.00  0.00    +0.121 A 
ATOM      3  C   UNL     1       0.246  -2.673   0.350  0.00  0.00    +0.047 A 
ATOM      4  C   UNL     1       0.351  -4.040   0.479  0.00  0.00    +0.030 A 
ATOM      5  C   UNL     1       1.008  -4.586   1.577  0.00  0.00    +0.049 A 
ATOM      6  C   UNL     1       1.567  -3.733   2.547  0.00  0.00    +0.002 A 
ATOM      7  C   UNL     1       1.458  -2.346   2.403  0.00  0.00    +0.055 A 
ATOM      8  C   UNL     1       2.256  -4.321   3.697  0.00  0.00    +0.021 A 
ATOM      9  C   UNL     1       2.332  -5.672   3.786  0.00  0.00    +0.042 A 
ATOM     10  C   UNL     1       1.755  -6.484   2.786  0.00  0.00    +0.254 A 
ATOM     11  O   UNL     1       1.835  -7.696   2.885  0.00  0.00    -0.268 OA
ATOM     12  N   UNL     1       1.121  -5.953   1.726  0.00  0.00    -0.322 N 
ATOM     13  H   UNL     1       0.687  -6.626   0.972  0.00  0.00    +0.169 HD
BRANCH   2  14
ATOM     14  O   UNL     1       0.693  -0.477   1.160  0.00  0.00    -0.492 OA
BRANCH  14  16
ATOM     15  C   UNL     1      -0.019   1.526   0.010  0.00  0.00    +0.048 C 
ATOM     16  C   UNL     1       0.002  -0.004   0.002  0.00  0.00    +0.225 C 
ENDBRANCH  14  16
ENDBRANCH   2  14
ENDBRANCH   1   9
BRANCH   1  17
ATOM     17  N   UNL     1       2.124  -7.253   5.620  0.00  0.00    -0.292 NA
ATOM     18  C   UNL     1       0.880  -6.586   6.029  0.00  0.00    +0.067 C 
ATOM     19  C   UNL     1      -0.071  -7.617   6.642  0.00  0.00    -0.063 C 
ATOM     20  N   UNL     1       0.582  -8.258   7.792  0.00  0.00    +0.383 N 
ATOM     21  C   UNL     1       1.825  -8.926   7.383  0.00  0.00    -0.063 C 
ATOM     22  C   UNL     1       2.776  -7.895   6.770  0.00  0.00    +0.067 C 
ATOM     23  H   UNL     1       0.840  -7.474   8.518  0.00  0.00    -0.081 HD
BRANCH  20  24
ATOM     24  C   UNL     1      -0.329  -9.202   8.454  0.00  0.00    -0.068 C 
ATOM     25  C   UNL     1      -0.675 -10.338   7.490  0.00  0.00    -0.015 C 
ATOM     26  C   UNL     1      -1.623 -11.321   8.181  0.00  0.00    -0.002 C 
ATOM     27  C   UNL     1      -2.904 -10.592   8.591  0.00  0.00    -0.000 C 
ATOM     28  C   UNL     1      -2.557  -9.455   9.555  0.00  0.00    -0.002 C 
ATOM     29  C   UNL     1      -1.609  -8.473   8.865  0.00  0.00    -0.015 C 
ENDBRANCH  20  24
ENDBRANCH   1  17
BRANCH   1  30
ATOM     30  C   UNL     1       4.255  -7.047   4.471  0.00  0.00    +0.173 A 
ATOM     31  N   UNL     1       4.276  -8.198   3.844  0.00  0.00    -0.111 NA
ATOM     32  N   UNL     1       5.505  -8.493   3.594  0.00  0.00    -0.023 NA
ATOM     33  N   UNL     1       6.269  -7.563   4.052  0.00  0.00    -0.044 NA
ATOM     34  N   UNL     1       5.536  -6.654   4.600  0.00  0.00    -0.225 N 
BRANCH  34  35
ATOM     35  C   UNL     1       6.008  -5.425   5.241  0.00  0.00    +0.179 C 
BRANCH  35  36
ATOM     36  C   UNL     1       6.258  -5.688   6.727  0.00  0.00    +0.140 C 
ATOM     37  C   UNL     1       6.645  -4.372   7.435  0.00  0.00    +0.035 C 
ATOM     38  C   UNL     1       7.749  -4.840   8.422  0.00  0.00    +0.031 C 
ATOM     39  C   UNL     1       8.423  -5.965   7.596  0.00  0.00    +0.160 C 
ATOM     40  O   UNL     1       7.351  -6.601   6.882  0.00  0.00    -0.375 OA
ENDBRANCH  35  36
ENDBRANCH  34  35
ENDBRANCH   1  30
TORSDOF 8
