REMARK  Name = ZINC08716051
REMARK  6 active torsions:
REMARK  status: ('A' for Active; 'I' for Inactive)
REMARK    1  A    between atoms: C_1  and  C_2
REMARK    2  A    between atoms: C_9  and  C_14
REMARK    3  A    between atoms: C_14  and  O_15
REMARK    4  A    between atoms: O_15  and  C_16
REMARK    5  A    between atoms: C_16  and  C_18
REMARK    6  A    between atoms: C_27  and  C_30
REMARK                            x       y       z     vdW  Elec       q    Type
REMARK                         _______ _______ _______ _____ _____    ______ ____
ROOT
ATOM      1  O   UNL     1       4.194   7.038  -0.946  0.00  0.00    -0.456 OA
ENDROOT
BRANCH   1   2
ATOM      2  C   UNL     1       4.002   5.704  -0.938  0.00  0.00    +0.340 C 
ATOM      3  O   UNL     1       4.882   4.961  -1.326  0.00  0.00    -0.245 OA
BRANCH   2   4
ATOM      4  C   UNL     1       2.724   5.146  -0.460  0.00  0.00    +0.061 A 
ATOM      5  C   UNL     1       1.712   6.002  -0.014  0.00  0.00    +0.016 A 
ATOM      6  C   UNL     1       0.520   5.477   0.431  0.00  0.00    +0.017 A 
ATOM      7  C   UNL     1       0.323   4.103   0.438  0.00  0.00    +0.030 A 
ATOM      8  C   UNL     1       1.328   3.234  -0.003  0.00  0.00    +0.048 A 
ATOM      9  C   UNL     1       2.527   3.763  -0.452  0.00  0.00    +0.039 A 
ATOM     10  N   UNL     1       1.149   1.853   0.001  0.00  0.00    -0.284 N 
ATOM     11  C   UNL     1      -0.014   1.209   0.009  0.00  0.00    +0.230 C 
ATOM     12  O   UNL     1       0.002  -0.004   0.002  0.00  0.00    -0.274 OA
ATOM     13  C   UNL     1      -1.350   1.901   0.019  0.00  0.00    +0.134 C 
ATOM     14  S   UNL     1      -1.207   3.427   1.004  0.00  0.00    -0.111 S 
ATOM     15  C   UNL     1      -1.759   2.247  -1.414  0.00  0.00    +0.029 C 
ATOM     16  H   UNL     1       1.952   1.307  -0.002  0.00  0.00    +0.155 HD
ENDBRANCH   2   4
ENDBRANCH   1   2
BRANCH   1  17
ATOM     17  C   UNL     1       5.476   7.516  -1.430  0.00  0.00    +0.269 C 
BRANCH  17  26
ATOM     18  C   UNL     1      10.114  12.012  -3.043  0.00  0.00    +0.045 C 
ATOM     19  C   UNL     1       8.906  11.226  -2.603  0.00  0.00    -0.029 A 
ATOM     20  C   UNL     1       7.795  11.891  -2.127  0.00  0.00    +0.051 A 
ATOM     21  C   UNL     1       6.678  11.173  -1.720  0.00  0.00    +0.140 A 
ATOM     22  C   UNL     1       6.695   9.769  -1.791  0.00  0.00    +0.025 A 
ATOM     23  C   UNL     1       7.825   9.108  -2.281  0.00  0.00    +0.032 A 
ATOM     24  C   UNL     1       8.922   9.840  -2.680  0.00  0.00    +0.045 A 
ATOM     25 CL   UNL     1      10.332   9.025  -3.282  0.00  0.00    -0.083 Cl
ATOM     26  C   UNL     1       5.508   9.021  -1.365  0.00  0.00    +0.007 A 
ATOM     27  C   UNL     1       4.440   9.722  -0.905  0.00  0.00    +0.099 A 
ATOM     28  C   UNL     1       4.495  11.132  -0.854  0.00  0.00    +0.338 A 
ATOM     29  O   UNL     1       3.530  11.748  -0.440  0.00  0.00    -0.245 OA
ATOM     30  O   UNL     1       5.583  11.809  -1.252  0.00  0.00    -0.422 OA
ENDBRANCH  17  26
ENDBRANCH   1  17
TORSDOF 4
