REMARK  Name = ZINC27804800
REMARK  5 active torsions:
REMARK  status: ('A' for Active; 'I' for Inactive)
REMARK    1  A    between atoms: C_1  and  C_2
REMARK    2  A    between atoms: C_5  and  S_7
REMARK    3  A    between atoms: S_7  and  N_10
REMARK    4  A    between atoms: C_14  and  C_17
REMARK    5  A    between atoms: N_19  and  C_20
REMARK                            x       y       z     vdW  Elec       q    Type
REMARK                         _______ _______ _______ _____ _____    ______ ____
ROOT
ATOM      1  C   UNL     1      -3.601   1.693   0.131  0.00  0.00    +0.222 C 
ATOM      2  O   UNL     1      -3.621   2.906   0.137  0.00  0.00    -0.275 OA
ATOM      3  N   UNL     1      -2.428   1.039   0.020  0.00  0.00    -0.285 N 
ATOM      4  H   UNL     1      -2.416  -0.057  -0.073  0.00  0.00    +0.155 HD
ENDROOT
BRANCH   3   5
ATOM      5  C   UNL     1      -1.224   1.754   0.023  0.00  0.00    +0.037 A 
ATOM      6  C   UNL     1      -0.148   1.307  -0.733  0.00  0.00    +0.027 A 
ATOM      7  C   UNL     1       1.042   2.009  -0.728  0.00  0.00    +0.051 A 
ATOM      8  C   UNL     1       1.164   3.161   0.028  0.00  0.00    +0.167 A 
ATOM      9  C   UNL     1       0.084   3.616   0.785  0.00  0.00    +0.169 A 
ATOM     10  C   UNL     1      -1.107   2.913   0.779  0.00  0.00    +0.072 A 
ATOM     11  O   UNL     1       0.465   4.763   1.432  0.00  0.00    -0.447 OA
ATOM     12  C   UNL     1       1.579   5.236   0.661  0.00  0.00    +0.254 C 
ATOM     13  O   UNL     1       2.210   4.030   0.207  0.00  0.00    -0.448 OA
ATOM     14  C   UNL     1       2.532   6.075   1.519  0.00  0.00    +0.093 C 
ATOM     15  C   UNL     1       3.056   7.160   0.542  0.00  0.00    +0.008 C 
ATOM     16  C   UNL     1       1.811   7.474  -0.326  0.00  0.00    +0.008 C 
ATOM     17  C   UNL     1       1.121   6.104  -0.510  0.00  0.00    +0.093 C 
ENDBRANCH   3   5
BRANCH   1  22
ATOM     18  N   UNL     1      -7.293   1.126   0.606  0.00  0.00    -0.175 NA
ATOM     19  C   UNL     1      -7.323   0.176   1.727  0.00  0.00    +0.109 C 
ATOM     20  C   UNL     1      -6.133  -0.780   1.595  0.00  0.00    +0.018 C 
ATOM     21  C   UNL     1      -4.840   0.032   1.494  0.00  0.00    +0.015 C 
ATOM     22  C   UNL     1      -4.888   0.918   0.247  0.00  0.00    +0.091 C 
ATOM     23  C   UNL     1      -6.064   1.893   0.363  0.00  0.00    +0.122 C 
BRANCH  18  24
ATOM     24  S   UNL     1      -8.619   1.327  -0.365  0.00  0.00    +0.067 S 
ATOM     25  O   UNL     1      -8.141   1.824  -1.608  0.00  0.00    -0.152 OA
ATOM     26  O   UNL     1      -9.382   0.133  -0.264  0.00  0.00    -0.152 OA
BRANCH  24  31
ATOM     27  C   UNL     1     -12.343   4.903   2.525  0.00  0.00    +0.051 C 
ATOM     28  C   UNL     1     -11.301   4.223   1.674  0.00  0.00    -0.011 A 
ATOM     29  C   UNL     1     -10.418   4.773   0.804  0.00  0.00    +0.013 A 
ATOM     30  C   UNL     1      -9.541   3.946   0.128  0.00  0.00    +0.036 A 
ATOM     31  C   UNL     1      -9.596   2.610   0.347  0.00  0.00    +0.143 A 
ATOM     32  S   UNL     1     -10.909   2.486   1.550  0.00  0.00    -0.074 S 
ENDBRANCH  24  31
ENDBRANCH  18  24
ENDBRANCH   1  22
TORSDOF 4
