REMARK  Name = ZINC35444269
REMARK  10 active torsions:
REMARK  status: ('A' for Active; 'I' for Inactive)
REMARK    1  A    between atoms: C_1  and  C_2
REMARK    2  A    between atoms: C_2  and  O_3
REMARK    3  A    between atoms: O_3  and  C_4
REMARK    4  A    between atoms: C_6  and  C_11
REMARK    5  A    between atoms: C_9  and  O_10
REMARK    6  A    between atoms: C_13  and  C_25
REMARK    7  A    between atoms: N_17  and  C_18
REMARK    8  A    between atoms: C_18  and  C_19
REMARK    9  A    between atoms: C_25  and  C_27
REMARK   10  A    between atoms: C_28  and  C_29
REMARK                            x       y       z     vdW  Elec       q    Type
REMARK                         _______ _______ _______ _____ _____    ______ ____
ROOT
ATOM      1  C   UNL     1       0.248  -4.830   0.791  0.00  0.00    +0.145 C 
ATOM      2  C   UNL     1       1.396  -5.470   1.536  0.00  0.00    +0.076 C 
ATOM      3  C   UNL     1       1.259  -6.808   1.390  0.00  0.00    +0.249 C 
ATOM      4  C   UNL     1       0.060  -7.088   0.574  0.00  0.00    +0.288 C 
ATOM      5  O   UNL     1      -0.331  -8.196   0.267  0.00  0.00    -0.266 OA
ATOM      6  N   UNL     1      -0.536  -5.933   0.221  0.00  0.00    -0.276 N 
ATOM      7  O   UNL     1       2.089  -7.743   1.910  0.00  0.00    -0.282 OA
ENDROOT
BRANCH   1  10
ATOM      8  C   UNL     1       1.939  -3.689  -2.389  0.00  0.00    +0.162 A 
ATOM      9  C   UNL     1       1.455  -4.502  -1.376  0.00  0.00    +0.055 A 
ATOM     10  C   UNL     1       0.774  -3.945  -0.309  0.00  0.00    -0.019 A 
ATOM     11  C   UNL     1       0.574  -2.579  -0.250  0.00  0.00    +0.009 A 
ATOM     12  C   UNL     1       1.054  -1.762  -1.258  0.00  0.00    +0.049 A 
ATOM     13  C   UNL     1       1.742  -2.313  -2.326  0.00  0.00    +0.158 A 
BRANCH  13  14
ATOM     14  O   UNL     1       2.220  -1.511  -3.315  0.00  0.00    -0.503 OA
ATOM     15  H   UNL     1       1.597  -1.367  -4.041  0.00  0.00    +0.292 HD
ENDBRANCH  13  14
BRANCH   8  16
ATOM     16  O   UNL     1       2.609  -4.235  -3.439  0.00  0.00    -0.489 OA
BRANCH  16  18
ATOM     17  C   UNL     1       3.559  -6.082  -4.673  0.00  0.00    +0.048 C 
ATOM     18  C   UNL     1       2.696  -5.660  -3.483  0.00  0.00    +0.226 C 
ENDBRANCH  16  18
ENDBRANCH   8  16
ENDBRANCH   1  10
BRANCH   2  19
ATOM     19  C   UNL     1       2.456  -4.774   2.275  0.00  0.00    +0.188 C 
ATOM     20  O   UNL     1       3.384  -5.406   2.751  0.00  0.00    -0.287 OA
BRANCH  19  21
ATOM     21  C   UNL     1       2.400  -3.321   2.442  0.00  0.00    +0.052 C 
ATOM     22  C   UNL     1       3.427  -2.668   3.027  0.00  0.00    +0.011 C 
BRANCH  22  23
ATOM     23  C   UNL     1       3.319  -1.228   3.307  0.00  0.00    -0.025 A 
ATOM     24  C   UNL     1       2.112  -0.557   3.083  0.00  0.00    +0.008 A 
ATOM     25  C   UNL     1       2.019   0.793   3.348  0.00  0.00    +0.001 A 
ATOM     26  C   UNL     1       3.116   1.484   3.833  0.00  0.00    +0.000 A 
ATOM     27  C   UNL     1       4.314   0.828   4.057  0.00  0.00    +0.001 A 
ATOM     28  C   UNL     1       4.421  -0.523   3.803  0.00  0.00    +0.008 A 
ENDBRANCH  22  23
ENDBRANCH  19  21
ENDBRANCH   2  19
BRANCH   6  29
ATOM     29  C   UNL     1      -1.750  -5.799  -0.587  0.00  0.00    +0.183 C 
BRANCH  29  30
ATOM     30  C   UNL     1      -1.376  -5.706  -2.044  0.00  0.00    +0.122 A 
ATOM     31  C   UNL     1      -1.248  -6.743  -2.892  0.00  0.00    +0.046 A 
ATOM     32  C   UNL     1      -0.888  -6.203  -4.148  0.00  0.00    +0.041 A 
ATOM     33  C   UNL     1      -0.817  -4.869  -3.993  0.00  0.00    +0.195 A 
ATOM     34  O   UNL     1      -1.119  -4.573  -2.718  0.00  0.00    -0.466 OA
ENDBRANCH  29  30
ENDBRANCH   6  29
TORSDOF 9
