REMARK  Name = ZINC19651298
REMARK  9 active torsions:
REMARK  status: ('A' for Active; 'I' for Inactive)
REMARK    1  A    between atoms: C_1  and  C_2
REMARK    2  A    between atoms: C_7  and  N_8
REMARK    3  A    between atoms: C_9  and  C_11
REMARK    4  A    between atoms: C_11  and  C_13
REMARK    5  A    between atoms: C_11  and  N_14
REMARK    6  A    between atoms: C_25  and  C_29
REMARK    7  A    between atoms: C_29  and  C_30
REMARK    8  A    between atoms: C_29  and  C_31
REMARK    9  A    between atoms: C_29  and  C_32
REMARK                            x       y       z     vdW  Elec       q    Type
REMARK                         _______ _______ _______ _____ _____    ______ ____
ROOT
ATOM      1  N   UNL     1       1.592  -6.338   0.663  0.00  0.00    -0.199 N 
ATOM      2  C   UNL     1       1.248  -5.074   1.008  0.00  0.00    +0.279 A 
ATOM      3  O   UNL     1       0.953  -4.770   2.151  0.00  0.00    -0.265 OA
ATOM      4  C   UNL     1       1.252  -4.115  -0.063  0.00  0.00    +0.079 A 
ATOM      5  C   UNL     1       0.924  -2.706   0.039  0.00  0.00    -0.023 A 
ATOM      6  C   UNL     1       0.994  -1.981  -1.104  0.00  0.00    -0.004 A 
ATOM      7  S   UNL     1       1.496  -3.136  -2.355  0.00  0.00    -0.071 S 
ATOM      8  C   UNL     1       1.610  -4.581  -1.347  0.00  0.00    +0.138 A 
ATOM      9  N   UNL     1       1.939  -5.839  -1.621  0.00  0.00    -0.123 NA
ATOM     10  N   UNL     1       1.931  -6.692  -0.644  0.00  0.00    -0.061 NA
ATOM     11  C   UNL     1       0.709  -0.521  -1.270  0.00  0.00    +0.046 C 
ATOM     12  C   UNL     1      -0.037  -0.026  -0.022  0.00  0.00    -0.000 C 
ATOM     13  C   UNL     1       0.700  -0.531   1.222  0.00  0.00    +0.009 C 
ATOM     14  C   UNL     1       0.519  -2.043   1.353  0.00  0.00    +0.037 C 
ENDROOT
BRANCH  12  15
ATOM     15  C   UNL     1      -0.067   1.504  -0.015  0.00  0.00    -0.035 C 
ATOM     16  C   UNL     1       1.365   2.042  -0.019  0.00  0.00    +0.011 C 
ATOM     17  C   UNL     1      -0.803   2.005  -1.259  0.00  0.00    +0.011 C 
ATOM     18  C   UNL     1      -0.793   1.994   1.239  0.00  0.00    +0.011 C 
ENDBRANCH  12  15
BRANCH   1  19
ATOM     19  C   UNL     1       1.611  -7.372   1.701  0.00  0.00    +0.195 C 
ATOM     20  C   UNL     1       0.624  -8.482   1.334  0.00  0.00    +0.043 C 
BRANCH  19  22
ATOM     21  N   UNL     1       3.255  -8.923   2.706  0.00  0.00    -0.284 N 
ATOM     22  C   UNL     1       2.999  -7.950   1.810  0.00  0.00    +0.242 C 
ATOM     23  O   UNL     1       3.885  -7.538   1.091  0.00  0.00    -0.273 OA
ATOM     24  H   UNL     1       2.477  -9.233   3.419  0.00  0.00    +0.155 HD
BRANCH  21  31
ATOM     25  C   UNL     1       4.119 -10.124   5.137  0.00  0.00    +0.045 C 
ATOM     26  C   UNL     1       4.971 -10.138   3.894  0.00  0.00    -0.029 A 
ATOM     27  C   UNL     1       6.212 -10.746   3.913  0.00  0.00    +0.005 A 
ATOM     28  C   UNL     1       6.994 -10.760   2.773  0.00  0.00    +0.000 A 
ATOM     29  C   UNL     1       6.538 -10.166   1.611  0.00  0.00    +0.002 A 
ATOM     30  C   UNL     1       5.297  -9.561   1.583  0.00  0.00    +0.023 A 
ATOM     31  C   UNL     1       4.511  -9.540   2.728  0.00  0.00    +0.036 A 
ENDBRANCH  21  31
ENDBRANCH  19  22
ENDBRANCH   1  19
TORSDOF 4
