REMARK  Name = ZINC21339579
REMARK  8 active torsions:
REMARK  status: ('A' for Active; 'I' for Inactive)
REMARK    1  A    between atoms: C_1  and  C_2
REMARK    2  A    between atoms: C_3  and  C_28
REMARK    3  A    between atoms: C_5  and  S_8
REMARK    4  A    between atoms: S_8  and  C_9
REMARK    5  A    between atoms: C_9  and  C_11
REMARK    6  A    between atoms: C_9  and  C_12
REMARK    7  A    between atoms: N_17  and  C_18
REMARK    8  A    between atoms: C_28  and  C_29
REMARK                            x       y       z     vdW  Elec       q    Type
REMARK                         _______ _______ _______ _____ _____    ______ ____
ROOT
ATOM      1  C   UNL     1      -0.032  -6.237   1.155  0.00  0.00    +0.233 C 
ATOM      2  O   UNL     1       0.254  -6.306   2.332  0.00  0.00    -0.274 OA
ATOM      3  N   UNL     1      -0.441  -7.339   0.496  0.00  0.00    -0.239 N 
ATOM      4  C   UNL     1      -0.533  -8.517   1.143  0.00  0.00    +0.306 C 
ATOM      5  O   UNL     1      -0.247  -8.586   2.323  0.00  0.00    -0.252 OA
ATOM      6  N   UNL     1      -0.942  -9.619   0.484  0.00  0.00    -0.294 N 
ATOM      7  H   UNL     1      -0.669  -7.284  -0.446  0.00  0.00    +0.159 HD
ATOM      8  H   UNL     1      -1.171  -9.563  -0.457  0.00  0.00    +0.151 HD
ENDROOT
BRANCH   6   9
ATOM      9  C   UNL     1      -1.042 -10.899   1.188  0.00  0.00    +0.037 C 
ATOM     10  C   UNL     1       0.331 -11.287   1.739  0.00  0.00    +0.029 C 
ATOM     11  C   UNL     1       0.227 -12.625   2.474  0.00  0.00    -0.008 C 
ATOM     12  C   UNL     1      -0.257 -13.704   1.504  0.00  0.00    +0.007 C 
ATOM     13  C   UNL     1      -1.631 -13.316   0.953  0.00  0.00    -0.008 C 
ATOM     14  C   UNL     1      -1.526 -11.979   0.217  0.00  0.00    +0.029 C 
ATOM     15  C   UNL     1      -2.625 -13.186   2.108  0.00  0.00    +0.007 C 
ATOM     16  C   UNL     1      -2.141 -12.107   3.079  0.00  0.00    -0.008 C 
ATOM     17  C   UNL     1      -0.768 -12.495   3.630  0.00  0.00    +0.007 C 
ATOM     18  C   UNL     1      -2.037 -10.770   2.343  0.00  0.00    +0.029 C 
ENDBRANCH   6   9
BRANCH   1  19
ATOM     19  C   UNL     1       0.071  -4.920   0.431  0.00  0.00    +0.137 C 
ATOM     20  C   UNL     1       1.375  -4.878  -0.369  0.00  0.00    +0.029 C 
BRANCH  19  21
ATOM     21  S   UNL     1       0.058  -3.564   1.636  0.00  0.00    -0.075 S 
BRANCH  21  26
ATOM     22  C   UNL     1      -0.018   1.503   0.010  0.00  0.00    +0.065 C 
ATOM     23  C   UNL     1       0.002  -0.004   0.002  0.00  0.00    +0.037 A 
ATOM     24  C   UNL     1       0.008  -0.798  -1.082  0.00  0.00    +0.067 A 
ATOM     25  N   UNL     1       0.028  -2.077  -0.670  0.00  0.00    -0.226 NA
ATOM     26  C   UNL     1       0.034  -2.110   0.642  0.00  0.00    +0.167 A 
ATOM     27  N   UNL     1       0.024  -0.829   1.104  0.00  0.00    -0.337 N 
ATOM     28  H   UNL     1       0.030  -0.551   2.033  0.00  0.00    +0.168 HD
BRANCH  24  29
ATOM     29  C   UNL     1      -0.005  -0.333  -2.516  0.00  0.00    +0.092 C 
BRANCH  29  30
ATOM     30  C   UNL     1       1.411  -0.158  -3.001  0.00  0.00    -0.042 A 
ATOM     31  C   UNL     1       2.048   1.059  -2.849  0.00  0.00    +0.004 A 
ATOM     32  C   UNL     1       3.347   1.220  -3.293  0.00  0.00    +0.000 A 
ATOM     33  C   UNL     1       4.009   0.163  -3.889  0.00  0.00    +0.000 A 
ATOM     34  C   UNL     1       3.372  -1.055  -4.041  0.00  0.00    +0.000 A 
ATOM     35  C   UNL     1       2.074  -1.216  -3.592  0.00  0.00    +0.004 A 
ENDBRANCH  29  30
ENDBRANCH  24  29
ENDBRANCH  21  26
ENDBRANCH  19  21
ENDBRANCH   1  19
TORSDOF 6
