REMARK  Name = ZINC38589010
REMARK  8 active torsions:
REMARK  status: ('A' for Active; 'I' for Inactive)
REMARK    1  A    between atoms: C_1  and  C_2
REMARK    2  A    between atoms: C_4  and  C_25
REMARK    3  A    between atoms: C_28  and  O_33
REMARK    4  A    between atoms: C_29  and  O_31
REMARK    5  A    between atoms: O_31  and  C_32
REMARK    6  A    between atoms: O_33  and  C_34
REMARK    7  A    between atoms: C_34  and  C_35
REMARK    8  A    between atoms: C_34  and  C_36
REMARK                            x       y       z     vdW  Elec       q    Type
REMARK                         _______ _______ _______ _____ _____    ______ ____
ROOT
ATOM      1  C   UNL     1       0.456   2.180  -0.082  0.00  0.00    +0.062 C 
ATOM      2  C   UNL     1       0.742   0.701  -0.135  0.00  0.00    +0.023 C 
ATOM      3  C   UNL     1      -0.179  -0.228  -0.156  0.00  0.00    +0.005 C 
ATOM      4  C   UNL     1      -1.689  -0.043  -0.191  0.00  0.00    +0.108 C 
ATOM      5  S   UNL     1      -2.434  -1.520   0.574  0.00  0.00    -0.139 S 
ATOM      6  C   UNL     1      -2.315  -2.805  -0.687  0.00  0.00    +0.165 C 
ATOM      7  C   UNL     1      -1.145  -2.760  -1.564  0.00  0.00    +0.225 C 
ATOM      8  O   UNL     1      -1.321  -3.255  -2.657  0.00  0.00    -0.275 OA
ATOM      9  N   UNL     1       0.062  -2.277  -1.375  0.00  0.00    -0.291 N 
ATOM     10  C   UNL     1       0.507  -1.571  -0.180  0.00  0.00    +0.210 C 
ATOM     11  N   UNL     1       1.939  -1.245  -0.264  0.00  0.00    -0.213 N 
ATOM     12  N   UNL     1       2.014   0.154  -0.175  0.00  0.00    -0.265 N 
ATOM     13  C   UNL     1       2.965  -2.109  -0.403  0.00  0.00    +0.150 C 
ATOM     14  N   UNL     1       2.758  -3.411  -0.486  0.00  0.00    -0.221 NA
ATOM     15  C   UNL     1       3.733  -4.312  -0.558  0.00  0.00    +0.225 C 
ATOM     16  N   UNL     1       4.990  -4.029  -0.237  0.00  0.00    -0.218 NA
ATOM     17  C   UNL     1       5.235  -2.766   0.099  0.00  0.00    +0.164 C 
ATOM     18  N   UNL     1       6.066  -2.187   0.912  0.00  0.00    -0.219 NA
ATOM     19  C   UNL     1       5.692  -0.928   1.175  0.00  0.00    +0.218 C 
ATOM     20  N   UNL     1       4.694  -0.524   0.439  0.00  0.00    -0.253 NA
ATOM     21  C   UNL     1       4.388  -1.627  -0.474  0.00  0.00    +0.239 C 
ATOM     22  H   UNL     1       0.709  -2.400  -2.088  0.00  0.00    +0.151 HD
ATOM     23  H   UNL     1       2.838   0.664  -0.142  0.00  0.00    +0.170 HD
ENDROOT
BRANCH   4  24
ATOM     24  C   UNL     1      -2.072   1.189   0.588  0.00  0.00    -0.027 A 
ATOM     25  C   UNL     1      -1.756   1.282   1.931  0.00  0.00    +0.009 A 
ATOM     26  C   UNL     1      -2.106   2.410   2.650  0.00  0.00    +0.050 A 
ATOM     27  C   UNL     1      -2.775   3.450   2.025  0.00  0.00    +0.162 A 
ATOM     28  C   UNL     1      -3.093   3.357   0.674  0.00  0.00    +0.162 A 
ATOM     29  C   UNL     1      -2.735   2.226  -0.042  0.00  0.00    +0.054 A 
BRANCH  28  30
ATOM     30  O   UNL     1      -3.749   4.375   0.056  0.00  0.00    -0.491 OA
ATOM     31  C   UNL     1      -4.043   4.210  -1.333  0.00  0.00    +0.277 C 
ENDBRANCH  28  30
BRANCH  27  32
ATOM     32  O   UNL     1      -3.120   4.560   2.731  0.00  0.00    -0.486 OA
BRANCH  32  33
ATOM     33  C   UNL     1      -2.869   4.538   4.138  0.00  0.00    +0.167 C 
ATOM     34  C   UNL     1      -1.423   4.961   4.405  0.00  0.00    +0.051 C 
ATOM     35  C   UNL     1      -3.822   5.507   4.841  0.00  0.00    +0.051 C 
ENDBRANCH  32  33
ENDBRANCH  27  32
ENDBRANCH   4  24
TORSDOF 4
