REMARK  Name = ZINC34171397
REMARK  14 active torsions:
REMARK  status: ('A' for Active; 'I' for Inactive)
REMARK    1  A    between atoms: C_1  and  C_2
REMARK    2  A    between atoms: C_4  and  O_37
REMARK    3  A    between atoms: C_6  and  O_33
REMARK    4  A    between atoms: C_9  and  C_10
REMARK    5  A    between atoms: C_9  and  C_11
REMARK    6  A    between atoms: C_14  and  O_32
REMARK    7  A    between atoms: C_18  and  C_31
REMARK    8  A    between atoms: C_21  and  O_30
REMARK    9  A    between atoms: C_23  and  C_25
REMARK   10  A    between atoms: C_25  and  O_26
REMARK   11  A    between atoms: O_26  and  C_27
REMARK   12  A    between atoms: C_27  and  C_29
REMARK   13  A    between atoms: O_33  and  C_34
REMARK   14  A    between atoms: C_34  and  C_36
REMARK                            x       y       z     vdW  Elec       q    Type
REMARK                         _______ _______ _______ _____ _____    ______ ____
ROOT
ATOM      1  C   UNL     1       0.048   1.715   0.496  0.00  0.00    +0.013 C 
ATOM      2  C   UNL     1       0.123   0.201   0.291  0.00  0.00    +0.051 C 
ATOM      3  C   UNL     1      -1.282  -0.327   0.009  0.00  0.00    +0.165 C 
ATOM      4  C   UNL     1      -2.169  -0.106   1.221  0.00  0.00    +0.149 C 
ATOM      5  C   UNL     1      -1.510  -0.048   2.595  0.00  0.00    +0.055 C 
ATOM      6  C   UNL     1      -2.448  -1.195   2.247  0.00  0.00    +0.015 C 
ATOM      7  C   UNL     1      -3.844  -1.163   2.906  0.00  0.00    +0.015 C 
ATOM      8  C   UNL     1      -1.895  -2.601   2.062  0.00  0.00    +0.015 C 
ATOM      9  C   UNL     1      -0.021  -0.246   2.773  0.00  0.00    +0.052 C 
ATOM     10  C   UNL     1       0.758  -0.487   1.500  0.00  0.00    +0.087 C 
ATOM     11  C   UNL     1       2.174   0.058   1.654  0.00  0.00    +0.084 C 
ATOM     12  C   UNL     1       3.065  -0.378   0.518  0.00  0.00    -0.011 C 
ATOM     13  C   UNL     1       4.287  -0.620   0.988  0.00  0.00    -0.009 C 
ATOM     14  C   UNL     1       4.355  -0.412   2.436  0.00  0.00    +0.191 C 
ATOM     15  O   UNL     1       5.346  -0.291   3.121  0.00  0.00    -0.289 OA
ATOM     16  C   UNL     1       2.899  -0.412   2.920  0.00  0.00    +0.140 C 
ATOM     17  C   UNL     1       2.554  -1.862   3.244  0.00  0.00    +0.077 C 
ATOM     18  C   UNL     1       1.286  -1.980   4.023  0.00  0.00    -0.033 C 
ATOM     19  C   UNL     1       0.209  -1.297   3.818  0.00  0.00    -0.018 C 
ATOM     20  C   UNL     1       5.452  -1.051   0.135  0.00  0.00    +0.047 C 
ENDROOT
BRANCH  16  21
ATOM     21  O   UNL     1       2.710   0.466   4.036  0.00  0.00    -0.380 OA
ATOM     22  H   UNL     1       3.163   0.180   4.841  0.00  0.00    +0.211 HD
ENDBRANCH  16  21
BRANCH  10  23
ATOM     23  O   UNL     1       0.822  -1.889   1.221  0.00  0.00    -0.387 OA
ATOM     24  H   UNL     1       1.346  -2.111   0.439  0.00  0.00    +0.210 HD
ENDBRANCH  10  23
BRANCH   3  25
ATOM     25  O   UNL     1      -1.254  -1.670  -0.449  0.00  0.00    -0.387 OA
ATOM     26  H   UNL     1      -0.754  -1.796  -1.268  0.00  0.00    +0.210 HD
ENDBRANCH   3  25
BRANCH  18  27
ATOM     27  C   UNL     1       1.261  -2.982   5.155  0.00  0.00    +0.263 C 
BRANCH  27  28
ATOM     28  O   UNL     1      -0.022  -2.958   5.783  0.00  0.00    -0.460 OA
BRANCH  28  29
ATOM     29  C   UNL     1      -0.211  -3.795   6.815  0.00  0.00    +0.304 C 
ATOM     30  O   UNL     1       0.683  -4.525   7.173  0.00  0.00    -0.251 OA
ATOM     31  C   UNL     1      -1.539  -3.826   7.527  0.00  0.00    +0.136 C 
ENDBRANCH  28  29
ENDBRANCH  27  28
ENDBRANCH  18  27
BRANCH   4  32
ATOM     32  O   UNL     1      -3.238   0.836   1.002  0.00  0.00    -0.455 OA
BRANCH  32  33
ATOM     33  C   UNL     1      -4.182   0.489   0.112  0.00  0.00    +0.305 C 
ATOM     34  O   UNL     1      -4.161  -0.607  -0.395  0.00  0.00    -0.251 OA
ATOM     35  C   UNL     1      -5.268   1.468  -0.253  0.00  0.00    +0.136 C 
ENDBRANCH  32  33
ENDBRANCH   4  32
TORSDOF 8
