REMARK  Name = ZINC14459582
REMARK  4 active torsions:
REMARK  status: ('A' for Active; 'I' for Inactive)
REMARK    1  A    between atoms: C_1  and  O_2
REMARK    2  A    between atoms: O_2  and  C_3
REMARK    3  A    between atoms: C_7  and  C_10
REMARK    4  A    between atoms: C_8  and  O_9
REMARK                            x       y       z     vdW  Elec       q    Type
REMARK                         _______ _______ _______ _____ _____    ______ ____
ROOT
ATOM      1  C   UNL     1       3.567   1.742   0.425  0.00  0.00    +0.109 C 
ATOM      2  C   UNL     1       4.336   2.865  -0.278  0.00  0.00    +0.029 C 
ATOM      3  C   UNL     1       5.641   3.112   0.534  0.00  0.00    +0.033 C 
ATOM      4  C   UNL     1       5.187   4.018   1.663  0.00  0.00    -0.030 C 
ATOM      5  C   UNL     1       4.073   4.629   1.341  0.00  0.00    -0.023 C 
ATOM      6  C   UNL     1       3.629   4.214  -0.041  0.00  0.00    +0.049 C 
ATOM      7  C   UNL     1       2.139   4.116  -0.130  0.00  0.00    -0.018 A 
ATOM      8  C   UNL     1       1.397   5.288  -0.187  0.00  0.00    +0.020 A 
ATOM      9  C   UNL     1       0.020   5.243  -0.273  0.00  0.00    +0.014 A 
ATOM     10  C   UNL     1      -0.638   4.026  -0.308  0.00  0.00    +0.016 A 
ATOM     11  C   UNL     1       0.090   2.854  -0.245  0.00  0.00    +0.024 A 
ATOM     12  C   UNL     1       1.476   2.899  -0.159  0.00  0.00    +0.031 A 
ATOM     13  N   UNL     1       2.198   1.703  -0.099  0.00  0.00    -0.336 N 
ATOM     14  I   UNL     1      -1.078   7.025  -0.357  0.00  0.00    -0.044 I 
ATOM     15  H   UNL     1       1.804   0.868  -0.397  0.00  0.00    +0.147 HD
ENDROOT
BRANCH   1  20
ATOM     16  C   UNL     1       4.440   1.665   4.108  0.00  0.00    +0.162 A 
ATOM     17  C   UNL     1       3.464   2.495   4.635  0.00  0.00    +0.049 A 
ATOM     18  C   UNL     1       2.527   3.077   3.801  0.00  0.00    +0.004 A 
ATOM     19  C   UNL     1       2.565   2.837   2.440  0.00  0.00    +0.009 A 
ATOM     20  C   UNL     1       3.533   2.005   1.908  0.00  0.00    +0.018 A 
ATOM     21  C   UNL     1       4.475   1.419   2.739  0.00  0.00    +0.163 A 
BRANCH  16  23
ATOM     22  C   UNL     1       5.266   1.390   6.321  0.00  0.00    +0.277 C 
ATOM     23  O   UNL     1       5.363   1.092   4.926  0.00  0.00    -0.491 OA
ENDBRANCH  16  23
BRANCH  21  24
ATOM     24  O   UNL     1       5.430   0.605   2.216  0.00  0.00    -0.503 OA
ATOM     25  H   UNL     1       6.273   1.047   2.045  0.00  0.00    +0.292 HD
ENDBRANCH  21  24
ENDBRANCH   1  20
TORSDOF 3
