REMARK  Name = ZINC12862220
REMARK  8 active torsions:
REMARK  status: ('A' for Active; 'I' for Inactive)
REMARK    1  A    between atoms: C_1  and  C_2
REMARK    2  A    between atoms: C_2  and  C_4
REMARK    3  A    between atoms: C_2  and  N_53
REMARK    4  A    between atoms: N_6  and  C_7
REMARK    5  A    between atoms: C_16  and  C_17
REMARK    6  A    between atoms: C_16  and  N_53
REMARK    7  A    between atoms: C_17  and  C_19
REMARK    8  A    between atoms: C_17  and  C_24
REMARK                            x       y       z     vdW  Elec       q    Type
REMARK                         _______ _______ _______ _____ _____    ______ ____
ROOT
ATOM      1  N   UNL     1       2.571   3.448  -2.451  0.00  0.00    +0.387 N 
ATOM      2  H   UNL     1       3.591   3.336  -2.408  0.00  0.00    -0.085 HD
ATOM      3  H   UNL     1       2.127   2.522  -2.485  0.00  0.00    -0.085 HD
ENDROOT
BRANCH   1   5
ATOM      4  C   UNL     1       0.785   3.855  -4.084  0.00  0.00    -0.004 C 
ATOM      5  C   UNL     1       2.215   4.204  -3.666  0.00  0.00    +0.013 C 
BRANCH   5   6
ATOM      6  C   UNL     1       3.166   3.834  -4.775  0.00  0.00    +0.203 C 
ATOM      7  O   UNL     1       4.050   3.029  -4.572  0.00  0.00    -0.277 OA
ATOM      8  N   UNL     1       3.036   4.400  -5.992  0.00  0.00    -0.287 N 
ATOM      9  H   UNL     1       2.290   4.993  -6.173  0.00  0.00    +0.155 HD
BRANCH   8  10
ATOM     10  C   UNL     1       3.977   4.131  -6.994  0.00  0.00    +0.037 A 
ATOM     11  C   UNL     1       4.325   5.121  -7.903  0.00  0.00    +0.027 A 
ATOM     12  C   UNL     1       5.256   4.858  -8.889  0.00  0.00    +0.051 A 
ATOM     13  C   UNL     1       5.839   3.604  -8.980  0.00  0.00    +0.166 A 
ATOM     14  C   UNL     1       5.487   2.607  -8.072  0.00  0.00    +0.168 A 
ATOM     15  C   UNL     1       4.557   2.873  -7.081  0.00  0.00    +0.072 A 
ATOM     16  O   UNL     1       6.192   1.477  -8.371  0.00  0.00    -0.453 OA
ATOM     17  C   UNL     1       6.670   1.667  -9.716  0.00  0.00    +0.466 C 
ATOM     18  O   UNL     1       6.764   3.097  -9.848  0.00  0.00    -0.453 OA
ENDBRANCH   8  10
ENDBRANCH   5   6
ENDBRANCH   1   5
BRANCH   1  19
ATOM     19  C   UNL     1       2.108   4.165  -1.248  0.00  0.00    -0.068 C 
BRANCH  19  20
ATOM     20  C   UNL     1       2.491   3.359  -0.005  0.00  0.00    +0.041 C 
BRANCH  20  21
ATOM     21  C   UNL     1       2.132   4.141   1.232  0.00  0.00    -0.016 A 
ATOM     22  C   UNL     1       0.906   4.561   1.583  0.00  0.00    +0.087 A 
ATOM     23  N   UNL     1       0.969   5.240   2.770  0.00  0.00    -0.360 N 
ATOM     24  H   UNL     1       0.209   5.637   3.225  0.00  0.00    +0.165 HD
ATOM     25  C   UNL     1       2.268   5.274   3.222  0.00  0.00    +0.047 A 
ATOM     26  C   UNL     1       3.054   4.583   2.281  0.00  0.00    +0.003 A 
ATOM     27  C   UNL     1       4.428   4.451   2.484  0.00  0.00    +0.010 A 
ATOM     28  C   UNL     1       5.005   4.992   3.599  0.00  0.00    +0.001 A 
ATOM     29  C   UNL     1       4.234   5.673   4.531  0.00  0.00    +0.002 A 
ATOM     30  C   UNL     1       2.877   5.821   4.347  0.00  0.00    +0.026 A 
ENDBRANCH  20  21
BRANCH  20  31
ATOM     31  C   UNL     1       1.744   2.050  -0.006  0.00  0.00    -0.005 A 
ATOM     32  C   UNL     1       2.235   0.787  -0.015  0.00  0.00    +0.012 A 
ATOM     33  C   UNL     1       1.351  -0.276  -0.014  0.00  0.00    +0.008 A 
ATOM     34  C   UNL     1       0.019  -0.024  -0.004  0.00  0.00    +0.045 A 
ATOM     35  S   UNL     1      -0.018   1.761   0.005  0.00  0.00    -0.101 S 
ENDBRANCH  20  31
ENDBRANCH  19  20
ENDBRANCH   1  19
TORSDOF 7
