REMARK  Name = ZINC63480694
REMARK  5 active torsions:
REMARK  status: ('A' for Active; 'I' for Inactive)
REMARK    1  A    between atoms: C_1  and  C_2
REMARK    2  A    between atoms: C_2  and  C_4
REMARK    3  A    between atoms: C_2  and  N_14
REMARK    4  A    between atoms: C_15  and  C_17
REMARK    5  A    between atoms: N_31  and  C_32
REMARK                            x       y       z     vdW  Elec       q    Type
REMARK                         _______ _______ _______ _____ _____    ______ ____
ROOT
ATOM      1  N   UNL     1       0.648  -0.374  -1.438  0.00  0.00    -0.307 N 
ATOM      2  C   UNL     1       1.987  -0.507  -1.367  0.00  0.00    +0.238 C 
ATOM      3  O   UNL     1       2.576  -0.182  -0.358  0.00  0.00    -0.273 OA
ATOM      4  H   UNL     1       0.177  -0.634  -2.246  0.00  0.00    +0.149 HD
ENDROOT
BRANCH   2   5
ATOM      5  C   UNL     1       2.753  -1.060  -2.541  0.00  0.00    +0.183 C 
ATOM      6  C   UNL     1       2.317  -2.478  -2.827  0.00  0.00    +0.019 C 
ATOM      7  C   UNL     1       3.407  -3.265  -2.679  0.00  0.00    +0.057 C 
ATOM      8  C   UNL     1       4.561  -2.437  -2.305  0.00  0.00    +0.051 C 
ATOM      9  C   UNL     1       5.797  -3.092  -2.106  0.00  0.00    +0.018 A 
ATOM     10  C   UNL     1       6.939  -2.358  -1.747  0.00  0.00    +0.011 A 
ATOM     11  C   UNL     1       8.126  -3.001  -1.558  0.00  0.00    +0.001 A 
ATOM     12  C   UNL     1       8.217  -4.381  -1.716  0.00  0.00    +0.002 A 
ATOM     13  C   UNL     1       7.128  -5.122  -2.064  0.00  0.00    +0.024 A 
ATOM     14  C   UNL     1       5.886  -4.497  -2.269  0.00  0.00    +0.043 A 
ATOM     15  N   UNL     1       4.822  -5.237  -2.610  0.00  0.00    -0.281 N 
ATOM     16  C   UNL     1       3.621  -4.724  -2.820  0.00  0.00    +0.250 C 
ATOM     17  O   UNL     1       2.689  -5.452  -3.128  0.00  0.00    -0.270 OA
ATOM     18  N   UNL     1       4.185  -1.132  -2.222  0.00  0.00    -0.317 N 
ATOM     19  C   UNL     1       5.051  -0.002  -1.877  0.00  0.00    +0.130 C 
ATOM     20  H   UNL     1       4.939  -6.195  -2.708  0.00  0.00    +0.155 HD
ENDBRANCH   2   5
BRANCH   1  22
ATOM     21  C   UNL     1      -0.089   1.692  -0.357  0.00  0.00    +0.033 C 
ATOM     22  C   UNL     1      -0.097   0.163  -0.297  0.00  0.00    +0.100 C 
BRANCH  22  23
ATOM     23  C   UNL     1      -1.518  -0.334  -0.346  0.00  0.00    -0.024 A 
ATOM     24  C   UNL     1      -2.179  -0.418  -1.557  0.00  0.00    +0.009 A 
ATOM     25  C   UNL     1      -3.483  -0.872  -1.606  0.00  0.00    +0.050 A 
ATOM     26  C   UNL     1      -4.133  -1.246  -0.439  0.00  0.00    +0.162 A 
ATOM     27  C   UNL     1      -3.468  -1.165   0.779  0.00  0.00    +0.162 A 
ATOM     28  C   UNL     1      -2.158  -0.712   0.820  0.00  0.00    +0.055 A 
ATOM     29  O   UNL     1      -4.084  -1.534   1.935  0.00  0.00    -0.485 OA
ATOM     30  C   UNL     1      -5.512  -1.634   1.900  0.00  0.00    +0.270 C 
ATOM     31  C   UNL     1      -5.909  -2.407   0.635  0.00  0.00    +0.270 C 
ATOM     32  O   UNL     1      -5.419  -1.688  -0.502  0.00  0.00    -0.485 OA
ENDBRANCH  22  23
ENDBRANCH   1  22
TORSDOF 3
