REMARK  Name = ZINC39532094
REMARK  10 active torsions:
REMARK  status: ('A' for Active; 'I' for Inactive)
REMARK    1  A    between atoms: C_1  and  C_2
REMARK    2  A    between atoms: C_2  and  C_3
REMARK    3  A    between atoms: C_6  and  C_9
REMARK    4  A    between atoms: C_9  and  C_11
REMARK    5  A    between atoms: C_9  and  N_20
REMARK    6  A    between atoms: C_11  and  N_12
REMARK    7  A    between atoms: N_12  and  C_13
REMARK    8  A    between atoms: C_13  and  C_14
REMARK    9  A    between atoms: C_24  and  C_27
REMARK   10  A    between atoms: C_32  and  O_33
REMARK                            x       y       z     vdW  Elec       q    Type
REMARK                         _______ _______ _______ _____ _____    ______ ____
ROOT
ATOM      1  C   UNL     1       2.784  -1.930   4.644  0.00  0.00    -0.024 C 
ENDROOT
BRANCH   1   2
ATOM      2  N   UNL     1       1.835  -2.869   5.257  0.00  0.00    +0.383 N 
ATOM      3  C   UNL     1       2.350  -3.305   6.562  0.00  0.00    -0.097 C 
ATOM      4  C   UNL     1       1.362  -4.283   7.200  0.00  0.00    -0.101 C 
ATOM      5  N   UNL     1       1.196  -5.451   6.324  0.00  0.00    +0.381 N 
ATOM      6  C   UNL     1       0.680  -5.016   5.019  0.00  0.00    -0.054 C 
ATOM      7  C   UNL     1       1.668  -4.037   4.382  0.00  0.00    -0.089 C 
ATOM      8  H   UNL     1       2.087  -5.907   6.199  0.00  0.00    -0.085 HD
ATOM      9  H   UNL     1       0.544  -6.097   6.745  0.00  0.00    -0.085 HD
ATOM     10  H   UNL     1       0.944  -2.413   5.383  0.00  0.00    -0.081 HD
BRANCH   6  11
ATOM     11  C   UNL     1       0.509  -6.214   4.122  0.00  0.00    -0.022 A 
ATOM     12  C   UNL     1       1.183  -7.388   4.399  0.00  0.00    +0.005 A 
ATOM     13  C   UNL     1       1.027  -8.487   3.576  0.00  0.00    +0.000 A 
ATOM     14  C   UNL     1       0.196  -8.415   2.472  0.00  0.00    +0.004 A 
ATOM     15  C   UNL     1      -0.480  -7.244   2.191  0.00  0.00    +0.045 A 
ATOM     16  C   UNL     1      -0.329  -6.141   3.019  0.00  0.00    +0.118 A 
BRANCH  16  17
ATOM     17  O   UNL     1      -0.997  -4.989   2.747  0.00  0.00    -0.507 OA
ATOM     18  H   UNL     1      -0.514  -4.380   2.172  0.00  0.00    +0.292 HD
ENDBRANCH  16  17
ENDBRANCH   6  11
ENDBRANCH   1   2
BRANCH   1  22
ATOM     19  C   UNL     1       1.332  -0.742   0.807  0.00  0.00    -0.048 A 
ATOM     20  C   UNL     1       2.680  -0.990   0.989  0.00  0.00    +0.004 A 
ATOM     21  C   UNL     1       3.149  -1.374   2.231  0.00  0.00    +0.002 A 
ATOM     22  C   UNL     1       2.272  -1.510   3.291  0.00  0.00    -0.060 A 
ATOM     23  C   UNL     1       0.924  -1.260   3.108  0.00  0.00    +0.002 A 
ATOM     24  C   UNL     1       0.455  -0.872   1.867  0.00  0.00    +0.004 A 
BRANCH  19  26
ATOM     25  C   UNL     1       0.861   1.203  -0.658  0.00  0.00    +0.009 C 
ATOM     26  C   UNL     1       0.820  -0.323  -0.547  0.00  0.00    +0.032 C 
ENDBRANCH  19  26
ENDBRANCH   1  22
BRANCH   1  27
ATOM     27  C   UNL     1       2.930  -0.697   5.539  0.00  0.00    +0.070 C 
BRANCH  27  28
ATOM     28  N   UNL     1       3.934   0.208   4.965  0.00  0.00    -0.313 NA
ATOM     29  H   UNL     1       4.793  -0.283   4.767  0.00  0.00    +0.122 HD
BRANCH  28  30
ATOM     30  C   UNL     1       4.175   1.357   5.849  0.00  0.00    +0.116 C 
BRANCH  30  31
ATOM     31  C   UNL     1       5.208   2.261   5.228  0.00  0.00    -0.034 A 
ATOM     32  C   UNL     1       6.550   2.062   5.494  0.00  0.00    +0.005 A 
ATOM     33  C   UNL     1       7.498   2.892   4.924  0.00  0.00    +0.000 A 
ATOM     34  C   UNL     1       7.103   3.920   4.088  0.00  0.00    +0.000 A 
ATOM     35  C   UNL     1       5.761   4.118   3.821  0.00  0.00    +0.000 A 
ATOM     36  C   UNL     1       4.814   3.285   4.387  0.00  0.00    +0.005 A 
ENDBRANCH  30  31
ENDBRANCH  28  30
ENDBRANCH  27  28
ENDBRANCH   1  27
TORSDOF 9
