REMARK  Name = ZINC20667546
REMARK  5 active torsions:
REMARK  status: ('A' for Active; 'I' for Inactive)
REMARK    1  A    between atoms: C_5  and  C_7
REMARK    2  A    between atoms: C_10  and  S_12
REMARK    3  A    between atoms: S_12  and  C_13
REMARK    4  A    between atoms: C_16  and  C_22
REMARK    5  A    between atoms: C_18  and  N_19
REMARK                            x       y       z     vdW  Elec       q    Type
REMARK                         _______ _______ _______ _____ _____    ______ ____
ROOT
ATOM      1  C   UNL     1      -6.600   5.874   0.061  0.00  0.00    +0.047 A 
ATOM      2  C   UNL     1      -5.539   6.778  -0.040  0.00  0.00    +0.018 A 
ATOM      3  C   UNL     1      -5.784   8.122  -0.065  0.00  0.00    +0.014 A 
ATOM      4  C   UNL     1      -7.095   8.598   0.021  0.00  0.00    +0.039 A 
ATOM      5  C   UNL     1      -8.160   7.698   0.128  0.00  0.00    +0.047 A 
ATOM      6  C   UNL     1      -7.913   6.344   0.148  0.00  0.00    +0.141 A 
ENDROOT
BRANCH   4   7
ATOM      7  C   UNL     1      -7.356  10.053  -0.000  0.00  0.00    +0.242 C 
ATOM      8  O   UNL     1      -8.497  10.466   0.075  0.00  0.00    -0.270 OA
ATOM      9  N   UNL     1      -6.330  10.920  -0.103  0.00  0.00    -0.325 N 
ATOM     10  H   UNL     1      -6.525  12.003  -0.119  0.00  0.00    +0.145 HD
ATOM     11  H   UNL     1      -5.298  10.546  -0.171  0.00  0.00    +0.145 HD
ENDBRANCH   4   7
BRANCH   6  12
ATOM     12  N   UNL     1      -9.042   5.383   0.261  0.00  0.00    +0.058 N 
ATOM     13  O   UNL     1     -10.279   5.827   0.342  0.00  0.00    -0.126 OA
ATOM     14  O   UNL     1      -8.805   4.087   0.279  0.00  0.00    -0.126 OA
ENDBRANCH   6  12
BRANCH   1  15
ATOM     15  S   UNL     1      -6.281   4.141   0.087  0.00  0.00    -0.027 S 
BRANCH  15  19
ATOM     16  C   UNL     1      -7.136   2.623  -3.329  0.00  0.00    +0.250 A 
ATOM     17  N   UNL     1      -7.318   3.946  -3.574  0.00  0.00    -0.106 NA
ATOM     18  N   UNL     1      -7.064   4.608  -2.500  0.00  0.00    -0.100 NA
ATOM     19  C   UNL     1      -6.709   3.736  -1.521  0.00  0.00    +0.282 A 
ATOM     20  O   UNL     1      -6.761   2.494  -2.042  0.00  0.00    -0.411 OA
BRANCH  16  25
ATOM     21  C   UNL     1      -7.266  -0.775  -4.766  0.00  0.00    +0.001 A 
ATOM     22  C   UNL     1      -7.663  -0.496  -6.068  0.00  0.00    +0.001 A 
ATOM     23  C   UNL     1      -7.889   0.812  -6.470  0.00  0.00    +0.016 A 
ATOM     24  C   UNL     1      -7.719   1.849  -5.580  0.00  0.00    +0.030 A 
ATOM     25  C   UNL     1      -7.315   1.570  -4.256  0.00  0.00    +0.052 A 
ATOM     26  C   UNL     1      -7.097   0.233  -3.864  0.00  0.00    +0.014 A 
ATOM     27 BR   UNL     1      -8.026   3.633  -6.126  0.00  0.00    -0.050 Br
ENDBRANCH  16  25
ENDBRANCH  15  19
ENDBRANCH   1  15
TORSDOF 5
