REMARK  Name = ZINC50865950
REMARK  7 active torsions:
REMARK  status: ('A' for Active; 'I' for Inactive)
REMARK    1  A    between atoms: C_1  and  C_2
REMARK    2  A    between atoms: C_6  and  C_9
REMARK    3  A    between atoms: C_7  and  C_8
REMARK    4  A    between atoms: C_11  and  C_18
REMARK    5  A    between atoms: C_12  and  C_17
REMARK    6  A    between atoms: C_13  and  N_15
REMARK    7  A    between atoms: N_15  and  C_16
REMARK                            x       y       z     vdW  Elec       q    Type
REMARK                         _______ _______ _______ _____ _____    ______ ____
ROOT
ATOM      1  C   UNL     1      -0.072  -2.700   2.541  0.00  0.00    +0.162 A 
ATOM      2  N   UNL     1      -0.132  -4.024   2.586  0.00  0.00    -0.232 NA
ATOM      3  C   UNL     1      -0.176  -4.665   3.743  0.00  0.00    +0.047 A 
ATOM      4  C   UNL     1      -0.160  -3.939   4.919  0.00  0.00    +0.010 A 
ATOM      5  C   UNL     1      -0.097  -2.545   4.841  0.00  0.00    +0.125 A 
ATOM      6  N   UNL     1      -0.050  -1.968   3.646  0.00  0.00    -0.213 NA
ATOM      7  C   UNL     1      -0.210  -4.634   6.255  0.00  0.00    +0.049 C 
ATOM      8  C   UNL     1      -0.244  -6.170   3.779  0.00  0.00    +0.066 C 
ENDROOT
BRANCH   1  14
ATOM      9  C   UNL     1      -1.843  -2.133  -2.093  0.00  0.00    +0.044 C 
ATOM     10  C   UNL     1      -0.873  -1.747  -1.006  0.00  0.00    -0.047 A 
ATOM     11  C   UNL     1       0.066  -0.758  -1.238  0.00  0.00    +0.003 A 
ATOM     12  C   UNL     1       0.960  -0.398  -0.246  0.00  0.00    +0.001 A 
ATOM     13  C   UNL     1       0.919  -1.026   0.983  0.00  0.00    +0.012 A 
ATOM     14  C   UNL     1      -0.024  -2.023   1.223  0.00  0.00    +0.022 A 
ATOM     15  C   UNL     1      -0.926  -2.377   0.221  0.00  0.00    -0.037 A 
ATOM     16  C   UNL     1      -1.954  -3.450   0.474  0.00  0.00    +0.045 C 
ENDBRANCH   1  14
BRANCH   5  17
ATOM     17  N   UNL     1      -0.079  -1.777   5.994  0.00  0.00    -0.332 N 
ATOM     18  C   UNL     1      -0.013  -0.317   5.900  0.00  0.00    +0.127 C 
ATOM     19  H   UNL     1      -0.110  -2.206   6.863  0.00  0.00    +0.147 HD
ENDBRANCH   5  17
TORSDOF 2
