REMARK  Name = ZINC64044292
REMARK  7 active torsions:
REMARK  status: ('A' for Active; 'I' for Inactive)
REMARK    1  A    between atoms: C_1  and  O_2
REMARK    2  A    between atoms: O_2  and  C_3
REMARK    3  A    between atoms: C_3  and  C_5
REMARK    4  A    between atoms: N_10  and  C_27
REMARK    5  A    between atoms: N_14  and  C_17
REMARK    6  A    between atoms: C_17  and  C_18
REMARK    7  A    between atoms: C_27  and  C_28
REMARK                            x       y       z     vdW  Elec       q    Type
REMARK                         _______ _______ _______ _____ _____    ______ ____
ROOT
ATOM      1  C   UNL     1       0.612  -1.515  -1.050  0.00  0.00    +0.130 C 
ATOM      2  C   UNL     1      -0.789  -2.171  -1.033  0.00  0.00    +0.112 C 
ATOM      3  C   UNL     1      -1.050  -2.527  -2.481  0.00  0.00    +0.217 C 
ATOM      4  O   UNL     1      -2.136  -2.802  -2.944  0.00  0.00    -0.276 OA
ATOM      5  N   UNL     1       0.100  -2.492  -3.180  0.00  0.00    -0.291 N 
ATOM      6  C   UNL     1       1.229  -2.127  -2.322  0.00  0.00    +0.048 C 
ATOM      7  C   UNL     1       2.118  -1.096  -3.014  0.00  0.00    +0.008 C 
ATOM      8  C   UNL     1       2.783  -1.740  -4.234  0.00  0.00    -0.076 C 
ATOM      9  N   UNL     1       3.586  -2.892  -3.804  0.00  0.00    +0.382 N 
ATOM     10  C   UNL     1       2.715  -3.918  -3.218  0.00  0.00    -0.076 C 
ATOM     11  C   UNL     1       2.047  -3.364  -1.957  0.00  0.00    +0.008 C 
ATOM     12  H   UNL     1       4.260  -2.592  -3.116  0.00  0.00    -0.081 HD
ENDROOT
BRANCH   1  13
ATOM     13  C   UNL     1       0.504  -0.016  -1.169  0.00  0.00    +0.312 C 
ATOM     14  O   UNL     1      -0.451   0.479  -1.720  0.00  0.00    -0.250 OA
BRANCH  13  16
ATOM     15  C   UNL     1       1.302   2.180  -0.813  0.00  0.00    +0.280 C 
ATOM     16  O   UNL     1       1.469   0.768  -0.664  0.00  0.00    -0.468 OA
ENDBRANCH  13  16
ENDBRANCH   1  13
BRANCH   9  17
ATOM     17  C   UNL     1       4.291  -3.454  -4.964  0.00  0.00    -0.045 C 
BRANCH  17  18
ATOM     18  C   UNL     1       5.210  -4.558  -4.506  0.00  0.00    -0.058 C 
ATOM     19  C   UNL     1       4.942  -5.883  -4.488  0.00  0.00    -0.003 A 
ATOM     20  C   UNL     1       3.761  -6.665  -4.873  0.00  0.00    +0.010 A 
ATOM     21  C   UNL     1       3.791  -8.010  -4.737  0.00  0.00    +0.001 A 
ATOM     22  C   UNL     1       4.920  -8.675  -4.239  0.00  0.00    +0.002 A 
ATOM     23  C   UNL     1       6.042  -8.026  -3.864  0.00  0.00    +0.026 A 
ATOM     24  C   UNL     1       6.121  -6.609  -3.965  0.00  0.00    +0.043 A 
ATOM     25  N   UNL     1       7.080  -5.766  -3.670  0.00  0.00    -0.380 N 
ATOM     26  C   UNL     1       6.619  -4.407  -3.980  0.00  0.00    +0.142 C 
ATOM     27  H   UNL     1       7.950  -6.000  -3.312  0.00  0.00    +0.160 HD
ENDBRANCH  17  18
ENDBRANCH   9  17
BRANCH   5  28
ATOM     28  C   UNL     1       0.207  -2.781  -4.612  0.00  0.00    +0.135 C 
BRANCH  28  29
ATOM     29  C   UNL     1       0.016  -1.509  -5.397  0.00  0.00    -0.016 C 
ATOM     30  C   UNL     1       0.892  -1.163  -6.308  0.00  0.00    +0.005 C 
ENDBRANCH  28  29
ENDBRANCH   5  28
TORSDOF 6
