REMARK  Name = ZINC59165713
REMARK  5 active torsions:
REMARK  status: ('A' for Active; 'I' for Inactive)
REMARK    1  A    between atoms: C_9  and  C_11
REMARK    2  A    between atoms: N_12  and  N_13
REMARK    3  A    between atoms: C_14  and  C_16
REMARK    4  A    between atoms: C_16  and  C_17
REMARK    5  A    between atoms: C_20  and  N_23
REMARK                            x       y       z     vdW  Elec       q    Type
REMARK                         _______ _______ _______ _____ _____    ______ ____
ROOT
ATOM      1  N   UNL     1       7.331  -2.465  -0.083  0.00  0.00    -0.207 N 
ATOM      2  C   UNL     1       8.455  -1.721  -0.090  0.00  0.00    +0.237 C 
ATOM      3  O   UNL     1       8.382  -0.511  -0.083  0.00  0.00    -0.274 OA
ATOM      4  H   UNL     1       7.389  -3.433  -0.089  0.00  0.00    +0.177 HD
ENDROOT
BRANCH   1   6
ATOM      5  C   UNL     1       4.995  -2.555  -0.060  0.00  0.00    +0.158 C 
ATOM      6  N   UNL     1       6.077  -1.839  -0.067  0.00  0.00    -0.186 NA
BRANCH   5  15
ATOM      7  C   UNL     1      -0.016   1.358   0.009  0.00  0.00    +0.001 A 
ATOM      8  C   UNL     1       1.169   2.089   0.002  0.00  0.00    +0.002 A 
ATOM      9  C   UNL     1       2.379   1.466  -0.013  0.00  0.00    +0.028 A 
ATOM     10  C   UNL     1       2.439   0.060  -0.021  0.00  0.00    +0.072 A 
ATOM     11  C   UNL     1       1.231  -0.682  -0.013  0.00  0.00    +0.000 A 
ATOM     12  C   UNL     1       0.002  -0.004   0.002  0.00  0.00    +0.010 A 
ATOM     13  C   UNL     1       1.288  -2.090  -0.021  0.00  0.00    +0.012 A 
ATOM     14  C   UNL     1       2.513  -2.687  -0.036  0.00  0.00    +0.030 A 
ATOM     15  C   UNL     1       3.676  -1.897  -0.044  0.00  0.00    +0.084 A 
ATOM     16  N   UNL     1       3.613  -0.577  -0.036  0.00  0.00    -0.246 NA
ENDBRANCH   5  15
ENDBRANCH   1   6
BRANCH   2  17
ATOM     17  C   UNL     1       9.803  -2.394  -0.107  0.00  0.00    +0.132 C 
BRANCH  17  18
ATOM     18  C   UNL     1      10.887  -1.347  -0.112  0.00  0.00    -0.038 A 
ATOM     19  C   UNL     1      11.369  -0.857  -1.312  0.00  0.00    +0.006 A 
ATOM     20  C   UNL     1      12.363   0.103  -1.317  0.00  0.00    +0.033 A 
ATOM     21  C   UNL     1      12.876   0.573  -0.122  0.00  0.00    +0.126 A 
ATOM     22  C   UNL     1      12.394   0.084   1.077  0.00  0.00    +0.033 A 
ATOM     23  C   UNL     1      11.396  -0.874   1.082  0.00  0.00    +0.006 A 
BRANCH  21  24
ATOM     24  N   UNL     1      13.941   1.601  -0.127  0.00  0.00    +0.056 N 
ATOM     25  O   UNL     1      14.363   2.029  -1.176  0.00  0.00    -0.126 OA
ATOM     26  O   UNL     1      14.389   2.012   0.918  0.00  0.00    -0.126 OA
ENDBRANCH  21  24
ENDBRANCH  17  18
ENDBRANCH   2  17
TORSDOF 5
