REMARK  Name = ZINC14596070
REMARK  8 active torsions:
REMARK  status: ('A' for Active; 'I' for Inactive)
REMARK    1  A    between atoms: C_1  and  C_2
REMARK    2  A    between atoms: C_5  and  C_30
REMARK    3  A    between atoms: C_13  and  S_21
REMARK    4  A    between atoms: N_14  and  C_15
REMARK    5  A    between atoms: C_15  and  C_16
REMARK    6  A    between atoms: S_21  and  C_22
REMARK    7  A    between atoms: C_22  and  C_23
REMARK    8  A    between atoms: N_28  and  C_29
REMARK                            x       y       z     vdW  Elec       q    Type
REMARK                         _______ _______ _______ _____ _____    ______ ____
ROOT
ATOM      1  C   UNL     1       0.662  -1.923  -1.089  0.00  0.00    +0.009 C 
ATOM      2  C   UNL     1       0.784  -0.905   0.048  0.00  0.00    +0.004 C 
ATOM      3  C   UNL     1      -0.324   0.143  -0.082  0.00  0.00    +0.009 C 
ATOM      4  C   UNL     1      -0.158   1.190   1.023  0.00  0.00    +0.004 C 
ATOM      5  C   UNL     1       1.232   1.821   0.916  0.00  0.00    +0.111 C 
ATOM      6  N   UNL     1       2.257   0.778   1.047  0.00  0.00    -0.299 N 
ATOM      7  C   UNL     1       2.147  -0.213  -0.031  0.00  0.00    +0.111 C 
ATOM      8  C   UNL     1       3.530   1.332   1.086  0.00  0.00    +0.221 A 
ATOM      9  N   UNL     1       4.119   1.976   0.109  0.00  0.00    -0.112 NA
ATOM     10  N   UNL     1       5.388   2.370   0.553  0.00  0.00    -0.121 NA
ATOM     11  C   UNL     1       5.532   1.954   1.788  0.00  0.00    +0.194 A 
ATOM     12  N   UNL     1       4.384   1.307   2.151  0.00  0.00    -0.283 N 
ATOM     13  C   UNL     1      -1.226   2.274   0.865  0.00  0.00    +0.009 C 
ENDROOT
BRANCH  12  14
ATOM     14  C   UNL     1       4.119   0.690   3.453  0.00  0.00    +0.201 C 
BRANCH  14  15
ATOM     15  C   UNL     1       4.465  -0.776   3.395  0.00  0.00    +0.125 A 
ATOM     16  C   UNL     1       5.666  -1.313   3.674  0.00  0.00    +0.046 A 
ATOM     17  C   UNL     1       5.543  -2.709   3.494  0.00  0.00    +0.041 A 
ATOM     18  C   UNL     1       4.275  -2.942   3.107  0.00  0.00    +0.195 A 
ATOM     19  O   UNL     1       3.627  -1.767   3.049  0.00  0.00    -0.466 OA
ENDBRANCH  14  15
ENDBRANCH  12  14
BRANCH  11  20
ATOM     20  S   UNL     1       6.952   2.194   2.803  0.00  0.00    -0.077 S 
BRANCH  20  21
ATOM     21  C   UNL     1       8.098   3.119   1.743  0.00  0.00    +0.173 C 
BRANCH  21  22
ATOM     22  C   UNL     1       9.371   3.394   2.500  0.00  0.00    +0.231 C 
ATOM     23  O   UNL     1       9.494   3.005   3.642  0.00  0.00    -0.274 OA
ATOM     24  N   UNL     1      10.374   4.072   1.908  0.00  0.00    -0.240 N 
ATOM     25  C   UNL     1      11.513   4.318   2.586  0.00  0.00    +0.306 C 
ATOM     26  O   UNL     1      11.636   3.928   3.730  0.00  0.00    -0.252 OA
ATOM     27  N   UNL     1      12.516   4.997   1.994  0.00  0.00    -0.302 N 
ATOM     28  C   UNL     1      13.754   5.264   2.729  0.00  0.00    +0.129 C 
ATOM     29  H   UNL     1      10.263   4.425   0.873  0.00  0.00    +0.159 HD
ATOM     30  H   UNL     1      12.405   5.349   0.958  0.00  0.00    +0.150 HD
ENDBRANCH  21  22
ENDBRANCH  20  21
ENDBRANCH  11  20
TORSDOF 5
