REMARK  Name = ZINC39915913
REMARK  15 active torsions:
REMARK  status: ('A' for Active; 'I' for Inactive)
REMARK    1  A    between atoms: C_1  and  C_2
REMARK    2  A    between atoms: C_2  and  C_3
REMARK    3  A    between atoms: C_2  and  C_4
REMARK    4  A    between atoms: C_4  and  C_5
REMARK    5  A    between atoms: C_5  and  O_6
REMARK    6  A    between atoms: O_6  and  C_7
REMARK    7  A    between atoms: C_10  and  C_13
REMARK    8  A    between atoms: C_13  and  N_14
REMARK    9  A    between atoms: C_22  and  S_23
REMARK   10  A    between atoms: S_23  and  C_24
REMARK   11  A    between atoms: C_26  and  O_39
REMARK   12  A    between atoms: C_28  and  O_38
REMARK   13  A    between atoms: C_30  and  O_37
REMARK   14  A    between atoms: C_32  and  C_35
REMARK   15  A    between atoms: C_35  and  O_36
REMARK                            x       y       z     vdW  Elec       q    Type
REMARK                         _______ _______ _______ _____ _____    ______ ____
ROOT
ATOM      1  N   UNL     1      -2.909  -0.543   9.157  0.00  0.00    -0.314 N 
ATOM      2  C   UNL     1      -4.263  -0.685   8.900  0.00  0.00    +0.070 A 
ATOM      3  C   UNL     1      -5.210   0.106   8.268  0.00  0.00    +0.028 A 
ATOM      4  C   UNL     1      -6.516  -0.329   8.172  0.00  0.00    +0.002 A 
ATOM      5  C   UNL     1      -6.889  -1.554   8.706  0.00  0.00    +0.002 A 
ATOM      6  C   UNL     1      -5.962  -2.352   9.338  0.00  0.00    +0.030 A 
ATOM      7  C   UNL     1      -4.636  -1.926   9.442  0.00  0.00    +0.090 A 
ATOM      8  N   UNL     1      -3.520  -2.474   9.992  0.00  0.00    -0.222 NA
ATOM      9  C   UNL     1      -2.503  -1.666   9.820  0.00  0.00    +0.173 A 
ENDROOT
BRANCH   1  10
ATOM     10  C   UNL     1      -2.068   0.596   8.781  0.00  0.00    +0.159 C 
BRANCH  10  14
ATOM     11  C   UNL     1      -0.414  -0.073   4.898  0.00  0.00    +0.121 A 
ATOM     12  C   UNL     1      -1.635   0.573   5.031  0.00  0.00    +0.046 A 
ATOM     13  C   UNL     1      -2.167   0.788   6.288  0.00  0.00    +0.009 A 
ATOM     14  C   UNL     1      -1.485   0.360   7.412  0.00  0.00    -0.027 A 
ATOM     15  C   UNL     1      -0.269  -0.284   7.281  0.00  0.00    +0.009 A 
ATOM     16  C   UNL     1       0.265  -0.507   6.027  0.00  0.00    +0.046 A 
BRANCH  11  17
ATOM     17  O   UNL     1       0.112  -0.286   3.663  0.00  0.00    -0.492 OA
BRANCH  17  18
ATOM     18  C   UNL     1      -0.643   0.188   2.546  0.00  0.00    +0.229 C 
BRANCH  18  19
ATOM     19  C   UNL     1       0.102  -0.141   1.251  0.00  0.00    +0.044 C 
BRANCH  19  21
ATOM     20  C   UNL     1      -0.782   1.894   0.102  0.00  0.00    +0.007 C 
ATOM     21  C   UNL     1      -0.706   0.366   0.055  0.00  0.00    -0.014 C 
ATOM     22  C   UNL     1      -0.024  -0.071  -1.244  0.00  0.00    +0.007 C 
ENDBRANCH  19  21
ENDBRANCH  18  19
ENDBRANCH  17  18
ENDBRANCH  11  17
ENDBRANCH  10  14
ENDBRANCH   1  10
BRANCH   9  23
ATOM     23  S   UNL     1      -0.858  -1.979  10.369  0.00  0.00    -0.054 S 
BRANCH  23  24
ATOM     24  C   UNL     1      -0.962  -3.605  11.165  0.00  0.00    +0.214 C 
ATOM     25  C   UNL     1       0.438  -4.059  11.584  0.00  0.00    +0.185 C 
ATOM     26  C   UNL     1       0.335  -5.405  12.309  0.00  0.00    +0.177 C 
ATOM     27  C   UNL     1      -0.610  -5.256  13.506  0.00  0.00    +0.176 C 
ATOM     28  C   UNL     1      -1.970  -4.755  13.013  0.00  0.00    +0.176 C 
ATOM     29  O   UNL     1      -1.798  -3.517  12.321  0.00  0.00    -0.355 OA
BRANCH  27  30
ATOM     30  O   UNL     1      -0.770  -6.522  14.148  0.00  0.00    -0.386 OA
ATOM     31  H   UNL     1       0.055  -6.901  14.482  0.00  0.00    +0.210 HD
ENDBRANCH  27  30
BRANCH  26  32
ATOM     32  O   UNL     1      -0.178  -6.393  11.413  0.00  0.00    -0.386 OA
ATOM     33  H   UNL     1       0.369  -6.534  10.628  0.00  0.00    +0.210 HD
ENDBRANCH  26  32
BRANCH  25  34
ATOM     34  O   UNL     1       1.260  -4.203  10.424  0.00  0.00    -0.386 OA
ATOM     35  H   UNL     1       1.366  -3.388   9.914  0.00  0.00    +0.210 HD
ENDBRANCH  25  34
BRANCH  28  36
ATOM     36  C   UNL     1      -2.582  -5.789  12.065  0.00  0.00    +0.190 C 
BRANCH  36  37
ATOM     37  O   UNL     1      -3.913  -5.396  11.726  0.00  0.00    -0.392 OA
ATOM     38  H   UNL     1      -4.362  -6.006  11.126  0.00  0.00    +0.210 HD
ENDBRANCH  36  37
ENDBRANCH  28  36
ENDBRANCH  23  24
ENDBRANCH   9  23
TORSDOF 13
