REMARK  Name = ZINC66249695
REMARK  7 active torsions:
REMARK  status: ('A' for Active; 'I' for Inactive)
REMARK    1  A    between atoms: C_1  and  C_2
REMARK    2  A    between atoms: C_6  and  S_12
REMARK    3  A    between atoms: C_7  and  C_8
REMARK    4  A    between atoms: C_8  and  O_10
REMARK    5  A    between atoms: O_10  and  C_11
REMARK    6  A    between atoms: S_12  and  N_15
REMARK    7  A    between atoms: C_22  and  C_26
REMARK                            x       y       z     vdW  Elec       q    Type
REMARK                         _______ _______ _______ _____ _____    ______ ____
ROOT
ATOM      1  S   UNL     1       0.056  -3.008   2.703  0.00  0.00    +0.102 S 
ATOM      2  O   UNL     1      -0.973  -2.460   3.515  0.00  0.00    -0.146 OA
ATOM      3  O   UNL     1       0.100  -4.385   2.356  0.00  0.00    -0.146 OA
ENDROOT
BRANCH   1   4
ATOM      4  N   UNL     1       1.489  -2.664   3.459  0.00  0.00    -0.103 NA
ATOM      5  C   UNL     1       1.765  -3.208   4.619  0.00  0.00    +0.192 A 
ATOM      6  N   UNL     1       1.019  -4.084   5.370  0.00  0.00    -0.336 N 
ATOM      7  C   UNL     1       1.508  -4.537   6.577  0.00  0.00    +0.028 A 
ATOM      8  C   UNL     1       2.710  -4.091   6.963  0.00  0.00    +0.013 A 
ATOM      9  S   UNL     1       3.216  -3.018   5.644  0.00  0.00    -0.053 S 
ATOM     10  C   UNL     1       3.455  -4.426   8.215  0.00  0.00    +0.047 C 
ATOM     11  C   UNL     1       2.481  -5.093   9.198  0.00  0.00    -0.009 C 
ATOM     12  C   UNL     1       1.692  -6.169   8.447  0.00  0.00    +0.010 C 
ATOM     13  C   UNL     1       0.728  -5.511   7.459  0.00  0.00    +0.054 C 
ATOM     14  C   UNL     1       3.266  -5.732  10.345  0.00  0.00    +0.008 C 
ATOM     15  H   UNL     1       0.152  -4.382   5.053  0.00  0.00    +0.168 HD
ENDBRANCH   1   4
BRANCH   1  21
ATOM     16  C   UNL     1      -0.018   1.503   0.010  0.00  0.00    +0.044 C 
ATOM     17  C   UNL     1       0.002  -0.004   0.002  0.00  0.00    -0.035 A 
ATOM     18  C   UNL     1       0.006  -0.689  -1.196  0.00  0.00    +0.004 A 
ATOM     19  C   UNL     1       0.025  -2.072  -1.205  0.00  0.00    +0.002 A 
ATOM     20  C   UNL     1       0.040  -2.778  -0.015  0.00  0.00    +0.030 A 
ATOM     21  C   UNL     1       0.037  -2.107   1.189  0.00  0.00    +0.127 A 
ATOM     22  C   UNL     1       0.023  -0.710   1.206  0.00  0.00    +0.089 A 
BRANCH  22  23
ATOM     23  C   UNL     1       0.025   0.017   2.492  0.00  0.00    +0.341 C 
ATOM     24  O   UNL     1      -1.026   0.301   3.031  0.00  0.00    -0.245 OA
BRANCH  23  25
ATOM     25  O   UNL     1       1.192   0.364   3.068  0.00  0.00    -0.464 OA
ATOM     26  C   UNL     1       1.119   1.065   4.311  0.00  0.00    +0.280 C 
ENDBRANCH  23  25
ENDBRANCH  22  23
ENDBRANCH   1  21
TORSDOF 4
