REMARK  Name = ZINC02098890
REMARK  12 active torsions:
REMARK  status: ('A' for Active; 'I' for Inactive)
REMARK    1  A    between atoms: C_10  and  C_12
REMARK    2  A    between atoms: C_12  and  N_66
REMARK    3  A    between atoms: C_13  and  C_14
REMARK    4  A    between atoms: C_13  and  N_66
REMARK    5  A    between atoms: C_14  and  C_15
REMARK    6  A    between atoms: C_15  and  C_16
REMARK    7  A    between atoms: C_16  and  C_17
REMARK    8  A    between atoms: C_17  and  C_18
REMARK    9  A    between atoms: C_18  and  C_19
REMARK   10  A    between atoms: C_19  and  N_69
REMARK   11  A    between atoms: C_20  and  C_21
REMARK   12  A    between atoms: C_20  and  N_69
REMARK                            x       y       z     vdW  Elec       q    Type
REMARK                         _______ _______ _______ _____ _____    ______ ____
ROOT
ATOM      1  C   UNL     1      -6.619   1.581  -3.317  0.00  0.00    -0.000 C 
ENDROOT
BRANCH   1   2
ATOM      2  C   UNL     1      -5.160   2.025  -3.433  0.00  0.00    -0.002 C 
BRANCH   2   3
ATOM      3  C   UNL     1      -4.380   1.539  -2.209  0.00  0.00    -0.019 C 
BRANCH   3   4
ATOM      4  C   UNL     1      -2.921   1.984  -2.325  0.00  0.00    -0.082 C 
BRANCH   4   5
ATOM      5  N   UNL     1      -2.176   1.511  -1.143  0.00  0.00    +0.381 N 
ATOM      6  H   UNL     1      -2.596   1.911  -0.296  0.00  0.00    -0.086 HD
ATOM      7  H   UNL     1      -2.226   0.487  -1.099  0.00  0.00    -0.086 HD
BRANCH   5   8
ATOM      8  C   UNL     1      -0.763   1.927  -1.228  0.00  0.00    -0.046 C 
BRANCH   8  18
ATOM      9  C   UNL     1       3.946   3.027  -0.034  0.00  0.00    +0.000 A 
ATOM     10  C   UNL     1       2.862   3.827  -0.345  0.00  0.00    +0.000 A 
ATOM     11  C   UNL     1       1.587   3.296  -0.328  0.00  0.00    +0.006 A 
ATOM     12  C   UNL     1       1.389   1.964  -0.001  0.00  0.00    -0.017 A 
ATOM     13  C   UNL     1       2.470   1.166   0.308  0.00  0.00    -0.040 A 
ATOM     14  C   UNL     1       3.749   1.700   0.292  0.00  0.00    +0.004 A 
ATOM     15  C   UNL     1       2.296  -0.289   0.664  0.00  0.00    +0.063 C 
ATOM     16  C   UNL     1       0.835  -0.561   1.026  0.00  0.00    +0.165 C 
ATOM     17  O   UNL     1       0.002  -0.004   0.002  0.00  0.00    -0.374 OA
ATOM     18  C   UNL     1      -0.017   1.423   0.010  0.00  0.00    +0.132 C 
ENDBRANCH   8  18
ENDBRANCH   5   8
ENDBRANCH   4   5
ENDBRANCH   3   4
ENDBRANCH   2   3
ENDBRANCH   1   2
BRANCH   1  19
ATOM     19  C   UNL     1      -7.399   2.067  -4.540  0.00  0.00    -0.002 C 
BRANCH  19  20
ATOM     20  C   UNL     1      -8.858   1.622  -4.424  0.00  0.00    -0.019 C 
BRANCH  20  21
ATOM     21  C   UNL     1      -9.638   2.109  -5.647  0.00  0.00    -0.082 C 
BRANCH  21  22
ATOM     22  N   UNL     1     -11.044   1.676  -5.528  0.00  0.00    +0.381 N 
ATOM     23  H   UNL     1     -11.450   2.075  -4.674  0.00  0.00    -0.086 HD
ATOM     24  H   UNL     1     -11.079   0.651  -5.477  0.00  0.00    -0.086 HD
BRANCH  22  25
ATOM     25  C   UNL     1     -11.821   2.132  -6.696  0.00  0.00    -0.046 C 
BRANCH  25  26
ATOM     26  C   UNL     1     -13.271   1.669  -6.544  0.00  0.00    +0.132 C 
ATOM     27  C   UNL     1     -14.036   2.007  -7.797  0.00  0.00    -0.017 A 
ATOM     28  C   UNL     1     -13.445   1.758  -9.026  0.00  0.00    +0.006 A 
ATOM     29  C   UNL     1     -14.118   2.051 -10.195  0.00  0.00    +0.000 A 
ATOM     30  C   UNL     1     -15.387   2.597 -10.142  0.00  0.00    +0.000 A 
ATOM     31  C   UNL     1     -15.976   2.848  -8.918  0.00  0.00    +0.004 A 
ATOM     32  C   UNL     1     -15.301   2.554  -7.744  0.00  0.00    -0.040 A 
ATOM     33  C   UNL     1     -15.975   2.845  -6.428  0.00  0.00    +0.063 C 
ATOM     34  C   UNL     1     -15.268   2.084  -5.305  0.00  0.00    +0.165 C 
ATOM     35  O   UNL     1     -13.859   2.317  -5.417  0.00  0.00    -0.374 OA
ENDBRANCH  25  26
ENDBRANCH  22  25
ENDBRANCH  21  22
ENDBRANCH  20  21
ENDBRANCH  19  20
ENDBRANCH   1  19
TORSDOF 12
