REMARK  Name = ZINC65583923
REMARK  11 active torsions:
REMARK  status: ('A' for Active; 'I' for Inactive)
REMARK    1  A    between atoms: C_1  and  C_2
REMARK    2  A    between atoms: C_2  and  C_3
REMARK    3  A    between atoms: C_3  and  C_4
REMARK    4  A    between atoms: C_4  and  C_5
REMARK    5  A    between atoms: C_5  and  C_6
REMARK    6  A    between atoms: C_5  and  N_24
REMARK    7  A    between atoms: N_8  and  C_9
REMARK    8  A    between atoms: C_9  and  C_10
REMARK    9  A    between atoms: C_9  and  C_11
REMARK   10  A    between atoms: N_14  and  C_17
REMARK   11  A    between atoms: C_15  and  C_16
REMARK                            x       y       z     vdW  Elec       q    Type
REMARK                         _______ _______ _______ _____ _____    ______ ____
ROOT
ATOM      1  C   UNL     1      -2.663  -4.237  -0.046  0.00  0.00    +0.234 C 
ATOM      2  O   UNL     1      -2.659  -4.986   0.908  0.00  0.00    -0.274 OA
ATOM      3  N   UNL     1      -2.573  -4.737  -1.295  0.00  0.00    -0.307 N 
ATOM      4  H   UNL     1      -2.576  -4.138  -2.058  0.00  0.00    +0.149 HD
ENDROOT
BRANCH   3   5
ATOM      5  C   UNL     1      -2.472  -6.184  -1.499  0.00  0.00    +0.103 C 
ATOM      6  C   UNL     1      -1.009  -6.614  -1.380  0.00  0.00    +0.033 C 
BRANCH   5   7
ATOM      7  C   UNL     1      -2.989  -6.535  -2.871  0.00  0.00    +0.013 A 
ATOM      8  C   UNL     1      -3.025  -5.682  -3.979  0.00  0.00    +0.140 A 
ATOM      9  N   UNL     1      -3.539  -6.342  -4.987  0.00  0.00    -0.174 NA
ATOM     10  N   UNL     1      -3.846  -7.637  -4.551  0.00  0.00    -0.237 N 
ATOM     11  C   UNL     1      -3.494  -7.732  -3.249  0.00  0.00    +0.047 A 
ATOM     12  C   UNL     1      -3.640  -8.951  -2.375  0.00  0.00    +0.066 C 
BRANCH  10  13
ATOM     13  C   UNL     1      -4.414  -8.657  -5.329  0.00  0.00    +0.066 A 
ATOM     14  C   UNL     1      -5.411  -9.463  -4.796  0.00  0.00    +0.030 A 
ATOM     15  C   UNL     1      -5.969 -10.466  -5.564  0.00  0.00    +0.040 A 
ATOM     16  C   UNL     1      -5.536 -10.668  -6.864  0.00  0.00    +0.124 A 
ATOM     17  C   UNL     1      -4.541  -9.864  -7.396  0.00  0.00    +0.040 A 
ATOM     18  C   UNL     1      -3.984  -8.857  -6.633  0.00  0.00    +0.030 A 
ATOM     19  F   UNL     1      -6.083 -11.650  -7.613  0.00  0.00    -0.205 F 
ENDBRANCH  10  13
ENDBRANCH   5   7
ENDBRANCH   3   5
BRANCH   1  20
ATOM     20  C   UNL     1      -2.767  -2.749   0.164  0.00  0.00    +0.160 C 
BRANCH  20  21
ATOM     21  N   UNL     1      -3.319  -2.481   1.494  0.00  0.00    -0.288 N 
ATOM     22  C   UNL     1      -2.674  -2.921   2.593  0.00  0.00    +0.298 C 
ATOM     23  O   UNL     1      -1.633  -3.539   2.480  0.00  0.00    -0.253 OA
ATOM     24  N   UNL     1      -3.182  -2.674   3.817  0.00  0.00    -0.313 N 
ATOM     25  H   UNL     1      -4.149  -1.987   1.585  0.00  0.00    +0.151 HD
ATOM     26  H   UNL     1      -4.012  -2.181   3.907  0.00  0.00    +0.146 HD
ATOM     27  H   UNL     1      -2.718  -2.991   4.607  0.00  0.00    +0.146 HD
ENDBRANCH  20  21
BRANCH  20  28
ATOM     28  C   UNL     1      -1.377  -2.119   0.053  0.00  0.00    +0.032 C 
BRANCH  28  29
ATOM     29  C   UNL     1      -1.498  -0.597   0.142  0.00  0.00    +0.002 C 
BRANCH  29  31
ATOM     30  C   UNL     1      -0.229   1.555   0.120  0.00  0.00    +0.004 C 
ATOM     31  C   UNL     1      -0.108   0.033   0.031  0.00  0.00    -0.003 C 
ENDBRANCH  29  31
ENDBRANCH  28  29
ENDBRANCH  20  28
ENDBRANCH   1  20
TORSDOF 8
