REMARK  Name = ZINC04664486
REMARK  10 active torsions:
REMARK  status: ('A' for Active; 'I' for Inactive)
REMARK    1  A    between atoms: C_1  and  C_2
REMARK    2  A    between atoms: C_3  and  C_25
REMARK    3  A    between atoms: C_4  and  C_10
REMARK    4  A    between atoms: C_13  and  O_20
REMARK    5  A    between atoms: O_20  and  C_21
REMARK    6  A    between atoms: C_21  and  C_22
REMARK    7  A    between atoms: C_22  and  C_23
REMARK    8  A    between atoms: C_22  and  C_24
REMARK    9  A    between atoms: N_27  and  C_28
REMARK   10  A    between atoms: N_27  and  C_29
REMARK                            x       y       z     vdW  Elec       q    Type
REMARK                         _______ _______ _______ _____ _____    ______ ____
ROOT
ATOM      1  C   UNL     1       0.577  -1.970  -0.250  0.00  0.00    +0.061 C 
ATOM      2  C   UNL     1       0.883  -0.494  -0.238  0.00  0.00    +0.017 C 
ATOM      3  C   UNL     1       2.150  -0.081  -0.027  0.00  0.00    +0.056 C 
ATOM      4  C   UNL     1       2.414   1.411  -0.023  0.00  0.00    +0.140 C 
ATOM      5  N   UNL     1       1.258   2.294  -0.251  0.00  0.00    -0.315 N 
ATOM      6  C   UNL     1       0.050   1.730  -0.448  0.00  0.00    +0.135 C 
ATOM      7  S   UNL     1      -1.303   2.744  -0.722  0.00  0.00    -0.019 S 
ATOM      8  N   UNL     1      -0.126   0.403  -0.441  0.00  0.00    -0.300 N 
ATOM      9  H   UNL     1       1.363   3.258  -0.261  0.00  0.00    +0.149 HD
ATOM     10  H   UNL     1      -1.021   0.059  -0.588  0.00  0.00    +0.154 HD
ENDROOT
BRANCH   4  11
ATOM     11  C   UNL     1       3.439   1.705  -1.088  0.00  0.00    -0.015 A 
ATOM     12  C   UNL     1       3.041   2.033  -2.348  0.00  0.00    +0.010 A 
ATOM     13  C   UNL     1       3.970   2.312  -3.346  0.00  0.00    +0.046 A 
ATOM     14  C   UNL     1       5.312   2.256  -3.091  0.00  0.00    +0.128 A 
ATOM     15  C   UNL     1       5.760   1.915  -1.799  0.00  0.00    +0.024 A 
ATOM     16  C   UNL     1       4.810   1.636  -0.786  0.00  0.00    -0.009 A 
ATOM     17  C   UNL     1       5.257   1.295   0.503  0.00  0.00    +0.009 A 
ATOM     18  C   UNL     1       6.592   1.240   0.759  0.00  0.00    +0.001 A 
ATOM     19  C   UNL     1       7.526   1.514  -0.238  0.00  0.00    +0.001 A 
ATOM     20  C   UNL     1       7.130   1.846  -1.497  0.00  0.00    +0.012 A 
BRANCH  14  21
ATOM     21  O   UNL     1       6.207   2.526  -4.076  0.00  0.00    -0.491 OA
BRANCH  21  22
ATOM     22  C   UNL     1       5.676   2.864  -5.359  0.00  0.00    +0.232 C 
BRANCH  22  23
ATOM     23  C   UNL     1       6.827   3.134  -6.332  0.00  0.00    +0.020 C 
ATOM     24  C   UNL     1       7.622   1.845  -6.549  0.00  0.00    +0.010 C 
ATOM     25  C   UNL     1       6.261   3.616  -7.669  0.00  0.00    +0.010 C 
ENDBRANCH  22  23
ENDBRANCH  21  22
ENDBRANCH  14  21
ENDBRANCH   4  11
BRANCH   3  26
ATOM     26  C   UNL     1       3.199  -1.010   0.183  0.00  0.00    +0.246 C 
ATOM     27  O   UNL     1       3.629  -1.199   1.307  0.00  0.00    -0.270 OA
ATOM     28  N   UNL     1       3.719  -1.686  -0.860  0.00  0.00    -0.304 N 
ATOM     29  C   UNL     1       4.724  -2.727  -0.630  0.00  0.00    +0.132 C 
ATOM     30  C   UNL     1       3.280  -1.380  -2.224  0.00  0.00    +0.132 C 
ENDBRANCH   3  26
TORSDOF 5
