REMARK  Name = ZINC37015530
REMARK  3 active torsions:
REMARK  status: ('A' for Active; 'I' for Inactive)
REMARK    1  A    between atoms: C_4  and  N_14
REMARK    2  A    between atoms: C_5  and  N_7
REMARK    3  A    between atoms: N_7  and  C_8
REMARK                            x       y       z     vdW  Elec       q    Type
REMARK                         _______ _______ _______ _____ _____    ______ ____
ROOT
ATOM      1  C   UNL     1      -0.012   1.385   0.014  0.00  0.00    +0.002 A 
ATOM      2  C   UNL     1       1.177   2.089  -0.051  0.00  0.00    +0.002 A 
ATOM      3  C   UNL     1       2.383   1.415  -0.071  0.00  0.00    +0.030 A 
ATOM      4  C   UNL     1       2.404   0.029  -0.025  0.00  0.00    +0.090 A 
ATOM      5  C   UNL     1       1.206  -0.681   0.040  0.00  0.00    +0.053 A 
ATOM      6  C   UNL     1      -0.001   0.004   0.060  0.00  0.00    +0.025 A 
ENDROOT
BRANCH   4   7
ATOM      7  N   UNL     1       3.628  -0.658  -0.046  0.00  0.00    -0.198 N 
ATOM      8  C   UNL     1       4.671  -0.449  -0.878  0.00  0.00    +0.250 A 
ATOM      9  N   UNL     1       5.605  -1.305  -0.552  0.00  0.00    -0.116 NA
ATOM     10  N   UNL     1       5.222  -2.041   0.428  0.00  0.00    -0.023 NA
ATOM     11  N   UNL     1       4.033  -1.706   0.798  0.00  0.00    -0.039 NA
ENDBRANCH   4   7
BRANCH   5  12
ATOM     12  N   UNL     1       1.219  -2.077   0.086  0.00  0.00    -0.339 N 
ATOM     13  H   UNL     1       2.063  -2.552   0.148  0.00  0.00    +0.146 HD
BRANCH  12  14
ATOM     14  C   UNL     1      -0.040  -2.824   0.040  0.00  0.00    +0.072 C 
ATOM     15  C   UNL     1      -0.631  -2.898   1.445  0.00  0.00    +0.033 C 
ATOM     16  C   UNL     1      -2.072  -3.413   1.379  0.00  0.00    +0.071 C 
ATOM     17  S   UNL     1      -2.057  -5.100   0.699  0.00  0.00    -0.161 S 
ATOM     18  C   UNL     1      -1.102  -4.914  -0.838  0.00  0.00    +0.071 C 
ATOM     19  C   UNL     1       0.225  -4.222  -0.510  0.00  0.00    +0.033 C 
ENDBRANCH  12  14
ENDBRANCH   5  12
TORSDOF 3
