REMARK  Name = ZINC37322913
REMARK  2 active torsions:
REMARK  status: ('A' for Active; 'I' for Inactive)
REMARK    1  A    between atoms: C_3  and  C_8
REMARK    2  A    between atoms: C_10  and  C_13
REMARK                            x       y       z     vdW  Elec       q    Type
REMARK                         _______ _______ _______ _____ _____    ______ ____
ROOT
ATOM      1  C   UNL     1       3.660   2.166  -0.022  0.00  0.00    +0.202 A 
ATOM      2  N   UNL     1       4.889   1.626  -0.042  0.00  0.00    -0.187 NA
ATOM      3  C   UNL     1       5.795   2.576  -0.044  0.00  0.00    +0.259 A 
ATOM      4  O   UNL     1       5.161   3.762  -0.025  0.00  0.00    -0.332 OA
ATOM      5  N   UNL     1       3.772   3.472  -0.017  0.00  0.00    -0.056 NA
ENDROOT
BRANCH   3   6
ATOM      6  C   UNL     1       7.258   2.377  -0.064  0.00  0.00    +0.040 A 
ATOM      7  C   UNL     1       7.792   1.086  -0.088  0.00  0.00    +0.015 A 
ATOM      8  C   UNL     1       9.154   0.904  -0.107  0.00  0.00    +0.024 A 
ATOM      9  C   UNL     1      10.017   2.006  -0.101  0.00  0.00    +0.030 A 
ATOM     10  C   UNL     1       9.482   3.287  -0.077  0.00  0.00    -0.024 A 
ATOM     11  C   UNL     1       8.118   3.478  -0.064  0.00  0.00    +0.018 A 
ATOM     12  C   UNL     1      10.621   4.282  -0.077  0.00  0.00    +0.055 C 
ATOM     13  C   UNL     1      11.890   3.415  -0.104  0.00  0.00    +0.106 C 
ATOM     14  N   UNL     1      11.409   2.031  -0.117  0.00  0.00    -0.343 N 
ATOM     15  H   UNL     1      11.978   1.246  -0.134  0.00  0.00    +0.146 HD
ENDBRANCH   3   6
BRANCH   1  18
ATOM     16  C   UNL     1      -0.017   1.379   0.010  0.00  0.00    +0.002 A 
ATOM     17  C   UNL     1       1.168   2.088   0.002  0.00  0.00    +0.012 A 
ATOM     18  C   UNL     1       2.384   1.408  -0.013  0.00  0.00    +0.023 A 
ATOM     19  C   UNL     1       2.398   0.015  -0.021  0.00  0.00    +0.027 A 
ATOM     20  C   UNL     1       1.207  -0.685  -0.013  0.00  0.00    +0.019 A 
ATOM     21  C   UNL     1       0.002  -0.004   0.002  0.00  0.00    +0.015 A 
ATOM     22 BR   UNL     1       1.224  -2.575  -0.024  0.00  0.00    -0.050 Br
ENDBRANCH   1  18
TORSDOF 2
