REMARK  Name = ZINC59935720
REMARK  6 active torsions:
REMARK  status: ('A' for Active; 'I' for Inactive)
REMARK    1  A    between atoms: N_4  and  C_6
REMARK    2  A    between atoms: C_7  and  C_15
REMARK    3  A    between atoms: N_17  and  C_18
REMARK    4  A    between atoms: C_22  and  C_24
REMARK    5  A    between atoms: C_24  and  N_25
REMARK    6  A    between atoms: C_29  and  C_31
REMARK                            x       y       z     vdW  Elec       q    Type
REMARK                         _______ _______ _______ _____ _____    ______ ____
ROOT
ATOM      1  C   UNL     1      -0.462  -2.233   0.142  0.00  0.00    +0.251 C 
ATOM      2  O   UNL     1      -1.051  -1.665  -0.759  0.00  0.00    -0.270 OA
ATOM      3  N   UNL     1      -1.155  -2.795   1.152  0.00  0.00    -0.281 N 
ATOM      4  H   UNL     1      -0.691  -3.304   1.834  0.00  0.00    +0.155 HD
ENDROOT
BRANCH   1   6
ATOM      5  C   UNL     1       1.772  -1.328   0.725  0.00  0.00    +0.097 A 
ATOM      6  C   UNL     1       1.003  -2.306   0.128  0.00  0.00    +0.072 A 
ATOM      7  C   UNL     1       1.700  -3.419  -0.518  0.00  0.00    -0.021 A 
ATOM      8  C   UNL     1       3.038  -3.332  -0.443  0.00  0.00    +0.006 A 
ATOM      9  S   UNL     1       3.349  -1.830   0.452  0.00  0.00    -0.074 S 
ATOM     10  C   UNL     1       4.096  -4.253  -0.985  0.00  0.00    +0.111 C 
ATOM     11  S   UNL     1       3.307  -5.837  -1.413  0.00  0.00    -0.155 S 
ATOM     12  C   UNL     1       1.766  -5.285  -2.210  0.00  0.00    +0.074 C 
ATOM     13  C   UNL     1       0.921  -4.542  -1.183  0.00  0.00    +0.047 C 
BRANCH   5  17
ATOM     14  C   UNL     1       0.022   1.340   2.271  0.00  0.00    +0.019 A 
ATOM     15  C   UNL     1       1.363   1.708   2.509  0.00  0.00    +0.019 A 
ATOM     16  C   UNL     1       2.147   0.758   1.962  0.00  0.00    +0.092 A 
ATOM     17  N   UNL     1       1.340  -0.186   1.392  0.00  0.00    -0.317 N 
ATOM     18  C   UNL     1       0.037   0.178   1.586  0.00  0.00    +0.092 A 
ENDBRANCH   5  17
ENDBRANCH   1   6
BRANCH   3  19
ATOM     19  C   UNL     1      -2.544  -2.642   1.216  0.00  0.00    +0.034 A 
ATOM     20  C   UNL     1      -3.296  -2.612   0.048  0.00  0.00    +0.023 A 
ATOM     21  C   UNL     1      -4.667  -2.462   0.115  0.00  0.00    +0.002 A 
ATOM     22  C   UNL     1      -5.292  -2.342   1.343  0.00  0.00    +0.002 A 
ATOM     23  C   UNL     1      -4.547  -2.371   2.507  0.00  0.00    -0.062 A 
ATOM     24  C   UNL     1      -3.175  -2.527   2.447  0.00  0.00    +0.025 A 
BRANCH  23  25
ATOM     25  C   UNL     1      -5.232  -2.240   3.843  0.00  0.00    -0.042 C 
BRANCH  25  26
ATOM     26  N   UNL     1      -5.602  -3.572   4.337  0.00  0.00    +0.390 N 
ATOM     27  C   UNL     1      -4.384  -4.345   4.690  0.00  0.00    -0.077 C 
ATOM     28  C   UNL     1      -4.916  -5.416   5.675  0.00  0.00    -0.020 C 
ATOM     29  C   UNL     1      -5.984  -4.643   6.482  0.00  0.00    -0.008 C 
ATOM     30  C   UNL     1      -6.381  -3.454   5.588  0.00  0.00    +0.019 C 
ATOM     31  H   UNL     1      -6.138  -4.066   3.639  0.00  0.00    -0.080 HD
BRANCH  30  32
ATOM     32  C   UNL     1      -7.856  -3.512   5.283  0.00  0.00    +0.197 C 
ATOM     33  O   UNL     1      -8.233  -3.639   4.137  0.00  0.00    -0.278 OA
ATOM     34  N   UNL     1      -8.755  -3.422   6.282  0.00  0.00    -0.331 N 
ATOM     35  H   UNL     1      -8.454  -3.321   7.199  0.00  0.00    +0.145 HD
ATOM     36  H   UNL     1      -9.705  -3.460   6.085  0.00  0.00    +0.145 HD
ENDBRANCH  30  32
ENDBRANCH  25  26
ENDBRANCH  23  25
ENDBRANCH   3  19
TORSDOF 6
