REMARK  Name = ZINC29391973
REMARK  12 active torsions:
REMARK  status: ('A' for Active; 'I' for Inactive)
REMARK    1  A    between atoms: C_1  and  C_2
REMARK    2  A    between atoms: C_2  and  O_3
REMARK    3  A    between atoms: O_3  and  C_4
REMARK    4  A    between atoms: C_4  and  C_6
REMARK    5  A    between atoms: C_6  and  S_7
REMARK    6  A    between atoms: S_7  and  C_8
REMARK    7  A    between atoms: C_11  and  N_13
REMARK    8  A    between atoms: C_14  and  C_16
REMARK    9  A    between atoms: C_19  and  S_25
REMARK   10  A    between atoms: C_20  and  N_22
REMARK   11  A    between atoms: S_25  and  C_26
REMARK   12  A    between atoms: C_28  and  C_31
REMARK                            x       y       z     vdW  Elec       q    Type
REMARK                         _______ _______ _______ _____ _____    ______ ____
ROOT
ATOM      1  C   UNL     1      -3.874   3.697   6.970  0.00  0.00    +0.044 A 
ATOM      2  C   UNL     1      -3.851   3.221   5.653  0.00  0.00    +0.014 A 
ATOM      3  C   UNL     1      -2.663   2.892   5.068  0.00  0.00    +0.018 A 
ATOM      4  C   UNL     1      -1.472   3.020   5.785  0.00  0.00    +0.045 A 
ATOM      5  C   UNL     1      -1.492   3.494   7.098  0.00  0.00    +0.141 A 
ATOM      6  C   UNL     1      -2.677   3.829   7.685  0.00  0.00    +0.047 A 
ENDROOT
BRANCH   1   8
ATOM      7  N   UNL     1      -6.306   3.931   6.912  0.00  0.00    -0.181 NA
ATOM      8  C   UNL     1      -5.154   4.058   7.602  0.00  0.00    +0.280 C 
ATOM      9  O   UNL     1      -5.173   4.472   8.745  0.00  0.00    -0.265 OA
BRANCH   7  13
ATOM     10  C   UNL     1      -9.970   4.809   8.283  0.00  0.00    +0.161 A 
ATOM     11  N   UNL     1      -8.902   5.001   9.127  0.00  0.00    -0.133 NA
ATOM     12  N   UNL     1      -7.725   4.742   8.752  0.00  0.00    -0.120 NA
ATOM     13  C   UNL     1      -7.476   4.261   7.490  0.00  0.00    +0.219 A 
ATOM     14  S   UNL     1      -9.135   4.202   6.821  0.00  0.00    -0.020 S 
BRANCH  10  15
ATOM     15  S   UNL     1     -11.638   5.082   8.553  0.00  0.00    -0.086 S 
BRANCH  15  16
ATOM     16  C   UNL     1     -11.585   5.690  10.257  0.00  0.00    +0.196 C 
BRANCH  16  17
ATOM     17  C   UNL     1     -12.984   6.005  10.722  0.00  0.00    +0.317 C 
ATOM     18  O   UNL     1     -13.920   5.836   9.977  0.00  0.00    -0.250 OA
BRANCH  17  19
ATOM     19  O   UNL     1     -13.189   6.474  11.963  0.00  0.00    -0.464 OA
BRANCH  19  21
ATOM     20  C   UNL     1     -14.597   7.277  13.780  0.00  0.00    +0.048 C 
ATOM     21  C   UNL     1     -14.562   6.755  12.342  0.00  0.00    +0.229 C 
ENDBRANCH  19  21
ENDBRANCH  17  19
ENDBRANCH  16  17
ENDBRANCH  15  16
ENDBRANCH  10  15
ENDBRANCH   7  13
ENDBRANCH   1   8
BRANCH   5  22
ATOM     22  N   UNL     1      -0.227   3.633   7.853  0.00  0.00    +0.058 N 
ATOM     23  O   UNL     1      -0.245   4.081   9.092  0.00  0.00    -0.126 OA
ATOM     24  O   UNL     1       0.918   3.310   7.287  0.00  0.00    -0.126 OA
ENDBRANCH   5  22
BRANCH   4  25
ATOM     25  S   UNL     1       0.060   2.588   5.029  0.00  0.00    -0.061 S 
BRANCH  25  26
ATOM     26  C   UNL     1       0.342   1.021   5.783  0.00  0.00    +0.139 A 
ATOM     27  N   UNL     1       1.398   0.220   5.692  0.00  0.00    -0.238 NA
ATOM     28  C   UNL     1       1.440  -0.926   6.328  0.00  0.00    +0.047 A 
ATOM     29  C   UNL     1       0.381  -1.314   7.097  0.00  0.00    +0.070 A 
ATOM     30  S   UNL     1      -0.716   0.081   6.876  0.00  0.00    -0.069 S 
ATOM     31  C   UNL     1       2.651  -1.814   6.206  0.00  0.00    +0.066 C 
ENDBRANCH  25  26
ENDBRANCH   4  25
TORSDOF 10
