REMARK  Name = ZINC18043057
REMARK  6 active torsions:
REMARK  status: ('A' for Active; 'I' for Inactive)
REMARK    1  A    between atoms: C_1  and  C_2
REMARK    2  A    between atoms: C_2  and  N_3
REMARK    3  A    between atoms: C_4  and  S_15
REMARK    4  A    between atoms: N_5  and  C_6
REMARK    5  A    between atoms: S_15  and  C_16
REMARK    6  A    between atoms: N_21  and  C_24
REMARK                            x       y       z     vdW  Elec       q    Type
REMARK                         _______ _______ _______ _____ _____    ______ ____
ROOT
ATOM      1  N   UNL     1       0.780  -0.488   1.145  0.00  0.00    -0.324 N 
ATOM      2  C   UNL     1       0.882  -1.838   1.381  0.00  0.00    +0.155 C 
ATOM      3  N   UNL     1       1.575  -2.274   2.408  0.00  0.00    -0.226 NA
ATOM      4  H   UNL     1       1.185   0.144   1.759  0.00  0.00    +0.148 HD
ENDROOT
BRANCH   3   5
ATOM      5  C   UNL     1       2.094  -1.385   3.312  0.00  0.00    +0.070 A 
ATOM      6  C   UNL     1       1.253  -0.490   3.976  0.00  0.00    +0.031 A 
ATOM      7  C   UNL     1       1.778   0.405   4.886  0.00  0.00    +0.051 A 
ATOM      8  C   UNL     1       3.140   0.419   5.145  0.00  0.00    +0.166 A 
ATOM      9  C   UNL     1       3.985  -0.471   4.486  0.00  0.00    +0.168 A 
ATOM     10  C   UNL     1       3.464  -1.375   3.577  0.00  0.00    +0.077 A 
ATOM     11  O   UNL     1       5.264  -0.256   4.913  0.00  0.00    -0.453 OA
ATOM     12  C   UNL     1       5.249   1.044   5.531  0.00  0.00    +0.466 C 
ATOM     13  O   UNL     1       3.891   1.192   5.985  0.00  0.00    -0.453 OA
ENDBRANCH   3   5
BRANCH   1  15
ATOM     14  C   UNL     1       0.093   1.527  -0.060  0.00  0.00    +0.024 C 
ATOM     15  C   UNL     1       0.059  -0.003  -0.034  0.00  0.00    +0.100 C 
ENDBRANCH   1  15
BRANCH   2  16
ATOM     16  S   UNL     1       0.084  -2.983   0.306  0.00  0.00    -0.077 S 
BRANCH  16  17
ATOM     17  C   UNL     1       0.496  -4.604   1.007  0.00  0.00    +0.149 C 
ATOM     18  C   UNL     1      -0.076  -5.736   0.130  0.00  0.00    +0.120 C 
ATOM     19  C   UNL     1      -1.032  -6.454   1.058  0.00  0.00    +0.228 C 
ATOM     20  O   UNL     1      -1.703  -7.420   0.764  0.00  0.00    -0.275 OA
ATOM     21  N   UNL     1      -1.020  -5.853   2.254  0.00  0.00    -0.207 N 
ATOM     22  C   UNL     1      -0.193  -4.799   2.340  0.00  0.00    +0.240 C 
ATOM     23  O   UNL     1      -0.025  -4.113   3.325  0.00  0.00    -0.274 OA
BRANCH  21  24
ATOM     24  C   UNL     1      -1.807  -6.289   3.331  0.00  0.00    +0.079 A 
ATOM     25  C   UNL     1      -1.305  -7.225   4.224  0.00  0.00    +0.027 A 
ATOM     26  C   UNL     1      -2.082  -7.652   5.284  0.00  0.00    +0.002 A 
ATOM     27  C   UNL     1      -3.358  -7.149   5.456  0.00  0.00    +0.003 A 
ATOM     28  C   UNL     1      -3.862  -6.216   4.569  0.00  0.00    +0.040 A 
ATOM     29  C   UNL     1      -3.088  -5.779   3.509  0.00  0.00    +0.145 A 
ATOM     30  F   UNL     1      -3.578  -4.863   2.645  0.00  0.00    -0.204 F 
ENDBRANCH  21  24
ENDBRANCH  16  17
ENDBRANCH   2  16
TORSDOF 5
