REMARK  Name = ZINC00988093
REMARK  5 active torsions:
REMARK  status: ('A' for Active; 'I' for Inactive)
REMARK    1  A    between atoms: C_1  and  C_2
REMARK    2  A    between atoms: N_4  and  C_5
REMARK    3  A    between atoms: N_4  and  C_30
REMARK    4  A    between atoms: C_5  and  C_6
REMARK    5  A    between atoms: C_6  and  N_7
REMARK                            x       y       z     vdW  Elec       q    Type
REMARK                         _______ _______ _______ _____ _____    ______ ____
ROOT
ATOM      1  N   UNL     1      -1.095  -4.141   1.433  0.00  0.00    -0.240 N 
ATOM      2  C   UNL     1      -2.231  -4.915   1.434  0.00  0.00    +0.227 C 
ATOM      3  O   UNL     1      -3.369  -4.549   1.634  0.00  0.00    -0.275 OA
ATOM      4  C   UNL     1      -1.773  -6.285   1.139  0.00  0.00    +0.100 C 
ATOM      5  C   UNL     1      -0.369  -6.225   1.794  0.00  0.00    +0.100 C 
ATOM      6  C   UNL     1       0.065  -4.887   1.418  0.00  0.00    +0.227 C 
ATOM      7  O   UNL     1       1.187  -4.512   1.154  0.00  0.00    -0.275 OA
ATOM      8  C   UNL     1       0.217  -7.575   1.860  0.00  0.00    +0.062 C 
ATOM      9  C   UNL     1      -0.242  -8.436   0.702  0.00  0.00    -0.035 A 
ATOM     10  C   UNL     1       0.588  -9.104  -0.156  0.00  0.00    +0.004 A 
ATOM     11  C   UNL     1       0.030  -9.900  -1.147  0.00  0.00    +0.000 A 
ATOM     12  C   UNL     1      -1.342 -10.023  -1.267  0.00  0.00    +0.000 A 
ATOM     13  C   UNL     1      -2.184  -9.329  -0.405  0.00  0.00    +0.004 A 
ATOM     14  C   UNL     1      -1.627  -8.534   0.546  0.00  0.00    -0.035 A 
ATOM     15  C   UNL     1      -2.419  -7.589   1.510  0.00  0.00    +0.062 C 
ATOM     16  C   UNL     1      -1.928  -8.067   2.875  0.00  0.00    -0.035 A 
ATOM     17  C   UNL     1      -0.568  -8.149   3.046  0.00  0.00    -0.035 A 
ATOM     18  C   UNL     1      -0.031  -8.651   4.187  0.00  0.00    +0.004 A 
ATOM     19  C   UNL     1      -0.890  -9.079   5.194  0.00  0.00    +0.000 A 
ATOM     20  C   UNL     1      -2.259  -8.986   5.023  0.00  0.00    +0.000 A 
ATOM     21  C   UNL     1      -2.760  -8.448   3.892  0.00  0.00    +0.004 A 
ENDROOT
BRANCH   1  22
ATOM     22  C   UNL     1      -1.115  -2.676   1.441  0.00  0.00    +0.136 C 
BRANCH  22  23
ATOM     23  C   UNL     1      -1.136  -2.159   0.001  0.00  0.00    +0.133 C 
BRANCH  23  27
ATOM     24  C   UNL     1      -0.018   1.503   0.010  0.00  0.00    +0.109 C 
ATOM     25  C   UNL     1       0.002  -0.004   0.002  0.00  0.00    +0.217 C 
ATOM     26  O   UNL     1       1.060  -0.596  -0.011  0.00  0.00    -0.276 OA
ATOM     27  N   UNL     1      -1.156  -0.694   0.009  0.00  0.00    -0.270 N 
BRANCH  27  28
ATOM     28  C   UNL     1      -2.374  -0.012   0.025  0.00  0.00    +0.044 A 
ATOM     29  C   UNL     1      -2.995   0.329  -1.158  0.00  0.00    +0.024 A 
ATOM     30  C   UNL     1      -4.210   1.008  -1.153  0.00  0.00    +0.002 A 
ATOM     31  C   UNL     1      -4.818   1.354   0.015  0.00  0.00    +0.008 A 
ATOM     32  C   UNL     1      -4.218   1.024   1.242  0.00  0.00    -0.016 A 
ATOM     33  C   UNL     1      -2.984   0.329   1.251  0.00  0.00    +0.004 A 
ATOM     34  C   UNL     1      -2.388  -0.003   2.478  0.00  0.00    +0.010 A 
ATOM     35  C   UNL     1      -3.005   0.342   3.641  0.00  0.00    +0.001 A 
ATOM     36  C   UNL     1      -4.221   1.021   3.634  0.00  0.00    +0.001 A 
ATOM     37  C   UNL     1      -4.822   1.369   2.464  0.00  0.00    +0.008 A 
ENDBRANCH  27  28
ENDBRANCH  23  27
ENDBRANCH  22  23
ENDBRANCH   1  22
TORSDOF 4
