REMARK  Name = ZINC50395948
REMARK  8 active torsions:
REMARK  status: ('A' for Active; 'I' for Inactive)
REMARK    1  A    between atoms: C_1  and  C_2
REMARK    2  A    between atoms: C_5  and  O_9
REMARK    3  A    between atoms: O_9  and  C_10
REMARK    4  A    between atoms: C_10  and  C_11
REMARK    5  A    between atoms: C_11  and  C_13
REMARK    6  A    between atoms: C_11  and  O_23
REMARK    7  A    between atoms: C_13  and  N_14
REMARK    8  A    between atoms: N_14  and  C_15
REMARK                            x       y       z     vdW  Elec       q    Type
REMARK                         _______ _______ _______ _____ _____    ______ ____
ROOT
ATOM      1  C   UNL     1       0.466  -6.340  -1.154  0.00  0.00    +0.135 C 
ENDROOT
BRANCH   1   2
ATOM      2  O   UNL     1       1.716  -6.867  -0.701  0.00  0.00    -0.390 OA
ATOM      3  H   UNL     1       2.450  -6.715  -1.312  0.00  0.00    +0.210 HD
ENDBRANCH   1   2
BRANCH   1   4
ATOM      4  C   UNL     1       0.590  -4.828  -1.346  0.00  0.00    +0.258 C 
BRANCH   4   5
ATOM      5  O   UNL     1       0.826  -4.205  -0.081  0.00  0.00    -0.488 OA
BRANCH   5  10
ATOM      6  C   UNL     1       1.383   1.401  -0.056  0.00  0.00    +0.044 C 
ATOM      7  C   UNL     1       1.234  -0.099  -0.062  0.00  0.00    -0.049 A 
ATOM      8  C   UNL     1       1.004  -0.765  -1.252  0.00  0.00    +0.007 A 
ATOM      9  C   UNL     1       0.868  -2.139  -1.261  0.00  0.00    +0.047 A 
ATOM     10  C   UNL     1       0.961  -2.853  -0.075  0.00  0.00    +0.135 A 
ATOM     11  C   UNL     1       1.192  -2.183   1.118  0.00  0.00    +0.060 A 
ATOM     12  C   UNL     1       1.333  -0.807   1.121  0.00  0.00    +0.022 A 
ATOM     13 BR   UNL     1       1.320  -3.150   2.738  0.00  0.00    -0.047 Br
ENDBRANCH   5  10
ENDBRANCH   4   5
ENDBRANCH   1   4
BRANCH   1  14
ATOM     14  C   UNL     1       0.090  -6.994  -2.485  0.00  0.00    -0.046 C 
BRANCH  14  15
ATOM     15  N   UNL     1      -0.145  -8.429  -2.277  0.00  0.00    +0.388 N 
ATOM     16  H   UNL     1       0.663  -8.842  -1.837  0.00  0.00    -0.085 HD
ATOM     17  H   UNL     1      -0.952  -8.555  -1.684  0.00  0.00    -0.085 HD
BRANCH  15  18
ATOM     18  C   UNL     1      -0.384  -9.079  -3.572  0.00  0.00    +0.016 C 
ATOM     19  C   UNL     1      -1.685  -8.545  -4.177  0.00  0.00    -0.005 C 
ATOM     20  C   UNL     1      -2.057  -9.423  -5.378  0.00  0.00    +0.018 C 
ATOM     21  C   UNL     1      -2.429 -10.816  -4.870  0.00  0.00    +0.104 C 
ATOM     22  N   UNL     1      -1.394 -11.328  -3.980  0.00  0.00    -0.317 N 
ATOM     23  C   UNL     1      -0.487 -10.564  -3.374  0.00  0.00    +0.199 C 
ATOM     24  O   UNL     1       0.301 -11.099  -2.622  0.00  0.00    -0.278 OA
ATOM     25  H   UNL     1      -1.366 -12.284  -3.819  0.00  0.00    +0.149 HD
ENDBRANCH  15  18
ENDBRANCH  14  15
ENDBRANCH   1  14
TORSDOF 7
