REMARK  Name = ZINC64480172
REMARK  2 active torsions:
REMARK  status: ('A' for Active; 'I' for Inactive)
REMARK    1  A    between atoms: C_1  and  N_2
REMARK    2  A    between atoms: C_5  and  C_11
REMARK                            x       y       z     vdW  Elec       q    Type
REMARK                         _______ _______ _______ _____ _____    ______ ____
ROOT
ATOM      1  C   UNL     1      -1.702   4.835  -2.770  0.00  0.00    -0.003 C 
ATOM      2  C   UNL     1      -0.326   5.497  -2.869  0.00  0.00    +0.097 C 
ATOM      3  C   UNL     1       0.311   5.359  -1.490  0.00  0.00    -0.041 C 
ATOM      4  C   UNL     1       1.493   4.789  -1.679  0.00  0.00    +0.000 A 
ATOM      5  C   UNL     1       2.595   4.482  -0.752  0.00  0.00    +0.030 A 
ATOM      6  C   UNL     1       3.680   3.867  -1.293  0.00  0.00    +0.042 A 
ATOM      7  C   UNL     1       3.779   3.532  -2.648  0.00  0.00    +0.022 A 
ATOM      8  C   UNL     1       2.817   3.782  -3.572  0.00  0.00    +0.027 A 
ATOM      9  C   UNL     1       1.630   4.431  -3.124  0.00  0.00    +0.043 A 
ATOM     10  N   UNL     1       0.566   4.813  -3.803  0.00  0.00    -0.379 N 
ATOM     11 CL   UNL     1       5.012   3.479  -0.250  0.00  0.00    -0.084 Cl
ATOM     12  C   UNL     1      -0.433   5.745  -0.235  0.00  0.00    +0.014 C 
ATOM     13  C   UNL     1      -1.831   5.110  -0.355  0.00  0.00    -0.077 C 
ATOM     14  N   UNL     1      -2.433   5.447  -1.649  0.00  0.00    +0.386 N 
ATOM     15  H   UNL     1      -2.428   6.449  -1.762  0.00  0.00    -0.085 HD
ATOM     16  H   UNL     1       0.395   4.667  -4.747  0.00  0.00    +0.160 HD
ATOM     17  H   UNL     1      -3.387   5.121  -1.663  0.00  0.00    -0.085 HD
ENDROOT
BRANCH   1  22
ATOM     18  C   UNL     1      -2.602   0.122  -4.035  0.00  0.00    +0.154 C 
ATOM     19  N   UNL     1      -1.979   1.103  -3.143  0.00  0.00    -0.291 N 
ATOM     20  C   UNL     1      -2.138   2.420  -3.382  0.00  0.00    +0.260 A 
ATOM     21  O   UNL     1      -2.798   2.795  -4.335  0.00  0.00    -0.267 OA
ATOM     22  C   UNL     1      -1.538   3.357  -2.523  0.00  0.00    +0.070 A 
ATOM     23  C   UNL     1      -0.805   2.911  -1.463  0.00  0.00    +0.257 A 
ATOM     24  N   UNL     1      -0.668   1.562  -1.258  0.00  0.00    -0.302 N 
ATOM     25  C   UNL     1      -1.256   0.682  -2.089  0.00  0.00    +0.163 A 
ATOM     26  S   UNL     1      -1.076  -0.996  -1.806  0.00  0.00    -0.013 S 
ATOM     27  O   UNL     1      -0.218   3.790  -0.624  0.00  0.00    -0.267 OA
ATOM     28  H   UNL     1      -0.147   1.240  -0.505  0.00  0.00    +0.171 HD
ENDBRANCH   1  22
TORSDOF 1
