REMARK  Name = ZINC39959209
REMARK  7 active torsions:
REMARK  status: ('A' for Active; 'I' for Inactive)
REMARK    1  A    between atoms: C_1  and  C_2
REMARK    2  A    between atoms: C_2  and  C_29
REMARK    3  A    between atoms: C_4  and  N_10
REMARK    4  A    between atoms: C_6  and  C_8
REMARK    5  A    between atoms: C_6  and  C_9
REMARK    6  A    between atoms: C_11  and  C_13
REMARK    7  A    between atoms: C_16  and  C_19
REMARK                            x       y       z     vdW  Elec       q    Type
REMARK                         _______ _______ _______ _____ _____    ______ ____
ROOT
ATOM      1  N   UNL     1       2.615  -0.819  -2.626  0.00  0.00    -0.308 N 
ATOM      2  C   UNL     1       3.770  -0.334  -3.123  0.00  0.00    +0.276 C 
ATOM      3  O   UNL     1       4.374   0.530  -2.523  0.00  0.00    -0.270 OA
ATOM      4  H   UNL     1       2.133  -1.510  -3.106  0.00  0.00    +0.149 HD
ENDROOT
BRANCH   1   8
ATOM      5  C   UNL     1      -0.019   1.528   0.010  0.00  0.00    -0.010 C 
ATOM      6  C   UNL     1       0.002  -0.004   0.002  0.00  0.00    -0.072 C 
ATOM      7  C   UNL     1       0.573  -0.505  -1.321  0.00  0.00    +0.009 C 
ATOM      8  C   UNL     1       2.088  -0.301  -1.357  0.00  0.00    +0.071 C 
ATOM      9  C   UNL     1       2.703  -1.086  -0.198  0.00  0.00    +0.009 C 
ATOM     10  C   UNL     1       2.147  -0.590   1.133  0.00  0.00    -0.072 C 
ATOM     11  N   UNL     1       0.697  -0.529   1.164  0.00  0.00    +0.386 N 
ATOM     12  C   UNL     1       2.769   0.766   1.481  0.00  0.00    -0.010 C 
ATOM     13  C   UNL     1       2.600  -1.589   2.223  0.00  0.00    -0.010 C 
ATOM     14  C   UNL     1      -1.468  -0.478   0.079  0.00  0.00    -0.010 C 
ATOM     15  H   UNL     1       0.416   0.021   1.982  0.00  0.00    -0.084 HD
ATOM     16  H   UNL     1       0.341  -1.472   1.351  0.00  0.00    -0.084 HD
ENDBRANCH   1   8
BRANCH   2  17
ATOM     17  C   UNL     1       4.312  -0.866  -4.426  0.00  0.00    +0.378 C 
ATOM     18  N   UNL     1       4.750  -2.261  -4.268  0.00  0.00    -0.282 N 
ATOM     19  C   UNL     1       3.981  -3.022  -5.130  0.00  0.00    +0.168 C 
ATOM     20  N   UNL     1       3.143  -2.285  -5.783  0.00  0.00    -0.066 NA
ATOM     21  O   UNL     1       3.272  -0.922  -5.415  0.00  0.00    -0.360 OA
ATOM     22  H   UNL     1       5.445  -2.586  -3.674  0.00  0.00    +0.152 HD
BRANCH  19  23
ATOM     23  C   UNL     1       4.101  -4.489  -5.285  0.00  0.00    +0.016 C 
ATOM     24  C   UNL     1       3.292  -5.116  -6.167  0.00  0.00    +0.015 C 
ATOM     25  C   UNL     1       3.470  -6.588  -6.394  0.00  0.00    +0.159 C 
ATOM     26  C   UNL     1       4.024  -7.187  -5.115  0.00  0.00    -0.018 C 
ATOM     27  C   UNL     1       3.252  -8.257  -4.856  0.00  0.00    +0.025 C 
ATOM     28  C   UNL     1       2.170  -8.286  -5.764  0.00  0.00    +0.106 C 
ATOM     29  N   UNL     1       2.238  -7.324  -6.643  0.00  0.00    -0.279 NA
ATOM     30  C   UNL     1       5.040  -6.562  -4.365  0.00  0.00    +0.007 C 
ATOM     31  C   UNL     1       5.098  -5.203  -4.479  0.00  0.00    +0.011 C 
ENDBRANCH  19  23
ENDBRANCH   2  17
TORSDOF 3
