REMARK  Name = ZINC07287605
REMARK  5 active torsions:
REMARK  status: ('A' for Active; 'I' for Inactive)
REMARK    1  A    between atoms: C_1  and  C_2
REMARK    2  A    between atoms: C_2  and  C_4
REMARK    3  A    between atoms: C_2  and  N_13
REMARK    4  A    between atoms: C_14  and  C_16
REMARK    5  A    between atoms: C_16  and  N_17
REMARK                            x       y       z     vdW  Elec       q    Type
REMARK                         _______ _______ _______ _____ _____    ______ ____
ROOT
ATOM      1  N   UNL     1       0.688  -0.476  -1.203  0.00  0.00    -0.304 N 
ATOM      2  C   UNL     1       2.031  -0.587  -1.215  0.00  0.00    +0.232 C 
ATOM      3  O   UNL     1       2.672  -0.295  -0.228  0.00  0.00    -0.274 OA
ATOM      4  H   UNL     1       0.175  -0.710  -1.993  0.00  0.00    +0.149 HD
ENDROOT
BRANCH   1   6
ATOM      5  C   UNL     1      -0.019   1.526   0.010  0.00  0.00    +0.036 C 
ATOM      6  C   UNL     1       0.002  -0.004   0.002  0.00  0.00    +0.136 C 
BRANCH   6   7
ATOM      7  C   UNL     1      -1.412  -0.526   0.013  0.00  0.00    +0.126 A 
ATOM      8  C   UNL     1      -2.055  -0.976   1.099  0.00  0.00    +0.055 A 
ATOM      9  C   UNL     1      -3.392  -1.377   0.645  0.00  0.00    +0.020 A 
ATOM     10  C   UNL     1      -4.515  -1.913   1.274  0.00  0.00    +0.011 A 
ATOM     11  C   UNL     1      -5.639  -2.180   0.542  0.00  0.00    +0.001 A 
ATOM     12  C   UNL     1      -5.668  -1.922  -0.821  0.00  0.00    +0.004 A 
ATOM     13  C   UNL     1      -4.567  -1.392  -1.460  0.00  0.00    +0.047 A 
ATOM     14  C   UNL     1      -3.415  -1.113  -0.735  0.00  0.00    +0.135 A 
ATOM     15  O   UNL     1      -2.212  -0.601  -1.065  0.00  0.00    -0.458 OA
ENDBRANCH   6   7
ENDBRANCH   1   6
BRANCH   2  16
ATOM     16  C   UNL     1       2.736  -1.073  -2.455  0.00  0.00    +0.213 C 
BRANCH  16  17
ATOM     17  N   UNL     1       4.181  -1.104  -2.214  0.00  0.00    -0.215 N 
ATOM     18  C   UNL     1       4.846  -2.171  -1.725  0.00  0.00    +0.247 C 
ATOM     19  O   UNL     1       4.380  -3.246  -1.413  0.00  0.00    -0.273 OA
ATOM     20  C   UNL     1       6.294  -1.745  -1.648  0.00  0.00    +0.113 C 
ATOM     21  C   UNL     1       7.156  -2.630  -2.541  0.00  0.00    +0.035 C 
ATOM     22  C   UNL     1       8.613  -2.165  -2.472  0.00  0.00    +0.003 C 
ATOM     23  C   UNL     1       9.103  -2.241  -1.024  0.00  0.00    +0.000 C 
ATOM     24  C   UNL     1       8.244  -1.329  -0.146  0.00  0.00    +0.003 C 
ATOM     25  C   UNL     1       6.785  -1.791  -0.206  0.00  0.00    +0.035 C 
ATOM     26  N   UNL     1       6.285  -0.364  -2.146  0.00  0.00    -0.285 N 
ATOM     27  C   UNL     1       5.007  -0.079  -2.458  0.00  0.00    +0.310 C 
ATOM     28  O   UNL     1       4.642   0.990  -2.907  0.00  0.00    -0.252 OA
ATOM     29  H   UNL     1       7.051   0.226  -2.237  0.00  0.00    +0.151 HD
ENDBRANCH  16  17
ENDBRANCH   2  16
TORSDOF 4
