REMARK  Name = ZINC37264030
REMARK  8 active torsions:
REMARK  status: ('A' for Active; 'I' for Inactive)
REMARK    1  A    between atoms: C_1  and  C_2
REMARK    2  A    between atoms: C_2  and  C_3
REMARK    3  A    between atoms: C_2  and  C_4
REMARK    4  A    between atoms: C_2  and  C_5
REMARK    5  A    between atoms: N_8  and  C_10
REMARK    6  A    between atoms: N_17  and  C_31
REMARK    7  A    between atoms: C_22  and  C_24
REMARK    8  A    between atoms: C_31  and  C_32
REMARK                            x       y       z     vdW  Elec       q    Type
REMARK                         _______ _______ _______ _____ _____    ______ ____
ROOT
ATOM      1  C   UNL     1       0.737   0.253  -1.254  0.00  0.00    +0.075 A 
ATOM      2  C   UNL     1       2.087  -0.092  -1.317  0.00  0.00    +0.034 A 
ATOM      3  C   UNL     1       2.624   0.522  -2.397  0.00  0.00    +0.136 A 
ATOM      4  N   UNL     1       1.647   1.240  -3.001  0.00  0.00    -0.218 N 
ATOM      5  N   UNL     1       0.469   1.046  -2.264  0.00  0.00    -0.169 NA
ATOM      6  N   UNL     1       3.967   0.396  -2.781  0.00  0.00    -0.246 N 
ATOM      7  C   UNL     1       4.499  -0.829  -2.847  0.00  0.00    +0.231 C 
ATOM      8  O   UNL     1       5.704  -0.964  -2.873  0.00  0.00    -0.274 OA
ATOM      9  C   UNL     1       3.612  -2.036  -2.891  0.00  0.00    +0.166 C 
ATOM     10  S   UNL     1       3.176  -2.579  -1.205  0.00  0.00    -0.138 S 
ATOM     11  C   UNL     1       2.847  -0.984  -0.369  0.00  0.00    +0.115 C 
ENDROOT
BRANCH   4  12
ATOM     12  C   UNL     1       1.787   2.028  -4.153  0.00  0.00    +0.068 A 
ATOM     13  C   UNL     1       2.522   1.557  -5.232  0.00  0.00    +0.030 A 
ATOM     14  C   UNL     1       2.658   2.334  -6.365  0.00  0.00    +0.040 A 
ATOM     15  C   UNL     1       2.062   3.582  -6.426  0.00  0.00    +0.124 A 
ATOM     16  C   UNL     1       1.328   4.054  -5.350  0.00  0.00    +0.040 A 
ATOM     17  C   UNL     1       1.185   3.277  -4.217  0.00  0.00    +0.030 A 
ATOM     18  F   UNL     1       2.196   4.342  -7.535  0.00  0.00    -0.205 F 
ENDBRANCH   4  12
BRANCH  11  19
ATOM     19  C   UNL     1       2.024  -1.223   0.870  0.00  0.00    +0.005 A 
ATOM     20  C   UNL     1       1.256  -2.366   0.981  0.00  0.00    +0.008 A 
ATOM     21  C   UNL     1       0.501  -2.586   2.117  0.00  0.00    +0.000 A 
ATOM     22  C   UNL     1       0.513  -1.661   3.146  0.00  0.00    +0.003 A 
ATOM     23  C   UNL     1       1.281  -0.517   3.038  0.00  0.00    +0.038 A 
ATOM     24  C   UNL     1       2.042  -0.299   1.902  0.00  0.00    +0.128 A 
ATOM     25  F   UNL     1       2.797   0.816   1.797  0.00  0.00    -0.205 F 
ENDBRANCH  11  19
BRANCH   1  27
ATOM     26  C   UNL     1      -1.650   0.270  -0.581  0.00  0.00    +0.017 C 
ATOM     27  C   UNL     1      -0.245  -0.210  -0.209  0.00  0.00    +0.007 C 
ATOM     28  C   UNL     1       0.147   0.367   1.152  0.00  0.00    +0.017 C 
ATOM     29  C   UNL     1      -0.231  -1.739  -0.139  0.00  0.00    +0.017 C 
ENDBRANCH   1  27
BRANCH   6  30
ATOM     30  C   UNL     1       4.769   1.579  -3.101  0.00  0.00    +0.211 C 
BRANCH  30  31
ATOM     31  C   UNL     1       5.548   2.003  -1.882  0.00  0.00    +0.233 C 
ATOM     32  O   UNL     1       5.442   1.378  -0.848  0.00  0.00    -0.274 OA
ATOM     33  N   UNL     1       6.360   3.076  -1.941  0.00  0.00    -0.300 N 
ATOM     34  C   UNL     1       6.576   3.924  -3.123  0.00  0.00    +0.108 C 
ATOM     35  C   UNL     1       7.601   5.008  -2.728  0.00  0.00    +0.020 C 
ATOM     36  C   UNL     1       8.332   4.370  -1.517  0.00  0.00    +0.020 C 
ATOM     37  C   UNL     1       7.176   3.599  -0.829  0.00  0.00    +0.108 C 
ENDBRANCH  30  31
ENDBRANCH   6  30
TORSDOF 5
