REMARK  Name = ZINC66479000
REMARK  11 active torsions:
REMARK  status: ('A' for Active; 'I' for Inactive)
REMARK    1  A    between atoms: C_1  and  C_2
REMARK    2  A    between atoms: C_2  and  N_3
REMARK    3  A    between atoms: C_4  and  C_29
REMARK    4  A    between atoms: C_5  and  C_9
REMARK    5  A    between atoms: C_6  and  C_8
REMARK    6  A    between atoms: C_9  and  N_10
REMARK    7  A    between atoms: C_11  and  C_13
REMARK    8  A    between atoms: C_13  and  N_14
REMARK    9  A    between atoms: C_17  and  C_21
REMARK   10  A    between atoms: C_17  and  C_22
REMARK   11  A    between atoms: C_25  and  C_28
REMARK                            x       y       z     vdW  Elec       q    Type
REMARK                         _______ _______ _______ _____ _____    ______ ____
ROOT
ATOM      1  N   UNL     1      -8.378   0.137   3.820  0.00  0.00    -0.215 N 
ATOM      2  C   UNL     1      -9.567  -0.306   3.364  0.00  0.00    +0.251 C 
ATOM      3  O   UNL     1      -9.907  -0.432   2.207  0.00  0.00    -0.272 OA
ATOM      4  C   UNL     1     -10.390  -0.613   4.599  0.00  0.00    +0.135 C 
ATOM      5  N   UNL     1      -9.484  -0.277   5.712  0.00  0.00    -0.281 N 
ATOM      6  C   UNL     1      -8.334   0.147   5.157  0.00  0.00    +0.310 C 
ATOM      7  O   UNL     1      -7.365   0.502   5.798  0.00  0.00    -0.252 OA
ATOM      8  C   UNL     1     -11.644   0.262   4.642  0.00  0.00    +0.047 C 
ATOM      9  H   UNL     1      -9.678  -0.349   6.659  0.00  0.00    +0.152 HD
ENDROOT
BRANCH   4  10
ATOM     10  C   UNL     1     -10.759  -2.074   4.640  0.00  0.00    -0.015 A 
ATOM     11  C   UNL     1     -10.919  -2.779   3.462  0.00  0.00    +0.006 A 
ATOM     12  C   UNL     1     -11.258  -4.119   3.499  0.00  0.00    +0.004 A 
ATOM     13  C   UNL     1     -11.437  -4.753   4.714  0.00  0.00    -0.050 A 
ATOM     14  C   UNL     1     -11.277  -4.048   5.892  0.00  0.00    +0.004 A 
ATOM     15  C   UNL     1     -10.933  -2.709   5.855  0.00  0.00    +0.006 A 
ATOM     16  C   UNL     1     -11.808  -6.213   4.755  0.00  0.00    +0.044 C 
ENDBRANCH   4  10
BRANCH   1  17
ATOM     17  C   UNL     1      -7.268   0.550   2.957  0.00  0.00    +0.213 C 
BRANCH  17  19
ATOM     18  N   UNL     1      -5.307  -0.498   1.874  0.00  0.00    -0.310 N 
ATOM     19  C   UNL     1      -6.396  -0.641   2.655  0.00  0.00    +0.231 C 
ATOM     20  O   UNL     1      -6.673  -1.728   3.116  0.00  0.00    -0.274 OA
ATOM     21  H   UNL     1      -5.085   0.371   1.506  0.00  0.00    +0.149 HD
BRANCH  18  22
ATOM     22  C   UNL     1      -4.459  -1.656   1.581  0.00  0.00    +0.143 C 
BRANCH  22  25
ATOM     23  N   UNL     1      -1.372  -0.511   0.012  0.00  0.00    -0.268 N 
ATOM     24  C   UNL     1      -2.109  -0.787   1.109  0.00  0.00    +0.041 A 
ATOM     25  C   UNL     1      -3.317  -1.231   0.694  0.00  0.00    +0.013 A 
ATOM     26  C   UNL     1      -3.320  -1.227  -0.705  0.00  0.00    +0.065 A 
ATOM     27  N   UNL     1      -2.156  -0.790  -1.114  0.00  0.00    -0.176 NA
ATOM     28  C   UNL     1      -4.467  -1.647  -1.588  0.00  0.00    +0.068 C 
ATOM     29  C   UNL     1      -1.664  -0.628   2.541  0.00  0.00    +0.065 C 
BRANCH  23  31
ATOM     30  C   UNL     1      -0.019   1.526   0.010  0.00  0.00    +0.029 C 
ATOM     31  C   UNL     1       0.002  -0.004   0.002  0.00  0.00    +0.140 C 
ENDBRANCH  23  31
ENDBRANCH  22  25
ENDBRANCH  18  22
ENDBRANCH  17  19
ENDBRANCH   1  17
TORSDOF 6
