REMARK  Name = ZINC08923401
REMARK  8 active torsions:
REMARK  status: ('A' for Active; 'I' for Inactive)
REMARK    1  A    between atoms: C_1  and  C_2
REMARK    2  A    between atoms: C_2  and  C_3
REMARK    3  A    between atoms: C_2  and  N_54
REMARK    4  A    between atoms: C_11  and  O_30
REMARK    5  A    between atoms: C_13  and  C_16
REMARK    6  A    between atoms: C_19  and  O_22
REMARK    7  A    between atoms: O_22  and  C_23
REMARK    8  A    between atoms: C_23  and  C_25
REMARK                            x       y       z     vdW  Elec       q    Type
REMARK                         _______ _______ _______ _____ _____    ______ ____
ROOT
ATOM      1  C   UNL     1      -0.070  -5.640   6.626  0.00  0.00    -0.073 C 
ATOM      2  C   UNL     1      -0.718  -5.169   5.322  0.00  0.00    +0.018 C 
ATOM      3  C   UNL     1       0.376  -5.024   4.271  0.00  0.00    -0.027 A 
ATOM      4  C   UNL     1       1.674  -4.950   4.652  0.00  0.00    -0.021 A 
ATOM      5  S   UNL     1       2.585  -4.795   3.140  0.00  0.00    -0.080 S 
ATOM      6  C   UNL     1       1.276  -4.827   2.037  0.00  0.00    +0.080 A 
ATOM      7  C   UNL     1       0.136  -4.956   2.842  0.00  0.00    +0.067 A 
ATOM      8  C   UNL     1      -1.179  -5.007   2.154  0.00  0.00    +0.220 C 
ATOM      9  N   UNL     1      -1.210  -4.730   0.879  0.00  0.00    -0.223 NA
ATOM     10  C   UNL     1      -0.066  -4.277   0.099  0.00  0.00    +0.224 C 
ATOM     11  N   UNL     1       1.206  -4.760   0.668  0.00  0.00    -0.313 N 
ATOM     12  C   UNL     1       2.193  -4.992   6.055  0.00  0.00    -0.035 C 
ATOM     13  H   UNL     1       1.953  -5.016   0.106  0.00  0.00    +0.149 HD
ATOM     14  N   UNL     1       1.052  -4.742   6.969  0.00  0.00    +0.384 N 
ATOM     15  H   UNL     1       0.746  -3.768   6.862  0.00  0.00    -0.081 HD
ENDROOT
BRANCH  10  16
ATOM     16  C   UNL     1      -0.052  -2.770   0.075  0.00  0.00    -0.005 A 
ATOM     17  C   UNL     1      -1.240  -2.068   0.173  0.00  0.00    +0.011 A 
ATOM     18  C   UNL     1      -1.230  -0.687   0.151  0.00  0.00    +0.047 A 
ATOM     19  C   UNL     1      -0.028  -0.004   0.031  0.00  0.00    +0.132 A 
ATOM     20  C   UNL     1       1.161  -0.711  -0.071  0.00  0.00    +0.047 A 
ATOM     21  C   UNL     1       1.147  -2.092  -0.043  0.00  0.00    +0.011 A 
BRANCH  19  22
ATOM     22  O   UNL     1      -0.016   1.355   0.009  0.00  0.00    -0.422 OA
BRANCH  22  23
ATOM     23  C   UNL     1      -0.329   2.009   1.147  0.00  0.00    +0.351 C 
ATOM     24  O   UNL     1      -0.508   1.387   2.177  0.00  0.00    -0.244 OA
BRANCH  23  25
ATOM     25  C   UNL     1      -0.453   3.468   1.142  0.00  0.00    +0.097 A 
ATOM     26  C   UNL     1      -0.763   4.323   2.189  0.00  0.00    +0.022 A 
ATOM     27  C   UNL     1      -0.814   5.665   1.906  0.00  0.00    +0.008 A 
ATOM     28  C   UNL     1      -0.563   6.085   0.638  0.00  0.00    +0.046 A 
ATOM     29  S   UNL     1      -0.238   4.610  -0.212  0.00  0.00    -0.090 S 
ENDBRANCH  23  25
ENDBRANCH  22  23
ENDBRANCH  19  22
ENDBRANCH  10  16
BRANCH  14  31
ATOM     30  C   UNL     1       2.645  -4.040   8.693  0.00  0.00    -0.014 C 
ATOM     31  C   UNL     1       1.469  -4.964   8.370  0.00  0.00    -0.074 C 
ATOM     32  C   UNL     1       0.295  -4.637   9.295  0.00  0.00    -0.014 C 
ENDBRANCH  14  31
BRANCH   8  33
ATOM     33  O   UNL     1      -2.308  -5.330   2.826  0.00  0.00    -0.492 OA
ATOM     34  H   UNL     1      -3.105  -5.332   2.279  0.00  0.00    +0.294 HD
ENDBRANCH   8  33
TORSDOF 6
