REMARK  Name = ZINC39710939
REMARK  12 active torsions:
REMARK  status: ('A' for Active; 'I' for Inactive)
REMARK    1  A    between atoms: C_1  and  C_2
REMARK    2  A    between atoms: C_8  and  C_14
REMARK    3  A    between atoms: C_14  and  C_16
REMARK    4  A    between atoms: C_14  and  N_25
REMARK    5  A    between atoms: N_20  and  C_21
REMARK    6  A    between atoms: C_21  and  C_22
REMARK    7  A    between atoms: C_22  and  O_23
REMARK    8  A    between atoms: O_23  and  C_24
REMARK    9  A    between atoms: N_25  and  C_26
REMARK   10  A    between atoms: N_25  and  C_34
REMARK   11  A    between atoms: C_26  and  C_27
REMARK   12  A    between atoms: C_34  and  C_35
REMARK                            x       y       z     vdW  Elec       q    Type
REMARK                         _______ _______ _______ _____ _____    ______ ____
ROOT
ATOM      1  C   UNL     1       1.673  -2.713   4.336  0.00  0.00    +0.019 C 
ENDROOT
BRANCH   1   9
ATOM      2  C   UNL     1      -0.984   1.011   0.244  0.00  0.00    +0.045 C 
ATOM      3  C   UNL     1      -1.014  -0.488   0.395  0.00  0.00    -0.029 A 
ATOM      4  C   UNL     1      -1.450  -1.261  -0.634  0.00  0.00    +0.005 A 
ATOM      5  C   UNL     1      -1.502  -2.653  -0.560  0.00  0.00    +0.001 A 
ATOM      6  C   UNL     1      -1.117  -3.317   0.561  0.00  0.00    +0.009 A 
ATOM      7  C   UNL     1      -0.637  -2.546   1.708  0.00  0.00    -0.007 A 
ATOM      8  C   UNL     1      -0.239  -3.169   2.853  0.00  0.00    -0.006 C 
ATOM      9  C   UNL     1       0.243  -2.291   3.991  0.00  0.00    +0.092 C 
ATOM     10  C   UNL     1       0.244  -0.796   3.763  0.00  0.00    +0.223 C 
ATOM     11  O   UNL     1       0.621  -0.044   4.642  0.00  0.00    -0.275 OA
ATOM     12  N   UNL     1      -0.167  -0.309   2.604  0.00  0.00    -0.284 N 
ATOM     13  C   UNL     1      -0.587  -1.077   1.599  0.00  0.00    +0.043 A 
ATOM     14  H   UNL     1      -0.159   0.653   2.478  0.00  0.00    +0.155 HD
ENDBRANCH   1   9
BRANCH   1  15
ATOM     15  C   UNL     1       2.579  -2.421   3.168  0.00  0.00    +0.139 A 
ATOM     16  N   UNL     1       3.039  -1.248   2.808  0.00  0.00    -0.115 NA
ATOM     17  N   UNL     1       3.777  -1.413   1.764  0.00  0.00    -0.023 NA
ATOM     18  N   UNL     1       3.800  -2.661   1.450  0.00  0.00    -0.044 NA
ATOM     19  N   UNL     1       3.077  -3.316   2.295  0.00  0.00    -0.229 N 
BRANCH  19  20
ATOM     20  C   UNL     1       2.841  -4.762   2.300  0.00  0.00    +0.175 C 
BRANCH  20  21
ATOM     21  C   UNL     1       1.726  -5.101   1.309  0.00  0.00    +0.183 C 
BRANCH  21  22
ATOM     22  O   UNL     1       1.482  -6.508   1.329  0.00  0.00    -0.381 OA
ATOM     23  C   UNL     1       0.452  -6.933   0.433  0.00  0.00    +0.194 C 
ENDBRANCH  21  22
ENDBRANCH  20  21
ENDBRANCH  19  20
ENDBRANCH   1  15
BRANCH   1  24
ATOM     24  N   UNL     1       2.134  -1.963   5.512  0.00  0.00    +0.394 N 
ATOM     25  H   UNL     1       2.202  -0.983   5.281  0.00  0.00    -0.080 HD
BRANCH  24  26
ATOM     26  C   UNL     1       3.453  -2.462   5.924  0.00  0.00    -0.041 C 
BRANCH  26  27
ATOM     27  C   UNL     1       3.362  -3.936   6.223  0.00  0.00    -0.064 A 
ATOM     28  C   UNL     1       2.951  -4.364   7.471  0.00  0.00    +0.003 A 
ATOM     29  C   UNL     1       2.867  -5.716   7.745  0.00  0.00    +0.020 A 
ATOM     30  C   UNL     1       3.195  -6.641   6.770  0.00  0.00    +0.041 A 
ATOM     31  C   UNL     1       3.607  -6.212   5.521  0.00  0.00    +0.020 A 
ATOM     32  C   UNL     1       3.684  -4.860   5.246  0.00  0.00    +0.003 A 
ATOM     33 CL   UNL     1       3.091  -8.339   7.114  0.00  0.00    -0.084 Cl
ENDBRANCH  26  27
ENDBRANCH  24  26
BRANCH  24  34
ATOM     34  C   UNL     1       1.178  -2.141   6.613  0.00  0.00    -0.002 C 
BRANCH  34  35
ATOM     35  C   UNL     1       1.570  -1.257   7.768  0.00  0.00    +0.089 A 
ATOM     36  C   UNL     1       1.089  -0.025   8.014  0.00  0.00    +0.042 A 
ATOM     37  C   UNL     1       1.726   0.436   9.189  0.00  0.00    +0.041 A 
ATOM     38  C   UNL     1       2.559  -0.541   9.590  0.00  0.00    +0.195 A 
ATOM     39  O   UNL     1       2.456  -1.566   8.729  0.00  0.00    -0.470 OA
ENDBRANCH  34  35
ENDBRANCH  24  34
ENDBRANCH   1  24
TORSDOF 10
