REMARK  Name = ZINC32592817
REMARK  3 active torsions:
REMARK  status: ('A' for Active; 'I' for Inactive)
REMARK    1  A    between atoms: C_1  and  N_2
REMARK    2  A    between atoms: N_2  and  C_3
REMARK    3  A    between atoms: C_3  and  C_4
REMARK                            x       y       z     vdW  Elec       q    Type
REMARK                         _______ _______ _______ _____ _____    ______ ____
ROOT
ATOM      1  C   UNL     1      -1.389  -1.016   1.714  0.00  0.00    +0.083 A 
ATOM      2  C   UNL     1      -2.167  -0.185   2.524  0.00  0.00    -0.002 A 
ATOM      3  C   UNL     1      -3.369  -0.783   2.701  0.00  0.00    +0.040 A 
ATOM      4  N   UNL     1      -3.356  -1.945   2.018  0.00  0.00    -0.281 N 
ATOM      5  H   UNL     1      -4.087  -2.579   1.958  0.00  0.00    +0.189 HD
ATOM      6  N   UNL     1      -2.102  -2.070   1.406  0.00  0.00    -0.177 NA
ATOM      7  C   UNL     1      -4.504  -0.241   3.531  0.00  0.00    +0.055 C 
ATOM      8  C   UNL     1      -4.724   1.234   3.186  0.00  0.00    +0.006 C 
ATOM      9  C   UNL     1      -3.846   2.107   4.078  0.00  0.00    +0.001 C 
ATOM     10  C   UNL     1      -2.529   1.401   4.393  0.00  0.00    +0.005 C 
ATOM     11  C   UNL     1      -1.756   1.148   3.097  0.00  0.00    +0.039 C 
ENDROOT
BRANCH   1  12
ATOM     12  C   UNL     1       0.024  -0.743   1.267  0.00  0.00    +0.165 C 
BRANCH  12  14
ATOM     13  C   UNL     1      -0.018   1.461   0.010  0.00  0.00    +0.132 C 
ATOM     14  N   UNL     1       0.002  -0.004   0.002  0.00  0.00    -0.297 N 
ATOM     15  C   UNL     1       0.000  -0.690  -1.200  0.00  0.00    +0.218 A 
ATOM     16  N   UNL     1       0.013  -2.014  -1.190  0.00  0.00    -0.223 NA
ATOM     17  C   UNL     1       0.011  -2.700  -2.321  0.00  0.00    +0.116 A 
ATOM     18  C   UNL     1      -0.005  -2.016  -3.526  0.00  0.00    +0.039 A 
ATOM     19  C   UNL     1      -0.018  -0.630  -3.501  0.00  0.00    +0.116 A 
ATOM     20  N   UNL     1      -0.020  -0.005  -2.335  0.00  0.00    -0.223 NA
ENDBRANCH  12  14
ENDBRANCH   1  12
TORSDOF 2
