REMARK  Name = ZINC09407383
REMARK  14 active torsions:
REMARK  status: ('A' for Active; 'I' for Inactive)
REMARK    1  A    between atoms: C_1  and  C_2
REMARK    2  A    between atoms: C_4  and  N_9
REMARK    3  A    between atoms: C_10  and  C_12
REMARK    4  A    between atoms: C_12  and  C_13
REMARK    5  A    between atoms: C_13  and  C_14
REMARK    6  A    between atoms: C_15  and  C_33
REMARK    7  A    between atoms: C_19  and  C_24
REMARK    8  A    between atoms: C_22  and  C_23
REMARK    9  A    between atoms: C_24  and  N_25
REMARK   10  A    between atoms: C_26  and  O_28
REMARK   11  A    between atoms: O_28  and  C_29
REMARK   12  A    between atoms: C_29  and  C_30
REMARK   13  A    between atoms: C_29  and  C_31
REMARK   14  A    between atoms: C_29  and  C_32
REMARK                            x       y       z     vdW  Elec       q    Type
REMARK                         _______ _______ _______ _____ _____    ______ ____
ROOT
ATOM      1  C   UNL     1      -5.626  -2.163   0.906  0.00  0.00    -0.005 A 
ATOM      2  C   UNL     1      -5.454  -2.240  -0.481  0.00  0.00    +0.047 A 
ATOM      3  N   UNL     1      -4.570  -1.477  -1.083  0.00  0.00    -0.216 NA
ATOM      4  C   UNL     1      -3.820  -0.616  -0.387  0.00  0.00    +0.254 A 
ATOM      5  N   UNL     1      -2.880   0.251  -0.748  0.00  0.00    -0.192 NA
ATOM      6  C   UNL     1      -2.421   0.886   0.322  0.00  0.00    +0.171 A 
ATOM      7  N   UNL     1      -3.049   0.458   1.392  0.00  0.00    -0.147 NA
ATOM      8  N   UNL     1      -3.963  -0.516   0.969  0.00  0.00    -0.201 N 
ATOM      9  C   UNL     1      -4.869  -1.291   1.621  0.00  0.00    +0.048 A 
ATOM     10  C   UNL     1      -5.031  -1.185   3.116  0.00  0.00    +0.066 C 
ATOM     11  C   UNL     1      -6.287  -3.203  -1.288  0.00  0.00    +0.066 C 
ENDROOT
BRANCH   1  12
ATOM     12  C   UNL     1      -6.640  -3.037   1.598  0.00  0.00    +0.048 C 
BRANCH  12  13
ATOM     13  C   UNL     1      -7.987  -2.313   1.652  0.00  0.00    +0.101 C 
BRANCH  13  15
ATOM     14  N   UNL     1     -10.265  -2.753   2.507  0.00  0.00    -0.285 N 
ATOM     15  C   UNL     1      -9.000  -3.188   2.344  0.00  0.00    +0.218 C 
ATOM     16  O   UNL     1      -8.677  -4.282   2.754  0.00  0.00    -0.275 OA
ATOM     17  H   UNL     1     -10.505  -1.850   2.249  0.00  0.00    +0.155 HD
BRANCH  14  21
ATOM     18  C   UNL     1     -14.313  -3.373   5.228  0.00  0.00    +0.045 C 
ATOM     19  C   UNL     1     -13.207  -3.933   4.372  0.00  0.00    -0.035 A 
ATOM     20  C   UNL     1     -12.252  -3.089   3.838  0.00  0.00    +0.027 A 
ATOM     21  C   UNL     1     -11.233  -3.606   3.050  0.00  0.00    +0.034 A 
ATOM     22  C   UNL     1     -11.180  -4.971   2.795  0.00  0.00    +0.024 A 
ATOM     23  C   UNL     1     -12.133  -5.810   3.336  0.00  0.00    +0.017 A 
ATOM     24  C   UNL     1     -13.148  -5.292   4.122  0.00  0.00    +0.021 A 
ATOM     25 BR   UNL     1     -14.456  -6.445   4.855  0.00  0.00    -0.050 Br
ENDBRANCH  14  21
ENDBRANCH  13  15
ENDBRANCH  12  13
ENDBRANCH   1  12
BRANCH   6  26
ATOM     26  C   UNL     1      -1.346   1.942   0.311  0.00  0.00    +0.185 C 
BRANCH  26  27
ATOM     27  N   UNL     1      -0.036   1.308   0.481  0.00  0.00    -0.274 N 
ATOM     28  C   UNL     1       1.081   2.062   0.496  0.00  0.00    +0.401 C 
ATOM     29  O   UNL     1       1.001   3.268   0.374  0.00  0.00    -0.226 OA
ATOM     30  H   UNL     1       0.027   0.345   0.579  0.00  0.00    +0.152 HD
BRANCH  28  31
ATOM     31  O   UNL     1       2.284   1.479   0.647  0.00  0.00    -0.445 OA
BRANCH  31  32
ATOM     32  C   UNL     1       3.444   2.353   0.654  0.00  0.00    +0.107 C 
ATOM     33  C   UNL     1       3.323   3.351   1.808  0.00  0.00    +0.055 C 
ATOM     34  C   UNL     1       4.712   1.516   0.835  0.00  0.00    +0.055 C 
ATOM     35  C   UNL     1       3.519   3.112  -0.672  0.00  0.00    +0.055 C 
ENDBRANCH  31  32
ENDBRANCH  28  31
ENDBRANCH  26  27
ENDBRANCH   6  26
TORSDOF 8
