REMARK  Name = ZINC24911401
REMARK  4 active torsions:
REMARK  status: ('A' for Active; 'I' for Inactive)
REMARK    1  A    between atoms: C_1  and  N_2
REMARK    2  A    between atoms: C_6  and  C_7
REMARK    3  A    between atoms: C_11  and  N_13
REMARK    4  A    between atoms: C_16  and  N_19
REMARK                            x       y       z     vdW  Elec       q    Type
REMARK                         _______ _______ _______ _____ _____    ______ ____
ROOT
ATOM      1  N   UNL     1      -6.233   3.582  -0.041  0.00  0.00    +0.384 N 
ATOM      2  C   UNL     1      -6.156   3.317  -1.484  0.00  0.00    -0.076 C 
ATOM      3  C   UNL     1      -7.570   3.244  -2.066  0.00  0.00    +0.006 C 
ATOM      4  C   UNL     1      -8.348   2.128  -1.363  0.00  0.00    +0.089 C 
ATOM      5  C   UNL     1      -8.372   2.403   0.143  0.00  0.00    +0.006 C 
ATOM      6  C   UNL     1      -6.935   2.500   0.661  0.00  0.00    -0.076 C 
ATOM      7  H   UNL     1      -6.813   4.506   0.099  0.00  0.00    -0.081 HD
ENDROOT
BRANCH   4   8
ATOM      8  N   UNL     1      -9.720   2.091  -1.876  0.00  0.00    -0.289 N 
ATOM      9  C   UNL     1     -10.327   1.007  -2.505  0.00  0.00    +0.070 A 
ATOM     10  C   UNL     1      -9.893  -0.270  -2.830  0.00  0.00    +0.028 A 
ATOM     11  C   UNL     1     -10.748  -1.144  -3.471  0.00  0.00    +0.002 A 
ATOM     12  C   UNL     1     -12.037  -0.752  -3.790  0.00  0.00    +0.002 A 
ATOM     13  C   UNL     1     -12.478   0.517  -3.471  0.00  0.00    +0.028 A 
ATOM     14  C   UNL     1     -11.627   1.403  -2.828  0.00  0.00    +0.067 A 
ATOM     15  N   UNL     1     -11.770   2.715  -2.384  0.00  0.00    -0.306 N 
ATOM     16  H   UNL     1     -12.722   3.245  -2.533  0.00  0.00    +0.170 HD
ATOM     17  C   UNL     1     -10.612   3.098  -1.813  0.00  0.00    +0.328 A 
ATOM     18  O   UNL     1     -10.402   4.190  -1.319  0.00  0.00    -0.247 OA
ENDBRANCH   4   8
BRANCH   1  23
ATOM     19  C   UNL     1      -1.573   4.250   0.038  0.00  0.00    +0.263 C 
ATOM     20  O   UNL     1      -1.126   5.378   0.131  0.00  0.00    -0.268 OA
ATOM     21  N   UNL     1      -2.904   4.056  -0.047  0.00  0.00    -0.299 N 
ATOM     22  C   UNL     1      -3.805   2.895  -0.078  0.00  0.00    +0.094 C 
ATOM     23  C   UNL     1      -4.895   3.796   0.526  0.00  0.00    -0.033 C 
ATOM     24  C   UNL     1      -4.093   4.914  -0.155  0.00  0.00    +0.094 C 
BRANCH  19  30
ATOM     25  C   UNL     1       1.523   4.373   0.018  0.00  0.00    +0.149 C 
ATOM     26  N   UNL     1       0.714   3.152   0.008  0.00  0.00    -0.346 N 
ATOM     27  C   UNL     1       1.195   1.885  -0.015  0.00  0.00    +0.086 A 
ATOM     28  C   UNL     1       0.152   1.020  -0.012  0.00  0.00    +0.020 A 
ATOM     29  C   UNL     1      -1.027   1.771   0.008  0.00  0.00    +0.032 A 
ATOM     30  C   UNL     1      -0.662   3.100   0.017  0.00  0.00    +0.104 A 
ENDBRANCH  19  30
ENDBRANCH   1  23
TORSDOF 3
