REMARK  Name = ZINC58903545
REMARK  5 active torsions:
REMARK  status: ('A' for Active; 'I' for Inactive)
REMARK    1  A    between atoms: C_1  and  C_2
REMARK    2  A    between atoms: N_5  and  C_7
REMARK    3  A    between atoms: C_14  and  N_28
REMARK    4  A    between atoms: C_15  and  C_25
REMARK    5  A    between atoms: C_16  and  C_18
REMARK                            x       y       z     vdW  Elec       q    Type
REMARK                         _______ _______ _______ _____ _____    ______ ____
ROOT
ATOM      1  C   UNL     1       0.342   1.427   0.103  0.00  0.00    +0.068 C 
ATOM      2  C   UNL     1       0.198  -0.073   0.052  0.00  0.00    +0.068 A 
ATOM      3  C   UNL     1       0.116  -0.844  -1.100  0.00  0.00    +0.049 A 
ATOM      4  C   UNL     1      -0.005  -2.153  -0.727  0.00  0.00    +0.230 A 
ATOM      5  N   UNL     1       0.001  -2.193   0.624  0.00  0.00    -0.200 N 
ATOM      6  N   UNL     1       0.135  -0.875   1.089  0.00  0.00    -0.168 NA
ATOM      7  O   UNL     1      -0.105  -3.165  -1.623  0.00  0.00    -0.423 OA
ATOM      8  C   UNL     1       0.191  -2.891  -2.909  0.00  0.00    +0.195 C 
ATOM      9  C   UNL     1       0.324  -1.637  -3.401  0.00  0.00    +0.083 C 
ATOM     10  C   UNL     1       0.145  -0.409  -2.543  0.00  0.00    +0.096 C 
ENDROOT
BRANCH  10  11
ATOM     11  C   UNL     1      -1.153   0.272  -2.894  0.00  0.00    -0.035 A 
ATOM     12  C   UNL     1      -2.348  -0.412  -2.774  0.00  0.00    +0.006 A 
ATOM     13  C   UNL     1      -3.538   0.213  -3.097  0.00  0.00    +0.020 A 
ATOM     14  C   UNL     1      -3.533   1.523  -3.540  0.00  0.00    +0.041 A 
ATOM     15  C   UNL     1      -2.336   2.208  -3.660  0.00  0.00    +0.020 A 
ATOM     16  C   UNL     1      -1.147   1.584  -3.332  0.00  0.00    +0.006 A 
ATOM     17 CL   UNL     1      -5.027   2.308  -3.945  0.00  0.00    -0.084 Cl
ENDBRANCH  10  11
BRANCH   5  18
ATOM     18  C   UNL     1      -0.103  -3.343   1.418  0.00  0.00    +0.069 A 
ATOM     19  C   UNL     1      -0.896  -4.405   1.003  0.00  0.00    +0.028 A 
ATOM     20  C   UNL     1      -0.997  -5.537   1.787  0.00  0.00    +0.002 A 
ATOM     21  C   UNL     1      -0.309  -5.614   2.984  0.00  0.00    +0.000 A 
ATOM     22  C   UNL     1       0.481  -4.558   3.400  0.00  0.00    +0.002 A 
ATOM     23  C   UNL     1       0.590  -3.425   2.618  0.00  0.00    +0.028 A 
ENDBRANCH   5  18
BRANCH   9  24
ATOM     24  C   UNL     1       0.639  -1.473  -4.760  0.00  0.00    +0.243 C 
ATOM     25  O   UNL     1       1.783  -1.216  -5.093  0.00  0.00    -0.271 OA
ATOM     26  N   UNL     1      -0.323  -1.599  -5.695  0.00  0.00    -0.325 N 
ATOM     27  H   UNL     1      -1.233  -1.803  -5.430  0.00  0.00    +0.145 HD
ATOM     28  H   UNL     1      -0.105  -1.485  -6.634  0.00  0.00    +0.145 HD
ENDBRANCH   9  24
BRANCH   8  29
ATOM     29  N   UNL     1       0.369  -3.943  -3.769  0.00  0.00    -0.329 N 
ATOM     30  H   UNL     1       0.363  -4.852  -3.431  0.00  0.00    +0.145 HD
ATOM     31  H   UNL     1       0.500  -3.779  -4.716  0.00  0.00    +0.145 HD
ENDBRANCH   8  29
TORSDOF 4
