REMARK  Name = ZINC07390920
REMARK  8 active torsions:
REMARK  status: ('A' for Active; 'I' for Inactive)
REMARK    1  A    between atoms: C_1  and  C_2
REMARK    2  A    between atoms: C_5  and  S_9
REMARK    3  A    between atoms: C_6  and  C_8
REMARK    4  A    between atoms: S_9  and  N_12
REMARK    5  A    between atoms: N_15  and  C_18
REMARK    6  A    between atoms: C_18  and  C_20
REMARK    7  A    between atoms: C_18  and  C_21
REMARK    8  A    between atoms: N_23  and  C_24
REMARK                            x       y       z     vdW  Elec       q    Type
REMARK                         _______ _______ _______ _____ _____    ______ ____
ROOT
ATOM      1  N   UNL     1      -3.640  -0.241  -0.177  0.00  0.00    -0.180 NA
ATOM      2  C   UNL     1      -2.897  -0.759   0.982  0.00  0.00    +0.091 C 
ATOM      3  C   UNL     1      -1.645   0.101   1.181  0.00  0.00    -0.060 C 
ATOM      4  N   UNL     1      -0.883   0.149  -0.074  0.00  0.00    +0.389 N 
ATOM      5  C   UNL     1      -1.656   0.796  -1.142  0.00  0.00    -0.060 C 
ATOM      6  C   UNL     1      -2.909  -0.035  -1.437  0.00  0.00    +0.091 C 
ATOM      7  H   UNL     1      -0.685  -0.887  -0.386  0.00  0.00    -0.081 HD
ENDROOT
BRANCH   1   8
ATOM      8  S   UNL     1      -5.257   0.101  -0.066  0.00  0.00    +0.061 S 
ATOM      9  O   UNL     1      -5.802  -0.089  -1.365  0.00  0.00    -0.153 OA
ATOM     10  O   UNL     1      -5.742  -0.596   1.073  0.00  0.00    -0.153 OA
BRANCH   8  15
ATOM     11  C   UNL     1      -5.756   5.986   1.171  0.00  0.00    +0.044 C 
ATOM     12  C   UNL     1      -5.631   4.516   0.861  0.00  0.00    -0.050 A 
ATOM     13  C   UNL     1      -6.067   4.026  -0.356  0.00  0.00    +0.005 A 
ATOM     14  C   UNL     1      -5.953   2.678  -0.639  0.00  0.00    +0.029 A 
ATOM     15  C   UNL     1      -5.402   1.820   0.295  0.00  0.00    +0.108 A 
ATOM     16  C   UNL     1      -4.971   2.309   1.513  0.00  0.00    -0.024 A 
ATOM     17  C   UNL     1      -5.080   3.658   1.795  0.00  0.00    +0.008 A 
ATOM     18  C   UNL     1      -4.376   1.372   2.533  0.00  0.00    +0.046 C 
ENDBRANCH   8  15
ENDBRANCH   1   8
BRANCH   4  19
ATOM     19  C   UNL     1       0.410   0.819   0.120  0.00  0.00    +0.016 C 
ATOM     20  C   UNL     1       0.174   2.286   0.486  0.00  0.00    -0.004 C 
BRANCH  19  21
ATOM     21  C   UNL     1       1.212   0.741  -1.153  0.00  0.00    +0.199 C 
ATOM     22  O   UNL     1       0.752   0.183  -2.127  0.00  0.00    -0.278 OA
ATOM     23  N   UNL     1       2.441   1.293  -1.210  0.00  0.00    -0.314 N 
ATOM     24  H   UNL     1       2.858   1.799  -0.328  0.00  0.00    +0.149 HD
BRANCH  23  25
ATOM     25  C   UNL     1       3.220   1.217  -2.448  0.00  0.00    +0.073 C 
ATOM     26  C   UNL     1       3.975  -0.113  -2.495  0.00  0.00    +0.022 C 
ATOM     27  C   UNL     1       4.790  -0.192  -3.788  0.00  0.00    +0.002 C 
ATOM     28  C   UNL     1       5.791   0.965  -3.832  0.00  0.00    +0.000 C 
ATOM     29  C   UNL     1       5.036   2.295  -3.785  0.00  0.00    +0.002 C 
ATOM     30  C   UNL     1       4.221   2.373  -2.492  0.00  0.00    +0.022 C 
ENDBRANCH  23  25
ENDBRANCH  19  21
ENDBRANCH   4  19
TORSDOF 5
