REMARK  Name = ZINC39159898
REMARK  8 active torsions:
REMARK  status: ('A' for Active; 'I' for Inactive)
REMARK    1  A    between atoms: C_1  and  C_2
REMARK    2  A    between atoms: C_2  and  N_3
REMARK    3  A    between atoms: C_10  and  O_35
REMARK    4  A    between atoms: C_12  and  C_16
REMARK    5  A    between atoms: N_18  and  N_19
REMARK    6  A    between atoms: C_20  and  C_21
REMARK    7  A    between atoms: C_20  and  C_22
REMARK    8  A    between atoms: C_24  and  O_34
REMARK                            x       y       z     vdW  Elec       q    Type
REMARK                         _______ _______ _______ _____ _____    ______ ____
ROOT
ATOM      1  C   UNL     1       1.278  -0.030   4.316  0.00  0.00    +0.247 C 
ATOM      2  O   UNL     1       2.470   0.061   4.524  0.00  0.00    -0.273 OA
ATOM      3  N   UNL     1       0.441   0.927   4.761  0.00  0.00    -0.206 N 
ATOM      4  H   UNL     1      -0.512   0.853   4.595  0.00  0.00    +0.177 HD
ENDROOT
BRANCH   1  13
ATOM      5  N   UNL     1       0.711  -0.489   1.189  0.00  0.00    -0.271 N 
ATOM      6  C   UNL     1       2.092  -0.696   1.136  0.00  0.00    +0.042 A 
ATOM      7  C   UNL     1       2.850  -0.102   0.136  0.00  0.00    +0.024 A 
ATOM      8  C   UNL     1       4.215  -0.310   0.090  0.00  0.00    +0.002 A 
ATOM      9  C   UNL     1       4.826  -1.109   1.039  0.00  0.00    +0.000 A 
ATOM     10  C   UNL     1       4.074  -1.703   2.036  0.00  0.00    +0.008 A 
ATOM     11  C   UNL     1       2.710  -1.498   2.087  0.00  0.00    +0.003 A 
ATOM     12  C   UNL     1       1.887  -2.143   3.172  0.00  0.00    +0.167 C 
ATOM     13  C   UNL     1       0.735  -1.215   3.559  0.00  0.00    +0.195 C 
ATOM     14  C   UNL     1       0.028  -0.728   2.324  0.00  0.00    +0.235 C 
ATOM     15  O   UNL     1      -1.172  -0.552   2.350  0.00  0.00    -0.274 OA
BRANCH   5  17
ATOM     16  C   UNL     1      -0.019   1.526   0.010  0.00  0.00    +0.025 C 
ATOM     17  C   UNL     1       0.002  -0.004   0.002  0.00  0.00    +0.110 C 
ENDBRANCH   5  17
BRANCH  12  18
ATOM     18  O   UNL     1       2.711  -2.381   4.316  0.00  0.00    -0.386 OA
ATOM     19  H   UNL     1       3.463  -2.964   4.144  0.00  0.00    +0.210 HD
ENDBRANCH  12  18
ENDBRANCH   1  13
BRANCH   3  20
ATOM     20  N   UNL     1       0.946   2.028   5.465  0.00  0.00    -0.188 NA
ATOM     21  C   UNL     1       0.150   2.937   5.887  0.00  0.00    +0.053 C 
ATOM     22  C   UNL     1      -1.330   2.823   5.629  0.00  0.00    +0.063 C 
BRANCH  21  23
ATOM     23  C   UNL     1       0.694   4.122   6.644  0.00  0.00    +0.186 C 
ATOM     24  C   UNL     1       2.207   4.075   6.557  0.00  0.00    +0.120 C 
ATOM     25  C   UNL     1       2.911   4.028   7.762  0.00  0.00    +0.035 A 
ATOM     26  C   UNL     1       4.320   3.984   7.772  0.00  0.00    +0.013 A 
ATOM     27  C   UNL     1       4.982   3.938   8.960  0.00  0.00    +0.001 A 
ATOM     28  C   UNL     1       4.295   3.936  10.170  0.00  0.00    +0.002 A 
ATOM     29  C   UNL     1       2.934   3.978  10.224  0.00  0.00    +0.024 A 
ATOM     30  C   UNL     1       2.186   4.026   9.036  0.00  0.00    +0.044 A 
ATOM     31  N   UNL     1       0.849   4.067   9.091  0.00  0.00    -0.284 N 
ATOM     32  C   UNL     1       0.078   4.113   8.024  0.00  0.00    +0.233 C 
ATOM     33  O   UNL     1      -1.132   4.149   8.151  0.00  0.00    -0.274 OA
ATOM     34  H   UNL     1       0.425   4.063   9.964  0.00  0.00    +0.155 HD
BRANCH  24  35
ATOM     35  O   UNL     1       2.840   4.079   5.379  0.00  0.00    -0.509 OA
ATOM     36  H   UNL     1       3.803   4.047   5.449  0.00  0.00    +0.292 HD
ENDBRANCH  24  35
ENDBRANCH  21  23
ENDBRANCH   3  20
TORSDOF 6
