REMARK  Name = ZINC40125118
REMARK  9 active torsions:
REMARK  status: ('A' for Active; 'I' for Inactive)
REMARK    1  A    between atoms: C_1  and  C_2
REMARK    2  A    between atoms: C_2  and  C_3
REMARK    3  A    between atoms: C_3  and  O_4
REMARK    4  A    between atoms: O_4  and  C_5
REMARK    5  A    between atoms: C_10  and  C_11
REMARK    6  A    between atoms: C_13  and  C_19
REMARK    7  A    between atoms: C_19  and  C_21
REMARK    8  A    between atoms: C_22  and  C_27
REMARK    9  A    between atoms: C_24  and  C_26
REMARK                            x       y       z     vdW  Elec       q    Type
REMARK                         _______ _______ _______ _____ _____    ______ ____
ROOT
ATOM      1  C   UNL     1       0.877  -4.964  -1.462  0.00  0.00    +0.145 C 
ATOM      2  C   UNL     1       1.727  -4.972  -0.213  0.00  0.00    +0.077 C 
ATOM      3  C   UNL     1       2.061  -6.261   0.023  0.00  0.00    +0.249 C 
ATOM      4  C   UNL     1       1.465  -7.117  -1.022  0.00  0.00    +0.285 C 
ATOM      5  O   UNL     1       1.583  -8.325  -1.086  0.00  0.00    -0.267 OA
ATOM      6  N   UNL     1       0.770  -6.363  -1.895  0.00  0.00    -0.297 N 
ATOM      7  O   UNL     1       2.821  -6.698   1.055  0.00  0.00    -0.282 OA
ATOM      8  H   UNL     1       0.285  -6.685  -2.670  0.00  0.00    +0.150 HD
ENDROOT
BRANCH   1  14
ATOM      9  C   UNL     1       0.822  -3.755  -3.659  0.00  0.00    +0.126 A 
ATOM     10  C   UNL     1       1.434  -2.991  -4.642  0.00  0.00    +0.046 A 
ATOM     11  C   UNL     1       2.757  -2.620  -4.503  0.00  0.00    +0.004 A 
ATOM     12  C   UNL     1       3.472  -3.009  -3.385  0.00  0.00    +0.001 A 
ATOM     13  C   UNL     1       2.865  -3.770  -2.404  0.00  0.00    +0.009 A 
ATOM     14  C   UNL     1       1.540  -4.139  -2.535  0.00  0.00    +0.019 A 
BRANCH   9  15
ATOM     15  O   UNL     1      -0.480  -4.122  -3.793  0.00  0.00    -0.492 OA
BRANCH  15  16
ATOM     16  C   UNL     1      -1.190  -3.595  -4.915  0.00  0.00    +0.229 C 
BRANCH  16  18
ATOM     17  C   UNL     1      -3.392  -3.556  -6.095  0.00  0.00    +0.007 C 
ATOM     18  C   UNL     1      -2.659  -4.014  -4.832  0.00  0.00    +0.038 C 
ENDBRANCH  16  18
ENDBRANCH  15  16
ENDBRANCH   9  15
ENDBRANCH   1  14
BRANCH   2  19
ATOM     19  C   UNL     1       2.116  -3.806   0.588  0.00  0.00    +0.203 C 
ATOM     20  O   UNL     1       2.899  -3.936   1.512  0.00  0.00    -0.286 OA
BRANCH  19  21
ATOM     21  C   UNL     1       1.561  -2.485   0.278  0.00  0.00    +0.082 A 
ATOM     22  C   UNL     1       1.871  -1.241   0.816  0.00  0.00    +0.057 A 
ATOM     23  N   UNL     1       1.204  -0.221   0.337  0.00  0.00    -0.249 NA
ATOM     24  C   UNL     1       0.294  -0.368  -0.598  0.00  0.00    +0.076 A 
ATOM     25  S   UNL     1       0.303  -2.023  -0.903  0.00  0.00    -0.069 S 
ATOM     26  C   UNL     1      -0.553   0.695  -1.249  0.00  0.00    +0.073 C 
ATOM     27  C   UNL     1       2.916  -1.076   1.889  0.00  0.00    +0.067 C 
ENDBRANCH  19  21
ENDBRANCH   2  19
TORSDOF 6
