REMARK  Name = ZINC44031325
REMARK  10 active torsions:
REMARK  status: ('A' for Active; 'I' for Inactive)
REMARK    1  A    between atoms: C_1  and  C_2
REMARK    2  A    between atoms: C_2  and  C_3
REMARK    3  A    between atoms: C_2  and  C_4
REMARK    4  A    between atoms: C_4  and  C_5
REMARK    5  A    between atoms: N_7  and  C_8
REMARK    6  A    between atoms: C_11  and  N_14
REMARK    7  A    between atoms: N_17  and  C_18
REMARK    8  A    between atoms: C_18  and  C_19
REMARK    9  A    between atoms: C_22  and  C_25
REMARK   10  A    between atoms: N_27  and  C_28
REMARK                            x       y       z     vdW  Elec       q    Type
REMARK                         _______ _______ _______ _____ _____    ______ ____
ROOT
ATOM      1  N   UNL     1      -6.325   0.967  -5.993  0.00  0.00    -0.269 N 
ATOM      2  C   UNL     1      -7.649   0.724  -6.047  0.00  0.00    +0.304 C 
ATOM      3  O   UNL     1      -8.191   0.105  -5.152  0.00  0.00    -0.252 OA
ATOM      4  N   UNL     1      -8.374   1.168  -7.093  0.00  0.00    -0.295 N 
ATOM      5  H   UNL     1      -5.880   1.401  -6.738  0.00  0.00    +0.156 HD
ATOM      6  H   UNL     1      -7.941   1.662  -7.808  0.00  0.00    +0.151 HD
ENDROOT
BRANCH   1  10
ATOM      7  C   UNL     1      -4.136  -0.151  -2.624  0.00  0.00    +0.033 A 
ATOM      8  C   UNL     1      -3.806   1.009  -3.313  0.00  0.00    +0.025 A 
ATOM      9  C   UNL     1      -4.531   1.379  -4.428  0.00  0.00    +0.025 A 
ATOM     10  C   UNL     1      -5.589   0.591  -4.861  0.00  0.00    +0.035 A 
ATOM     11  C   UNL     1      -5.919  -0.569  -4.173  0.00  0.00    +0.025 A 
ATOM     12  C   UNL     1      -5.190  -0.942  -3.061  0.00  0.00    +0.025 A 
BRANCH   7  15
ATOM     13  C   UNL     1      -2.920   0.417  -0.657  0.00  0.00    +0.217 C 
ATOM     14  O   UNL     1      -3.052   1.591  -0.929  0.00  0.00    -0.275 OA
ATOM     15  N   UNL     1      -3.401  -0.526  -1.492  0.00  0.00    -0.285 N 
ATOM     16  H   UNL     1      -3.237  -1.465  -1.309  0.00  0.00    +0.155 HD
BRANCH  13  17
ATOM     17  C   UNL     1      -2.220   0.012   0.614  0.00  0.00    +0.099 C 
BRANCH  17  19
ATOM     18  C   UNL     1      -3.010   2.051   1.823  0.00  0.00    +0.008 C 
ATOM     19  C   UNL     1      -1.777   1.264   1.373  0.00  0.00    -0.008 C 
ATOM     20  C   UNL     1      -0.958   0.854   2.599  0.00  0.00    +0.008 C 
ENDBRANCH  17  19
ENDBRANCH  13  17
ENDBRANCH   7  15
ENDBRANCH   1  10
BRANCH   4  21
ATOM     21  C   UNL     1      -9.813   0.904  -7.152  0.00  0.00    +0.141 C 
BRANCH  21  22
ATOM     22  C   UNL     1     -10.383   1.502  -8.413  0.00  0.00    -0.030 A 
ATOM     23  C   UNL     1     -10.849   2.804  -8.409  0.00  0.00    +0.006 A 
ATOM     24  C   UNL     1     -11.372   3.357  -9.560  0.00  0.00    +0.013 A 
ATOM     25  C   UNL     1     -11.428   2.599 -10.730  0.00  0.00    +0.037 A 
ATOM     26  C   UNL     1     -10.956   1.286 -10.728  0.00  0.00    +0.013 A 
ATOM     27  C   UNL     1     -10.431   0.747  -9.572  0.00  0.00    +0.006 A 
BRANCH  25  28
ATOM     28  C   UNL     1     -11.987   3.185 -11.967  0.00  0.00    +0.244 C 
ATOM     29  O   UNL     1     -12.399   4.329 -11.966  0.00  0.00    -0.270 OA
ATOM     30  N   UNL     1     -12.041   2.451 -13.096  0.00  0.00    -0.314 N 
ATOM     31  C   UNL     1     -12.595   3.031 -14.322  0.00  0.00    +0.128 C 
ATOM     32  H   UNL     1     -11.713   1.538 -13.097  0.00  0.00    +0.149 HD
ENDBRANCH  25  28
ENDBRANCH  21  22
ENDBRANCH   4  21
TORSDOF 7
