REMARK  Name = ZINC22937528
REMARK  6 active torsions:
REMARK  status: ('A' for Active; 'I' for Inactive)
REMARK    1  A    between atoms: N_9  and  C_10
REMARK    2  A    between atoms: C_10  and  C_12
REMARK    3  A    between atoms: C_10  and  N_35
REMARK    4  A    between atoms: C_15  and  C_18
REMARK    5  A    between atoms: C_18  and  N_20
REMARK    6  A    between atoms: C_18  and  N_29
REMARK                            x       y       z     vdW  Elec       q    Type
REMARK                         _______ _______ _______ _____ _____    ______ ____
ROOT
ATOM      1  C   UNL     1      -1.005  -4.804  -0.387  0.00  0.00    -0.009 A 
ATOM      2  C   UNL     1      -2.037  -3.987  -0.809  0.00  0.00    +0.007 A 
ATOM      3  C   UNL     1      -1.891  -2.613  -0.772  0.00  0.00    +0.007 A 
ATOM      4  C   UNL     1      -0.711  -2.056  -0.313  0.00  0.00    -0.009 A 
ATOM      5  C   UNL     1       0.323  -2.873   0.104  0.00  0.00    +0.007 A 
ATOM      6  C   UNL     1       0.174  -4.247   0.072  0.00  0.00    +0.007 A 
ENDROOT
BRANCH   1   7
ATOM      7  C   UNL     1      -1.166  -6.302  -0.426  0.00  0.00    +0.210 C 
BRANCH   7  16
ATOM      8  C   UNL     1       2.125  -8.923   2.742  0.00  0.00    +0.002 A 
ATOM      9  C   UNL     1       0.847  -8.477   3.054  0.00  0.00    +0.002 A 
ATOM     10  C   UNL     1       0.100  -7.805   2.127  0.00  0.00    +0.030 A 
ATOM     11  C   UNL     1       0.621  -7.565   0.861  0.00  0.00    +0.091 A 
ATOM     12  C   UNL     1       1.914  -8.014   0.539  0.00  0.00    +0.113 A 
ATOM     13  C   UNL     1       2.659  -8.701   1.506  0.00  0.00    +0.032 A 
ATOM     14  N   UNL     1       2.167  -7.654  -0.735  0.00  0.00    -0.129 NA
ATOM     15  N   UNL     1       1.156  -7.032  -1.232  0.00  0.00    -0.063 NA
ATOM     16  N   UNL     1       0.144  -6.938  -0.266  0.00  0.00    -0.222 N 
ENDBRANCH   7  16
BRANCH   7  17
ATOM     17  N   UNL     1      -1.747  -6.698  -1.716  0.00  0.00    -0.281 NA
ATOM     18  C   UNL     1      -0.988  -6.123  -2.835  0.00  0.00    +0.067 C 
ATOM     19  C   UNL     1      -1.670  -6.493  -4.154  0.00  0.00    -0.067 C 
ATOM     20  N   UNL     1      -1.747  -7.956  -4.270  0.00  0.00    +0.381 N 
ATOM     21  C   UNL     1      -2.506  -8.531  -3.151  0.00  0.00    -0.067 C 
ATOM     22  C   UNL     1      -1.824  -8.161  -1.832  0.00  0.00    +0.067 C 
ATOM     23  H   UNL     1      -2.248  -8.223  -5.212  0.00  0.00    -0.086 HD
ATOM     24  H   UNL     1      -0.731  -8.378  -4.262  0.00  0.00    -0.086 HD
ENDBRANCH   7  17
ENDBRANCH   1   7
BRANCH   4  25
ATOM     25  C   UNL     1      -0.551  -0.558  -0.273  0.00  0.00    +0.210 C 
BRANCH  25  26
ATOM     26  N   UNL     1      -0.779  -0.079   1.093  0.00  0.00    -0.222 N 
ATOM     27  C   UNL     1      -1.892   0.579   1.558  0.00  0.00    +0.091 A 
ATOM     28  C   UNL     1      -3.092   0.978   0.979  0.00  0.00    +0.030 A 
ATOM     29  C   UNL     1      -4.029   1.625   1.735  0.00  0.00    +0.002 A 
ATOM     30  C   UNL     1      -3.797   1.883   3.080  0.00  0.00    +0.002 A 
ATOM     31  C   UNL     1      -2.632   1.496   3.673  0.00  0.00    +0.032 A 
ATOM     32  C   UNL     1      -1.654   0.831   2.921  0.00  0.00    +0.113 A 
ATOM     33  N   UNL     1      -0.436   0.339   3.221  0.00  0.00    -0.129 NA
ATOM     34  N   UNL     1       0.099  -0.196   2.181  0.00  0.00    -0.063 NA
ENDBRANCH  25  26
BRANCH  25  35
ATOM     35  N   UNL     1       0.809  -0.200  -0.697  0.00  0.00    -0.281 NA
ATOM     36  C   UNL     1       0.966   1.259  -0.785  0.00  0.00    +0.067 C 
ATOM     37  C   UNL     1       2.414   1.592  -1.151  0.00  0.00    -0.067 C 
ATOM     38  N   UNL     1       2.753   0.951  -2.429  0.00  0.00    +0.381 N 
ATOM     39  C   UNL     1       2.596  -0.507  -2.342  0.00  0.00    -0.067 C 
ATOM     40  C   UNL     1       1.148  -0.840  -1.976  0.00  0.00    +0.067 C 
ATOM     41  H   UNL     1       2.088   1.332  -3.218  0.00  0.00    -0.086 HD
ATOM     42  H   UNL     1       3.797   1.180  -2.689  0.00  0.00    -0.086 HD
ENDBRANCH  25  35
ENDBRANCH   4  25
TORSDOF 6
