REMARK  Name = ZINC12780348
REMARK  9 active torsions:
REMARK  status: ('A' for Active; 'I' for Inactive)
REMARK    1  A    between atoms: C_1  and  C_2
REMARK    2  A    between atoms: C_4  and  C_29
REMARK    3  A    between atoms: C_6  and  C_28
REMARK    4  A    between atoms: C_7  and  S_8
REMARK    5  A    between atoms: S_8  and  N_11
REMARK    6  A    between atoms: C_17  and  C_19
REMARK    7  A    between atoms: C_29  and  C_30
REMARK    8  A    between atoms: C_29  and  C_31
REMARK    9  A    between atoms: C_29  and  C_32
REMARK                            x       y       z     vdW  Elec       q    Type
REMARK                         _______ _______ _______ _____ _____    ______ ____
ROOT
ATOM      1  N   UNL     1       3.632   4.627   0.680  0.00  0.00    -0.174 NA
ATOM      2  C   UNL     1       4.570   3.866  -0.158  0.00  0.00    +0.128 C 
ATOM      3  C   UNL     1       3.948   3.701  -1.555  0.00  0.00    +0.125 C 
ATOM      4  N   UNL     1       3.488   5.016  -2.022  0.00  0.00    -0.299 N 
ATOM      5  C   UNL     1       2.555   5.780  -1.181  0.00  0.00    +0.125 C 
ATOM      6  C   UNL     1       3.173   5.943   0.213  0.00  0.00    +0.128 C 
ATOM      7  C   UNL     1       3.914   5.513  -3.200  0.00  0.00    +0.219 C 
ATOM      8  O   UNL     1       4.608   4.836  -3.928  0.00  0.00    -0.275 OA
ENDROOT
BRANCH   7   9
ATOM      9  C   UNL     1       3.528   6.911  -3.612  0.00  0.00    +0.078 C 
ATOM     10  C   UNL     1       2.022   6.966  -3.877  0.00  0.00    +0.032 C 
ATOM     11  C   UNL     1       1.627   8.395  -4.262  0.00  0.00    +0.110 C 
ATOM     12  N   UNL     1       2.456   8.825  -5.397  0.00  0.00    -0.286 N 
ATOM     13  C   UNL     1       3.918   8.728  -5.281  0.00  0.00    +0.110 C 
ATOM     14  C   UNL     1       4.286   7.295  -4.884  0.00  0.00    +0.032 C 
ATOM     15  C   UNL     1       1.887   9.300  -6.522  0.00  0.00    +0.300 C 
ATOM     16  O   UNL     1       2.577   9.562  -7.489  0.00  0.00    -0.253 OA
ATOM     17  N   UNL     1       0.553   9.484  -6.577  0.00  0.00    -0.313 N 
ATOM     18  H   UNL     1       0.011   9.347  -5.784  0.00  0.00    +0.146 HD
ATOM     19  H   UNL     1       0.134   9.753  -7.409  0.00  0.00    +0.146 HD
ENDBRANCH   7   9
BRANCH   1  20
ATOM     20  S   UNL     1       3.109   4.016   2.127  0.00  0.00    +0.061 S 
ATOM     21  O   UNL     1       2.786   5.132   2.946  0.00  0.00    -0.153 OA
ATOM     22  O   UNL     1       4.056   3.033   2.519  0.00  0.00    -0.153 OA
BRANCH  20  29
ATOM     23  C   UNL     1       0.369   5.276   2.362  0.00  0.00    +0.046 C 
ATOM     24  C   UNL     1       0.392   3.826   1.951  0.00  0.00    -0.024 A 
ATOM     25  C   UNL     1      -0.794   3.158   1.708  0.00  0.00    +0.009 A 
ATOM     26  C   UNL     1      -0.773   1.827   1.336  0.00  0.00    -0.041 A 
ATOM     27  C   UNL     1       0.433   1.167   1.197  0.00  0.00    +0.009 A 
ATOM     28  C   UNL     1       1.619   1.835   1.440  0.00  0.00    -0.024 A 
ATOM     29  C   UNL     1       1.598   3.164   1.817  0.00  0.00    +0.111 A 
ATOM     30  C   UNL     1       2.934   1.114   1.293  0.00  0.00    +0.046 C 
BRANCH  26  31
ATOM     31  C   UNL     1      -2.066   1.097   1.077  0.00  0.00    -0.013 C 
ATOM     32  C   UNL     1      -2.822   1.786  -0.060  0.00  0.00    +0.015 C 
ATOM     33  C   UNL     1      -1.764  -0.351   0.685  0.00  0.00    +0.015 C 
ATOM     34  C   UNL     1      -2.924   1.113   2.344  0.00  0.00    +0.015 C 
ENDBRANCH  26  31
ENDBRANCH  20  29
ENDBRANCH   1  20
TORSDOF 4
