REMARK  Name = ZINC21717326
REMARK  9 active torsions:
REMARK  status: ('A' for Active; 'I' for Inactive)
REMARK    1  A    between atoms: C_1  and  C_2
REMARK    2  A    between atoms: N_5  and  C_7
REMARK    3  A    between atoms: C_10  and  C_13
REMARK    4  A    between atoms: N_15  and  C_16
REMARK    5  A    between atoms: C_16  and  C_17
REMARK    6  A    between atoms: C_17  and  C_18
REMARK    7  A    between atoms: C_18  and  N_19
REMARK    8  A    between atoms: C_26  and  C_30
REMARK    9  A    between atoms: C_26  and  C_31
REMARK                            x       y       z     vdW  Elec       q    Type
REMARK                         _______ _______ _______ _____ _____    ______ ____
ROOT
ATOM      1  C   UNL     1      -0.931   2.627   4.636  0.00  0.00    +0.066 A 
ATOM      2  C   UNL     1      -1.604   3.720   5.172  0.00  0.00    +0.028 A 
ATOM      3  C   UNL     1      -1.399   4.081   6.485  0.00  0.00    +0.015 A 
ATOM      4  C   UNL     1      -0.505   3.354   7.276  0.00  0.00    +0.037 A 
ATOM      5  C   UNL     1       0.173   2.261   6.733  0.00  0.00    +0.015 A 
ATOM      6  C   UNL     1      -0.041   1.902   5.421  0.00  0.00    +0.028 A 
ENDROOT
BRANCH   1  11
ATOM      7  C   UNL     1      -1.630   3.015  -0.263  0.00  0.00    +0.068 C 
ATOM      8  C   UNL     1      -1.455   2.452   1.124  0.00  0.00    +0.071 A 
ATOM      9  C   UNL     1      -1.478   1.096   1.475  0.00  0.00    +0.061 A 
ATOM     10  C   UNL     1      -1.277   1.012   2.850  0.00  0.00    +0.056 A 
ATOM     11  N   UNL     1      -1.145   2.260   3.304  0.00  0.00    -0.236 N 
ATOM     12  N   UNL     1      -1.260   3.142   2.219  0.00  0.00    -0.171 NA
ATOM     13  C   UNL     1      -1.240  -0.295   3.598  0.00  0.00    +0.063 C 
ATOM     14  C   UNL     1      -1.927  -1.376   2.759  0.00  0.00    -0.022 C 
ATOM     15  C   UNL     1      -1.335  -1.423   1.347  0.00  0.00    +0.086 C 
ATOM     16  C   UNL     1      -1.649  -0.109   0.648  0.00  0.00    +0.167 C 
ATOM     17  O   UNL     1      -2.019  -0.058  -0.506  0.00  0.00    -0.292 OA
ATOM     18  C   UNL     1      -1.734  -2.736   3.433  0.00  0.00    +0.011 C 
ATOM     19  C   UNL     1      -3.423  -1.068   2.667  0.00  0.00    +0.011 C 
ENDBRANCH   1  11
BRANCH   4  20
ATOM     20  C   UNL     1      -0.279   3.742   8.683  0.00  0.00    +0.244 C 
ATOM     21  O   UNL     1       0.499   3.109   9.370  0.00  0.00    -0.270 OA
ATOM     22  N   UNL     1      -0.934   4.798   9.205  0.00  0.00    -0.311 N 
ATOM     23  H   UNL     1      -1.638   5.371   8.583  0.00  0.00    +0.149 HD
BRANCH  22  24
ATOM     24  C   UNL     1      -0.710   5.182  10.601  0.00  0.00    +0.106 C 
BRANCH  24  25
ATOM     25  C   UNL     1      -1.569   6.402  10.939  0.00  0.00    +0.038 C 
BRANCH  25  26
ATOM     26  C   UNL     1      -1.334   6.803  12.396  0.00  0.00    +0.109 C 
BRANCH  26  27
ATOM     27  N   UNL     1      -2.157   7.971  12.720  0.00  0.00    -0.301 N 
ATOM     28  C   UNL     1      -1.718   9.363  12.561  0.00  0.00    +0.108 C 
ATOM     29  C   UNL     1      -3.014  10.207  12.593  0.00  0.00    +0.028 C 
ATOM     30  C   UNL     1      -3.959   9.300  13.413  0.00  0.00    +0.097 C 
ATOM     31  C   UNL     1      -3.409   7.906  13.205  0.00  0.00    +0.216 C 
ATOM     32  O   UNL     1      -4.010   6.880  13.442  0.00  0.00    -0.276 OA
ENDBRANCH  26  27
ENDBRANCH  25  26
ENDBRANCH  24  25
ENDBRANCH  22  24
ENDBRANCH   4  20
TORSDOF 6
