REMARK  Name = ZINC32741341
REMARK  10 active torsions:
REMARK  status: ('A' for Active; 'I' for Inactive)
REMARK    1  A    between atoms: C_1  and  C_2
REMARK    2  A    between atoms: C_3  and  C_14
REMARK    3  A    between atoms: C_4  and  C_13
REMARK    4  A    between atoms: N_5  and  C_7
REMARK    5  A    between atoms: C_14  and  N_15
REMARK    6  A    between atoms: C_16  and  C_18
REMARK    7  A    between atoms: C_18  and  N_19
REMARK    8  A    between atoms: C_24  and  C_31
REMARK    9  A    between atoms: C_27  and  C_29
REMARK   10  A    between atoms: C_27  and  C_30
REMARK                            x       y       z     vdW  Elec       q    Type
REMARK                         _______ _______ _______ _____ _____    ______ ____
ROOT
ATOM      1  N   UNL     1      -2.631  -1.400  -2.157  0.00  0.00    -0.310 N 
ATOM      2  C   UNL     1      -3.598  -2.327  -2.301  0.00  0.00    +0.231 C 
ATOM      3  O   UNL     1      -4.085  -2.853  -1.322  0.00  0.00    -0.274 OA
ATOM      4  H   UNL     1      -2.190  -0.923  -3.045  0.00  0.00    +0.149 HD
ENDROOT
BRANCH   1   5
ATOM      5  C   UNL     1      -2.166  -1.027  -0.818  0.00  0.00    +0.143 C 
BRANCH   5   8
ATOM      6  C   UNL     1       0.945  -1.575  -1.066  0.00  0.00    +0.068 C 
ATOM      7  C   UNL     1       0.285  -0.220  -1.043  0.00  0.00    +0.065 A 
ATOM      8  C   UNL     1      -1.089   0.020  -0.934  0.00  0.00    +0.013 A 
ATOM      9  C   UNL     1      -1.280   1.360  -0.950  0.00  0.00    +0.047 A 
ATOM     10  N   UNL     1      -0.067   1.947  -1.065  0.00  0.00    -0.236 N 
ATOM     11  N   UNL     1       0.898   0.933  -1.121  0.00  0.00    -0.171 NA
ATOM     12  C   UNL     1      -2.607   2.070  -0.862  0.00  0.00    +0.066 C 
BRANCH  10  13
ATOM     13  C   UNL     1       0.180   3.326  -1.118  0.00  0.00    +0.066 A 
ATOM     14  C   UNL     1       1.113   3.831  -2.014  0.00  0.00    +0.028 A 
ATOM     15  C   UNL     1       1.350   5.190  -2.068  0.00  0.00    +0.002 A 
ATOM     16  C   UNL     1       0.669   6.047  -1.224  0.00  0.00    +0.000 A 
ATOM     17  C   UNL     1      -0.257   5.546  -0.327  0.00  0.00    +0.002 A 
ATOM     18  C   UNL     1      -0.503   4.188  -0.272  0.00  0.00    +0.028 A 
ENDBRANCH  10  13
ENDBRANCH   5   8
ENDBRANCH   1   5
BRANCH   2  19
ATOM     19  C   UNL     1      -4.076  -2.710  -3.678  0.00  0.00    +0.213 C 
BRANCH  19  20
ATOM     20  N   UNL     1      -5.123  -3.728  -3.566  0.00  0.00    -0.215 N 
ATOM     21  C   UNL     1      -4.891  -5.057  -3.558  0.00  0.00    +0.247 C 
ATOM     22  O   UNL     1      -3.817  -5.615  -3.640  0.00  0.00    -0.273 OA
ATOM     23  C   UNL     1      -6.250  -5.704  -3.425  0.00  0.00    +0.113 C 
ATOM     24  C   UNL     1      -6.332  -6.520  -2.139  0.00  0.00    +0.038 C 
ATOM     25  C   UNL     1      -7.728  -7.136  -2.013  0.00  0.00    -0.011 C 
ATOM     26  C   UNL     1      -8.000  -8.031  -3.224  0.00  0.00    +0.009 C 
ATOM     27  C   UNL     1      -7.936  -7.195  -4.504  0.00  0.00    -0.032 C 
ATOM     28  C   UNL     1      -6.541  -6.579  -4.639  0.00  0.00    +0.041 C 
ATOM     29  C   UNL     1      -8.982  -6.080  -4.439  0.00  0.00    +0.011 C 
ATOM     30  C   UNL     1      -8.218  -8.090  -5.713  0.00  0.00    +0.011 C 
ATOM     31  C   UNL     1      -7.803  -7.973  -0.734  0.00  0.00    +0.007 C 
ATOM     32  N   UNL     1      -7.181  -4.570  -3.374  0.00  0.00    -0.285 N 
ATOM     33  C   UNL     1      -6.430  -3.456  -3.463  0.00  0.00    +0.310 C 
ATOM     34  O   UNL     1      -6.886  -2.330  -3.451  0.00  0.00    -0.252 OA
ATOM     35  H   UNL     1      -8.262  -4.750  -3.280  0.00  0.00    +0.151 HD
ENDBRANCH  19  20
ENDBRANCH   2  19
TORSDOF 5
