REMARK  Name = ZINC39468083
REMARK  4 active torsions:
REMARK  status: ('A' for Active; 'I' for Inactive)
REMARK    1  A    between atoms: C_1  and  C_2
REMARK    2  A    between atoms: C_3  and  C_12
REMARK    3  A    between atoms: C_14  and  C_17
REMARK    4  A    between atoms: C_23  and  C_26
REMARK                            x       y       z     vdW  Elec       q    Type
REMARK                         _______ _______ _______ _____ _____    ______ ____
ROOT
ATOM      1  C   UNL     1      -0.013   0.052  -2.497  0.00  0.00    +0.204 A 
ATOM      2  N   UNL     1      -0.028   1.390  -2.631  0.00  0.00    -0.189 NA
ATOM      3  C   UNL     1      -0.041   1.712  -3.893  0.00  0.00    +0.258 A 
ATOM      4  O   UNL     1      -0.034   0.587  -4.618  0.00  0.00    -0.335 OA
ATOM      5  N   UNL     1      -0.011  -0.488  -3.690  0.00  0.00    -0.056 NA
ENDROOT
BRANCH   1   8
ATOM      6  C   UNL     1      -0.018   1.503   0.010  0.00  0.00    +0.066 C 
ATOM      7  C   UNL     1       0.002  -0.004   0.002  0.00  0.00    +0.049 A 
ATOM      8  C   UNL     1       0.006  -0.689  -1.211  0.00  0.00    +0.047 A 
ATOM      9  C   UNL     1       0.026  -2.087  -1.196  0.00  0.00    -0.034 A 
ATOM     10  C   UNL     1       0.044  -2.735   0.020  0.00  0.00    -0.043 A 
ATOM     11  C   UNL     1       0.037  -1.982   1.184  0.00  0.00    +0.113 A 
ATOM     12  N   UNL     1       0.022  -0.664   1.142  0.00  0.00    -0.259 NA
ATOM     13  C   UNL     1       0.074  -4.236   0.115  0.00  0.00    -0.045 C 
ATOM     14  N   UNL     1      -0.359  -4.840  -1.149  0.00  0.00    +0.382 N 
ATOM     15  C   UNL     1       0.453  -4.293  -2.247  0.00  0.00    -0.077 C 
ATOM     16  C   UNL     1       0.028  -2.845  -2.496  0.00  0.00    +0.017 C 
ATOM     17  H   UNL     1      -0.236  -5.840  -1.105  0.00  0.00    -0.085 HD
ATOM     18  H   UNL     1      -1.331  -4.625  -1.310  0.00  0.00    -0.085 HD
ENDBRANCH   1   8
BRANCH   3  19
ATOM     19  C   UNL     1      -0.061   3.115  -4.444  0.00  0.00    +0.244 C 
ATOM     20  C   UNL     1       1.274   3.472  -5.045  0.00  0.00    -0.011 C 
ATOM     21  C   UNL     1       1.018   3.706  -6.337  0.00  0.00    +0.065 C 
ATOM     22  C   UNL     1       2.088   4.101  -7.330  0.00  0.00    +0.057 C 
ATOM     23  C   UNL     1       3.457   3.758  -6.733  0.00  0.00    +0.010 C 
ATOM     24  C   UNL     1       3.563   4.334  -5.318  0.00  0.00    -0.010 C 
ATOM     25  C   UNL     1       2.619   3.561  -4.386  0.00  0.00    +0.038 C 
ATOM     26  C   UNL     1       5.002   4.198  -4.817  0.00  0.00    +0.008 C 
ATOM     27  N   UNL     1      -0.300   3.536  -6.585  0.00  0.00    -0.158 NA
ATOM     28  N   UNL     1      -0.976   3.211  -5.598  0.00  0.00    -0.170 NA
ENDBRANCH   3  19
TORSDOF 2
