REMARK  Name = ZINC04133377
REMARK  7 active torsions:
REMARK  status: ('A' for Active; 'I' for Inactive)
REMARK    1  A    between atoms: C_12  and  C_13
REMARK    2  A    between atoms: C_13  and  N_14
REMARK    3  A    between atoms: N_14  and  C_15
REMARK    4  A    between atoms: C_15  and  C_16
REMARK    5  A    between atoms: C_16  and  C_17
REMARK    6  A    between atoms: C_17  and  O_18
REMARK    7  A    between atoms: N_21  and  C_22
REMARK                            x       y       z     vdW  Elec       q    Type
REMARK                         _______ _______ _______ _____ _____    ______ ____
ROOT
ATOM      1  C   UNL     1      -3.624   1.649   0.028  0.00  0.00    +0.149 C 
ENDROOT
BRANCH   1  13
ATOM      2  C   UNL     1      -4.925   1.039  -1.993  0.00  0.00    +0.020 A 
ATOM      3  C   UNL     1      -5.338   1.312  -3.369  0.00  0.00    +0.003 A 
ATOM      4  C   UNL     1      -6.219   0.457  -4.042  0.00  0.00    +0.059 A 
ATOM      5  C   UNL     1      -6.589   0.739  -5.341  0.00  0.00    +0.163 A 
ATOM      6  C   UNL     1      -6.090   1.875  -5.984  0.00  0.00    +0.164 A 
ATOM      7  C   UNL     1      -5.220   2.727  -5.325  0.00  0.00    +0.075 A 
ATOM      8  C   UNL     1      -4.836   2.457  -4.018  0.00  0.00    +0.053 A 
ATOM      9  N   UNL     1      -3.969   3.295  -3.347  0.00  0.00    -0.322 N 
ATOM     10  H   UNL     1      -3.610   4.105  -3.810  0.00  0.00    +0.169 HD
ATOM     11  C   UNL     1      -3.599   3.037  -2.081  0.00  0.00    +0.254 A 
ATOM     12  O   UNL     1      -2.834   3.801  -1.518  0.00  0.00    -0.268 OA
ATOM     13  C   UNL     1      -4.069   1.902  -1.389  0.00  0.00    +0.035 A 
ATOM     14  O   UNL     1      -6.452   2.162  -7.263  0.00  0.00    -0.485 OA
ATOM     15  C   UNL     1      -7.027   1.095  -8.025  0.00  0.00    +0.270 C 
ATOM     16  C   UNL     1      -8.086   0.401  -7.158  0.00  0.00    +0.270 C 
ATOM     17  O   UNL     1      -7.442  -0.106  -5.984  0.00  0.00    -0.485 OA
ENDBRANCH   1  13
BRANCH   1  18
ATOM     18  N   UNL     1      -2.345   0.934   0.018  0.00  0.00    -0.281 N 
ATOM     19  C   UNL     1      -1.187   1.624   0.017  0.00  0.00    +0.303 C 
ATOM     20  O   UNL     1      -1.204   2.840   0.023  0.00  0.00    -0.253 OA
ATOM     21  N   UNL     1      -0.011   0.966   0.007  0.00  0.00    -0.296 N 
ATOM     22  H   UNL     1       0.002  -0.004   0.002  0.00  0.00    +0.151 HD
BRANCH  21  23
ATOM     23  C   UNL     1       1.248   1.716  -0.001  0.00  0.00    +0.074 C 
ATOM     24  C   UNL     1       1.608   2.092  -1.439  0.00  0.00    +0.022 C 
ATOM     25  C   UNL     1       2.922   2.875  -1.448  0.00  0.00    +0.002 C 
ATOM     26  C   UNL     1       4.035   2.010  -0.853  0.00  0.00    +0.000 C 
ATOM     27  C   UNL     1       3.675   1.633   0.585  0.00  0.00    +0.002 C 
ATOM     28  C   UNL     1       2.361   0.850   0.594  0.00  0.00    +0.022 C 
ENDBRANCH  21  23
BRANCH  18  29
ATOM     29  C   UNL     1      -2.325  -0.531   0.010  0.00  0.00    +0.112 C 
BRANCH  29  30
ATOM     30  C   UNL     1      -2.312  -1.048   1.450  0.00  0.00    +0.047 C 
BRANCH  30  31
ATOM     31  C   UNL     1      -2.291  -2.578   1.441  0.00  0.00    +0.157 C 
BRANCH  31  32
ATOM     32  O   UNL     1      -2.278  -3.062   2.786  0.00  0.00    -0.395 OA
ATOM     33  H   UNL     1      -2.265  -4.026   2.857  0.00  0.00    +0.209 HD
ENDBRANCH  31  32
ENDBRANCH  30  31
ENDBRANCH  29  30
ENDBRANCH  18  29
ENDBRANCH   1  18
TORSDOF 7
