REMARK  Name = ZINC20919652
REMARK  6 active torsions:
REMARK  status: ('A' for Active; 'I' for Inactive)
REMARK    1  A    between atoms: C_4  and  C_7
REMARK    2  A    between atoms: C_10  and  C_13
REMARK    3  A    between atoms: C_13  and  N_14
REMARK    4  A    between atoms: C_15  and  C_17
REMARK    5  A    between atoms: C_17  and  N_18
REMARK    6  A    between atoms: C_27  and  C_30
REMARK                            x       y       z     vdW  Elec       q    Type
REMARK                         _______ _______ _______ _____ _____    ______ ____
ROOT
ATOM      1  C   UNL     1       4.519  -0.037  -3.014  0.00  0.00    +0.019 C 
ENDROOT
BRANCH   1   2
ATOM      2  N   UNL     1       4.231   0.233  -1.599  0.00  0.00    +0.391 N 
ATOM      3  C   UNL     1       5.391   0.835  -0.932  0.00  0.00    -0.038 C 
ATOM      4  C   UNL     1       5.370   0.443   0.533  0.00  0.00    -0.022 A 
ATOM      5  C   UNL     1       6.348  -0.387   1.042  0.00  0.00    +0.005 A 
ATOM      6  C   UNL     1       6.348  -0.698   2.391  0.00  0.00    +0.000 A 
ATOM      7  C   UNL     1       5.372  -0.179   3.222  0.00  0.00    +0.004 A 
ATOM      8  C   UNL     1       4.387   0.644   2.709  0.00  0.00    +0.046 A 
ATOM      9  C   UNL     1       4.382   0.948   1.355  0.00  0.00    +0.123 A 
ATOM     10  O   UNL     1       3.404   1.738   0.835  0.00  0.00    -0.486 OA
ATOM     11  C   UNL     1       2.483   1.078  -0.042  0.00  0.00    +0.187 C 
ATOM     12  C   UNL     1       3.023   1.040  -1.456  0.00  0.00    -0.028 C 
ATOM     13  H   UNL     1       4.031  -0.722  -1.092  0.00  0.00    -0.080 HD
BRANCH  11  14
ATOM     14  C   UNL     1       1.170   1.817  -0.032  0.00  0.00    -0.009 A 
ATOM     15  C   UNL     1      -0.020   1.113  -0.026  0.00  0.00    +0.007 A 
ATOM     16  C   UNL     1      -1.224   1.792  -0.022  0.00  0.00    +0.000 A 
ATOM     17  C   UNL     1      -1.239   3.174  -0.013  0.00  0.00    +0.000 A 
ATOM     18  C   UNL     1      -0.049   3.878  -0.019  0.00  0.00    +0.000 A 
ATOM     19  C   UNL     1       1.156   3.200  -0.028  0.00  0.00    +0.007 A 
ENDBRANCH  11  14
ENDBRANCH   1   2
BRANCH   1  21
ATOM     20  N   UNL     1       6.009  -1.512  -4.326  0.00  0.00    -0.310 N 
ATOM     21  C   UNL     1       5.582  -1.100  -3.116  0.00  0.00    +0.197 C 
ATOM     22  O   UNL     1       6.054  -1.585  -2.110  0.00  0.00    -0.278 OA
ATOM     23  H   UNL     1       5.582  -1.073  -5.239  0.00  0.00    +0.149 HD
BRANCH  20  24
ATOM     24  C   UNL     1       7.043  -2.546  -4.426  0.00  0.00    +0.182 C 
BRANCH  24  28
ATOM     25  C   UNL     1       8.213  -2.802  -7.870  0.00  0.00    +0.156 A 
ATOM     26  N   UNL     1       8.330  -2.259  -6.619  0.00  0.00    -0.210 NA
ATOM     27  H   UNL     1       6.770  -4.270  -8.625  0.00  0.00    +0.191 HD
ATOM     28  C   UNL     1       7.338  -2.823  -5.877  0.00  0.00    +0.168 A 
ATOM     29  N   UNL     1       6.689  -3.649  -6.654  0.00  0.00    -0.156 NA
ATOM     30  N   UNL     1       7.198  -3.636  -7.834  0.00  0.00    -0.258 N 
BRANCH  25  34
ATOM     31  C   UNL     1      10.665  -1.949 -11.233  0.00  0.00    +0.000 A 
ATOM     32  C   UNL     1       9.628  -2.857 -11.350  0.00  0.00    +0.001 A 
ATOM     33  C   UNL     1       8.828  -3.138 -10.261  0.00  0.00    +0.011 A 
ATOM     34  C   UNL     1       9.067  -2.505  -9.041  0.00  0.00    +0.019 A 
ATOM     35  C   UNL     1      10.111  -1.586  -8.932  0.00  0.00    +0.011 A 
ATOM     36  C   UNL     1      10.907  -1.317 -10.027  0.00  0.00    +0.001 A 
ENDBRANCH  25  34
ENDBRANCH  24  28
ENDBRANCH  20  24
ENDBRANCH   1  21
TORSDOF 6
