REMARK  Name = ZINC09542253
REMARK  4 active torsions:
REMARK  status: ('A' for Active; 'I' for Inactive)
REMARK    1  A    between atoms: C_3  and  C_8
REMARK    2  A    between atoms: C_11  and  C_25
REMARK    3  A    between atoms: C_14  and  C_16
REMARK    4  A    between atoms: C_30  and  O_31
REMARK                            x       y       z     vdW  Elec       q    Type
REMARK                         _______ _______ _______ _____ _____    ______ ____
ROOT
ATOM      1  C   UNL     1       3.672   2.186  -0.021  0.00  0.00    +0.081 C 
ATOM      2  N   UNL     1       4.699   1.400  -0.714  0.00  0.00    +0.401 N 
ATOM      3  C   UNL     1       5.909   2.225  -0.866  0.00  0.00    -0.028 C 
ATOM      4  C   UNL     1       5.603   3.347  -1.863  0.00  0.00    +0.044 C 
ATOM      5  C   UNL     1       4.298   3.998  -1.497  0.00  0.00    +0.040 C 
ATOM      6  N   UNL     1       3.461   3.465  -0.687  0.00  0.00    -0.299 NA
ATOM      7  H   UNL     1       4.917   0.577  -0.173  0.00  0.00    -0.081 HD
ATOM      8  H   UNL     1       4.359   1.128  -1.624  0.00  0.00    -0.081 HD
ENDROOT
BRANCH   5   9
ATOM      9  C   UNL     1       3.967   5.304  -2.096  0.00  0.00    -0.001 A 
ATOM     10  C   UNL     1       4.855   5.910  -2.989  0.00  0.00    +0.013 A 
ATOM     11  C   UNL     1       4.544   7.130  -3.549  0.00  0.00    +0.050 A 
ATOM     12  C   UNL     1       3.350   7.762  -3.228  0.00  0.00    +0.166 A 
ATOM     13  C   UNL     1       2.459   7.162  -2.337  0.00  0.00    +0.167 A 
ATOM     14  C   UNL     1       2.763   5.936  -1.778  0.00  0.00    +0.059 A 
ATOM     15  O   UNL     1       1.373   7.978  -2.192  0.00  0.00    -0.453 OA
ATOM     16  C   UNL     1       1.792   9.265  -2.682  0.00  0.00    +0.466 C 
ATOM     17  O   UNL     1       2.820   8.950  -3.639  0.00  0.00    -0.453 OA
ENDBRANCH   5   9
BRANCH   1  20
ATOM     18  C   UNL     1      -0.017   1.377   0.010  0.00  0.00    +0.003 A 
ATOM     19  C   UNL     1       1.171   2.086   0.002  0.00  0.00    +0.004 A 
ATOM     20  C   UNL     1       2.378   1.413  -0.013  0.00  0.00    -0.038 A 
ATOM     21  C   UNL     1       2.399   0.030  -0.021  0.00  0.00    +0.042 A 
ATOM     22  C   UNL     1       1.211  -0.679  -0.013  0.00  0.00    +0.124 A 
ATOM     23  C   UNL     1       0.002  -0.004   0.002  0.00  0.00    +0.038 A 
ATOM     24  F   UNL     1       1.230  -2.030  -0.022  0.00  0.00    -0.205 F 
ENDBRANCH   1  20
BRANCH   3  25
ATOM     25  C   UNL     1       7.040   1.376  -1.386  0.00  0.00    -0.018 A 
ATOM     26  C   UNL     1       6.769   0.237  -2.119  0.00  0.00    +0.020 A 
ATOM     27  C   UNL     1       7.808  -0.543  -2.596  0.00  0.00    +0.018 A 
ATOM     28  C   UNL     1       9.119  -0.183  -2.341  0.00  0.00    +0.019 A 
ATOM     29  C   UNL     1       9.394   0.956  -1.609  0.00  0.00    +0.047 A 
ATOM     30  C   UNL     1       8.354   1.742  -1.134  0.00  0.00    +0.119 A 
ATOM     31 BR   UNL     1       7.434  -2.102  -3.599  0.00  0.00    -0.050 Br
BRANCH  30  32
ATOM     32  O   UNL     1       8.623   2.865  -0.418  0.00  0.00    -0.507 OA
ATOM     33  H   UNL     1       8.689   2.717   0.536  0.00  0.00    +0.292 HD
ENDBRANCH  30  32
ENDBRANCH   3  25
TORSDOF 4
