REMARK  Name = ZINC58208892
REMARK  6 active torsions:
REMARK  status: ('A' for Active; 'I' for Inactive)
REMARK    1  A    between atoms: C_1  and  C_2
REMARK    2  A    between atoms: C_4  and  N_17
REMARK    3  A    between atoms: C_6  and  C_8
REMARK    4  A    between atoms: C_12  and  N_14
REMARK    5  A    between atoms: N_17  and  C_18
REMARK    6  A    between atoms: C_18  and  C_19
REMARK                            x       y       z     vdW  Elec       q    Type
REMARK                         _______ _______ _______ _____ _____    ______ ____
ROOT
ATOM      1  C   UNL     1      -0.018   1.503   0.010  0.00  0.00    +0.066 C 
ATOM      2  C   UNL     1       0.002  -0.004   0.002  0.00  0.00    +0.044 A 
ATOM      3  C   UNL     1       0.006  -0.696  -1.194  0.00  0.00    +0.066 A 
ATOM      4  C   UNL     1       0.026  -2.092  -1.157  0.00  0.00    +0.123 A 
ATOM      5  N   UNL     1       0.040  -2.705   0.021  0.00  0.00    -0.213 NA
ATOM      6  C   UNL     1       0.035  -2.005   1.147  0.00  0.00    +0.162 A 
ATOM      7  N   UNL     1       0.022  -0.679   1.141  0.00  0.00    -0.232 NA
ENDROOT
BRANCH   6   8
ATOM      8  C   UNL     1       0.051  -2.722   2.445  0.00  0.00    +0.021 A 
ATOM      9  C   UNL     1       0.076  -4.115   2.474  0.00  0.00    +0.012 A 
ATOM     10  C   UNL     1       0.091  -4.777   3.685  0.00  0.00    +0.003 A 
ATOM     11  C   UNL     1       0.081  -4.061   4.868  0.00  0.00    +0.033 A 
ATOM     12  C   UNL     1       0.055  -2.678   4.845  0.00  0.00    +0.127 A 
ATOM     13  C   UNL     1       0.047  -2.005   3.640  0.00  0.00    +0.044 A 
BRANCH  12  14
ATOM     14  N   UNL     1       0.044  -1.918   6.115  0.00  0.00    +0.056 N 
ATOM     15  O   UNL     1       0.056  -2.506   7.172  0.00  0.00    -0.126 OA
ATOM     16  O   UNL     1       0.022  -0.709   6.097  0.00  0.00    -0.126 OA
ENDBRANCH  12  14
ENDBRANCH   6   8
BRANCH   4  17
ATOM     17  N   UNL     1       0.030  -2.827  -2.332  0.00  0.00    -0.329 N 
ATOM     18  H   UNL     1       0.043  -3.796  -2.297  0.00  0.00    +0.147 HD
BRANCH  17  19
ATOM     19  C   UNL     1       0.013  -2.140  -3.625  0.00  0.00    +0.108 C 
BRANCH  19  20
ATOM     20  C   UNL     1       0.022  -3.175  -4.753  0.00  0.00    +0.034 C 
ATOM     21  C   UNL     1      -0.051  -2.481  -6.140  0.00  0.00    +0.035 C 
ATOM     22  C   UNL     1       0.673  -3.524  -7.029  0.00  0.00    +0.160 C 
ATOM     23  O   UNL     1       1.722  -4.056  -6.204  0.00  0.00    -0.379 OA
ATOM     24  C   UNL     1       1.380  -3.905  -4.817  0.00  0.00    +0.165 C 
ENDBRANCH  19  20
ENDBRANCH  17  19
ENDBRANCH   4  17
TORSDOF 5
