REMARK  Name = ZINC36502933
REMARK  15 active torsions:
REMARK  status: ('A' for Active; 'I' for Inactive)
REMARK    1  A    between atoms: C_1  and  C_2
REMARK    2  A    between atoms: C_5  and  S_8
REMARK    3  A    between atoms: S_8  and  C_11
REMARK    4  A    between atoms: C_11  and  N_12
REMARK    5  A    between atoms: C_13  and  C_15
REMARK    6  A    between atoms: C_15  and  C_17
REMARK    7  A    between atoms: C_15  and  N_26
REMARK    8  A    between atoms: C_20  and  O_25
REMARK    9  A    between atoms: C_21  and  O_23
REMARK   10  A    between atoms: O_23  and  C_24
REMARK   11  A    between atoms: N_26  and  C_27
REMARK   12  A    between atoms: C_27  and  C_28
REMARK   13  A    between atoms: C_33  and  C_35
REMARK   14  A    between atoms: C_36  and  C_37
REMARK   15  A    between atoms: C_36  and  C_38
REMARK                            x       y       z     vdW  Elec       q    Type
REMARK                         _______ _______ _______ _____ _____    ______ ____
ROOT
ATOM      1  C   UNL     1       0.799  -5.304   6.084  0.00  0.00    +0.193 C 
ENDROOT
BRANCH   1   2
ATOM      2  C   UNL     1       1.588  -4.180   5.463  0.00  0.00    -0.015 A 
ATOM      3  C   UNL     1       2.427  -4.435   4.394  0.00  0.00    +0.010 A 
ATOM      4  C   UNL     1       3.153  -3.407   3.821  0.00  0.00    +0.049 A 
ATOM      5  C   UNL     1       3.040  -2.118   4.318  0.00  0.00    +0.158 A 
ATOM      6  C   UNL     1       2.195  -1.862   5.394  0.00  0.00    +0.162 A 
ATOM      7  C   UNL     1       1.467  -2.896   5.960  0.00  0.00    +0.055 A 
BRANCH   6   8
ATOM      8  O   UNL     1       2.080  -0.599   5.884  0.00  0.00    -0.491 OA
ATOM      9  C   UNL     1       1.194  -0.410   6.990  0.00  0.00    +0.277 C 
ENDBRANCH   6   8
BRANCH   5  10
ATOM     10  O   UNL     1       3.753  -1.106   3.756  0.00  0.00    -0.503 OA
ATOM     11  H   UNL     1       3.295  -0.656   3.033  0.00  0.00    +0.292 HD
ENDBRANCH   5  10
ENDBRANCH   1   2
BRANCH   1  13
ATOM     12  N   UNL     1      -1.619  -5.373   5.569  0.00  0.00    -0.294 N 
ATOM     13  C   UNL     1      -0.359  -5.660   5.188  0.00  0.00    +0.239 C 
ATOM     14  O   UNL     1      -0.156  -6.205   4.124  0.00  0.00    -0.273 OA
ATOM     15  H   UNL     1      -1.781  -4.936   6.420  0.00  0.00    +0.150 HD
BRANCH  12  16
ATOM     16  C   UNL     1      -2.745  -5.719   4.698  0.00  0.00    +0.278 C 
BRANCH  16  17
ATOM     17  S   UNL     1      -3.422  -7.326   5.195  0.00  0.00    +0.013 S 
ATOM     18  O   UNL     1      -2.372  -8.267   5.372  0.00  0.00    -0.168 OA
ATOM     19  O   UNL     1      -4.555  -7.647   4.399  0.00  0.00    -0.168 OA
BRANCH  17  24
ATOM     20  C   UNL     1      -5.637  -6.432  10.736  0.00  0.00    +0.044 C 
ATOM     21  C   UNL     1      -5.084  -6.655   9.352  0.00  0.00    -0.050 A 
ATOM     22  C   UNL     1      -5.888  -6.456   8.246  0.00  0.00    +0.005 A 
ATOM     23  C   UNL     1      -5.381  -6.661   6.976  0.00  0.00    +0.027 A 
ATOM     24  C   UNL     1      -4.069  -7.064   6.813  0.00  0.00    +0.090 A 
ATOM     25  C   UNL     1      -3.264  -7.262   7.919  0.00  0.00    +0.027 A 
ATOM     26  C   UNL     1      -3.770  -7.053   9.189  0.00  0.00    +0.005 A 
ENDBRANCH  17  24
ENDBRANCH  16  17
ENDBRANCH  12  16
ENDBRANCH   1  13
BRANCH   1  27
ATOM     27  N   UNL     1       1.665  -6.474   6.252  0.00  0.00    -0.275 N 
ATOM     28  C   UNL     1       2.788  -6.381   6.991  0.00  0.00    +0.241 C 
ATOM     29  O   UNL     1       3.083  -5.326   7.519  0.00  0.00    -0.271 OA
BRANCH  28  30
ATOM     30  C   UNL     1       3.657  -7.556   7.159  0.00  0.00    +0.066 C 
ATOM     31  C   UNL     1       4.739  -7.478   7.929  0.00  0.00    -0.071 C 
ATOM     32  C   UNL     1       5.161  -6.151   8.504  0.00  0.00    +0.039 C 
ATOM     33  C   UNL     1       5.543  -8.718   8.226  0.00  0.00    +0.039 C 
ENDBRANCH  28  30
BRANCH  27  34
ATOM     34  C   UNL     1       1.310  -7.745   5.615  0.00  0.00    +0.183 C 
BRANCH  34  35
ATOM     35  C   UNL     1       2.043  -7.872   4.304  0.00  0.00    +0.122 A 
ATOM     36  C   UNL     1       3.254  -8.432   4.131  0.00  0.00    +0.046 A 
ATOM     37  C   UNL     1       3.556  -8.337   2.753  0.00  0.00    +0.041 A 
ATOM     38  C   UNL     1       2.511  -7.725   2.167  0.00  0.00    +0.195 A 
ATOM     39  O   UNL     1       1.596  -7.450   3.110  0.00  0.00    -0.466 OA
ENDBRANCH  34  35
ENDBRANCH  27  34
ENDBRANCH   1  27
TORSDOF 11
