REMARK  Name = ZINC01184939
REMARK  7 active torsions:
REMARK  status: ('A' for Active; 'I' for Inactive)
REMARK    1  A    between atoms: C_1  and  C_2
REMARK    2  A    between atoms: C_3  and  C_19
REMARK    3  A    between atoms: C_4  and  C_10
REMARK    4  A    between atoms: C_12  and  O_17
REMARK    5  A    between atoms: O_17  and  C_18
REMARK    6  A    between atoms: C_19  and  O_21
REMARK    7  A    between atoms: O_21  and  C_22
REMARK                            x       y       z     vdW  Elec       q    Type
REMARK                         _______ _______ _______ _____ _____    ______ ____
ROOT
ATOM      1  C   UNL     1      -2.282  -0.289  -0.148  0.00  0.00    +0.061 C 
ATOM      2  C   UNL     1      -2.347   1.213  -0.044  0.00  0.00    +0.021 C 
ATOM      3  C   UNL     1      -1.202   1.923   0.043  0.00  0.00    +0.078 C 
ATOM      4  C   UNL     1      -1.313   3.430   0.152  0.00  0.00    +0.145 C 
ATOM      5  N   UNL     1      -2.670   4.001   0.141  0.00  0.00    -0.288 N 
ATOM      6  C   UNL     1      -3.719   3.161   0.049  0.00  0.00    +0.304 C 
ATOM      7  O   UNL     1      -4.844   3.622   0.045  0.00  0.00    -0.252 OA
ATOM      8  N   UNL     1      -3.563   1.834  -0.040  0.00  0.00    -0.273 N 
ATOM      9  H   UNL     1      -2.806   4.960   0.204  0.00  0.00    +0.151 HD
ATOM     10  H   UNL     1      -4.359   1.283  -0.105  0.00  0.00    +0.156 HD
ENDROOT
BRANCH   4  11
ATOM     11  C   UNL     1      -0.635   3.854   1.429  0.00  0.00    -0.005 A 
ATOM     12  C   UNL     1      -1.367   3.969   2.595  0.00  0.00    +0.052 A 
ATOM     13  C   UNL     1      -0.742   4.355   3.771  0.00  0.00    +0.120 A 
ATOM     14  C   UNL     1       0.617   4.636   3.772  0.00  0.00    +0.047 A 
ATOM     15  C   UNL     1       1.345   4.525   2.604  0.00  0.00    +0.019 A 
ATOM     16  C   UNL     1       0.720   4.135   1.432  0.00  0.00    +0.023 A 
ATOM     17 BR   UNL     1       1.719   3.984  -0.166  0.00  0.00    -0.050 Br
BRANCH  13  18
ATOM     18  O   UNL     1      -1.460   4.464   4.920  0.00  0.00    -0.495 OA
ATOM     19  C   UNL     1      -0.751   4.872   6.092  0.00  0.00    +0.277 C 
ENDBRANCH  13  18
ENDBRANCH   4  11
BRANCH   3  20
ATOM     20  C   UNL     1       0.059   1.281   0.039  0.00  0.00    +0.338 C 
ATOM     21  O   UNL     1       0.682   1.157   1.077  0.00  0.00    -0.245 OA
BRANCH  20  22
ATOM     22  O   UNL     1       0.568   0.801  -1.115  0.00  0.00    -0.465 OA
ATOM     23  C   UNL     1       1.843   0.159  -1.044  0.00  0.00    +0.280 C 
ENDBRANCH  20  22
ENDBRANCH   3  20
TORSDOF 4
