REMARK  Name = ZINC16449985
REMARK  8 active torsions:
REMARK  status: ('A' for Active; 'I' for Inactive)
REMARK    1  A    between atoms: C_5  and  C_7
REMARK    2  A    between atoms: C_7  and  O_8
REMARK    3  A    between atoms: O_8  and  C_9
REMARK    4  A    between atoms: C_14  and  C_15
REMARK    5  A    between atoms: C_15  and  N_50
REMARK    6  A    between atoms: C_16  and  C_17
REMARK    7  A    between atoms: C_16  and  N_50
REMARK    8  A    between atoms: C_17  and  C_18
REMARK                            x       y       z     vdW  Elec       q    Type
REMARK                         _______ _______ _______ _____ _____    ______ ____
ROOT
ATOM      1  C   UNL     1      -2.148  -0.559  -1.162  0.00  0.00    +0.122 A 
ATOM      2  C   UNL     1      -3.447  -1.046  -1.151  0.00  0.00    +0.047 A 
ATOM      3  C   UNL     1      -4.009  -1.484   0.032  0.00  0.00    +0.019 A 
ATOM      4  C   UNL     1      -3.275  -1.445   1.204  0.00  0.00    +0.018 A 
ATOM      5  C   UNL     1      -1.977  -0.966   1.194  0.00  0.00    +0.020 A 
ATOM      6  C   UNL     1      -1.412  -0.526   0.013  0.00  0.00    -0.022 A 
ATOM      7 BR   UNL     1      -4.046  -2.046   2.823  0.00  0.00    -0.050 Br
ENDROOT
BRANCH   1   8
ATOM      8  O   UNL     1      -1.596  -0.121  -2.324  0.00  0.00    -0.487 OA
BRANCH   8   9
ATOM      9  C   UNL     1      -2.412  -0.184  -3.495  0.00  0.00    +0.266 C 
BRANCH   9  14
ATOM     10  C   UNL     1       0.371   1.265  -5.594  0.00  0.00    +0.000 A 
ATOM     11  C   UNL     1      -0.216   1.302  -6.845  0.00  0.00    +0.001 A 
ATOM     12  C   UNL     1      -1.514   0.859  -7.013  0.00  0.00    +0.020 A 
ATOM     13  C   UNL     1      -2.226   0.377  -5.928  0.00  0.00    +0.047 A 
ATOM     14  C   UNL     1      -1.638   0.340  -4.677  0.00  0.00    +0.008 A 
ATOM     15  C   UNL     1      -0.341   0.789  -4.509  0.00  0.00    +0.008 A 
ATOM     16 CL   UNL     1      -3.857  -0.180  -6.138  0.00  0.00    -0.083 Cl
ENDBRANCH   9  14
ENDBRANCH   8   9
ENDBRANCH   1   8
BRANCH   6  17
ATOM     17  C   UNL     1       0.002  -0.004   0.002  0.00  0.00    -0.043 C 
BRANCH  17  18
ATOM     18  N   UNL     1      -0.027   1.471   0.010  0.00  0.00    +0.382 N 
ATOM     19  H   UNL     1      -0.512   1.795   0.855  0.00  0.00    -0.085 HD
ATOM     20  H   UNL     1      -0.528   1.804  -0.822  0.00  0.00    -0.085 HD
BRANCH  18  21
ATOM     21  C   UNL     1       1.346   2.010   0.000  0.00  0.00    -0.077 C 
BRANCH  21  22
ATOM     22  C   UNL     1       1.285   3.539   0.009  0.00  0.00    +0.018 C 
BRANCH  22  23
ATOM     23  C   UNL     1       2.684   4.098  -0.002  0.00  0.00    -0.024 A 
ATOM     24  C   UNL     1       3.399   4.481   1.068  0.00  0.00    +0.087 A 
ATOM     25  N   UNL     1       4.627   4.934   0.671  0.00  0.00    -0.360 N 
ATOM     26  H   UNL     1       5.319   5.263   1.266  0.00  0.00    +0.165 HD
ATOM     27  C   UNL     1       4.733   4.859  -0.700  0.00  0.00    +0.047 A 
ATOM     28  C   UNL     1       3.520   4.332  -1.181  0.00  0.00    +0.003 A 
ATOM     29  C   UNL     1       3.339   4.141  -2.552  0.00  0.00    +0.010 A 
ATOM     30  C   UNL     1       4.342   4.469  -3.421  0.00  0.00    +0.001 A 
ATOM     31  C   UNL     1       5.539   4.989  -2.952  0.00  0.00    +0.002 A 
ATOM     32  C   UNL     1       5.740   5.185  -1.603  0.00  0.00    +0.026 A 
ENDBRANCH  22  23
ENDBRANCH  21  22
ENDBRANCH  18  21
ENDBRANCH  17  18
ENDBRANCH   6  17
TORSDOF 8
