REMARK  Name = ZINC41116556
REMARK  7 active torsions:
REMARK  status: ('A' for Active; 'I' for Inactive)
REMARK    1  A    between atoms: C_1  and  C_2
REMARK    2  A    between atoms: C_2  and  C_4
REMARK    3  A    between atoms: C_2  and  N_12
REMARK    4  A    between atoms: N_12  and  C_13
REMARK    5  A    between atoms: C_13  and  C_14
REMARK    6  A    between atoms: C_18  and  O_21
REMARK    7  A    between atoms: C_19  and  O_20
REMARK                            x       y       z     vdW  Elec       q    Type
REMARK                         _______ _______ _______ _____ _____    ______ ____
ROOT
ATOM      1  N   UNL     1      -1.376  -0.512   0.012  0.00  0.00    +0.386 N 
ATOM      2  H   UNL     1      -1.363  -1.518   0.090  0.00  0.00    -0.085 HD
ATOM      3  H   UNL     1      -1.873  -0.121   0.799  0.00  0.00    -0.085 HD
ENDROOT
BRANCH   1   5
ATOM      4  C   UNL     1      -0.019   1.526   0.010  0.00  0.00    -0.009 C 
ATOM      5  C   UNL     1       0.002  -0.004   0.002  0.00  0.00    -0.044 C 
BRANCH   5   6
ATOM      6  C   UNL     1       0.731  -0.503   1.223  0.00  0.00    -0.060 A 
ATOM      7  C   UNL     1       0.080  -0.558   2.442  0.00  0.00    +0.003 A 
ATOM      8  C   UNL     1       0.748  -1.016   3.562  0.00  0.00    +0.021 A 
ATOM      9  C   UNL     1       2.067  -1.419   3.465  0.00  0.00    +0.059 A 
ATOM     10  C   UNL     1       2.719  -1.364   2.244  0.00  0.00    +0.059 A 
ATOM     11  C   UNL     1       2.048  -0.911   1.123  0.00  0.00    +0.023 A 
ATOM     12 CL   UNL     1       4.375  -1.869   2.120  0.00  0.00    -0.082 Cl
ATOM     13 CL   UNL     1       2.906  -1.993   4.872  0.00  0.00    -0.082 Cl
ENDBRANCH   5   6
ENDBRANCH   1   5
BRANCH   1  14
ATOM     14  C   UNL     1      -2.050  -0.126  -1.234  0.00  0.00    -0.042 C 
BRANCH  14  15
ATOM     15  C   UNL     1      -3.464  -0.648  -1.224  0.00  0.00    -0.019 A 
ATOM     16  C   UNL     1      -3.778  -1.807  -1.909  0.00  0.00    +0.005 A 
ATOM     17  C   UNL     1      -5.074  -2.288  -1.901  0.00  0.00    +0.004 A 
ATOM     18  C   UNL     1      -6.062  -1.612  -1.208  0.00  0.00    +0.049 A 
ATOM     19  C   UNL     1      -5.753  -0.450  -0.520  0.00  0.00    +0.158 A 
ATOM     20  C   UNL     1      -4.447   0.031  -0.522  0.00  0.00    +0.160 A 
BRANCH  20  21
ATOM     21  O   UNL     1      -4.138   1.168   0.157  0.00  0.00    -0.503 OA
ATOM     22  H   UNL     1      -4.231   1.976  -0.366  0.00  0.00    +0.292 HD
ENDBRANCH  20  21
BRANCH  19  23
ATOM     23  O   UNL     1      -6.723   0.215   0.162  0.00  0.00    -0.503 OA
ATOM     24  H   UNL     1      -6.823  -0.068   1.081  0.00  0.00    +0.292 HD
ENDBRANCH  19  23
ENDBRANCH  14  15
ENDBRANCH   1  14
TORSDOF 6
