REMARK  Name = ZINC44963769
REMARK  15 active torsions:
REMARK  status: ('A' for Active; 'I' for Inactive)
REMARK    1  A    between atoms: C_1  and  C_2
REMARK    2  A    between atoms: C_2  and  C_3
REMARK    3  A    between atoms: C_3  and  C_4
REMARK    4  A    between atoms: C_7  and  C_12
REMARK    5  A    between atoms: N_9  and  C_11
REMARK    6  A    between atoms: N_14  and  C_15
REMARK    7  A    between atoms: C_15  and  C_17
REMARK    8  A    between atoms: C_15  and  C_33
REMARK    9  A    between atoms: C_19  and  O_32
REMARK   10  A    between atoms: C_21  and  O_31
REMARK   11  A    between atoms: C_23  and  O_30
REMARK   12  A    between atoms: C_25  and  S_28
REMARK   13  A    between atoms: S_28  and  C_29
REMARK   14  A    between atoms: C_33  and  C_35
REMARK   15  A    between atoms: C_33  and  O_36
REMARK                            x       y       z     vdW  Elec       q    Type
REMARK                         _______ _______ _______ _____ _____    ______ ____
ROOT
ATOM      1  C   UNL     1       0.890  -6.371   2.884  0.00  0.00    +0.132 C 
ENDROOT
BRANCH   1   2
ATOM      2  C   UNL     1       2.167  -5.922   3.597  0.00  0.00    +0.173 C 
ATOM      3  C   UNL     1       2.947  -4.964   2.692  0.00  0.00    +0.176 C 
ATOM      4  C   UNL     1       3.362  -5.703   1.416  0.00  0.00    +0.177 C 
ATOM      5  C   UNL     1       4.182  -6.939   1.799  0.00  0.00    +0.184 C 
ATOM      6  C   UNL     1       3.355  -7.820   2.738  0.00  0.00    +0.207 C 
ATOM      7  O   UNL     1       2.976  -7.063   3.890  0.00  0.00    -0.356 OA
BRANCH   6   8
ATOM      8  S   UNL     1       4.345  -9.250   3.253  0.00  0.00    -0.131 S 
ATOM      9  C   UNL     1       3.152 -10.330   4.092  0.00  0.00    +0.087 C 
ENDBRANCH   6   8
BRANCH   5  10
ATOM     10  O   UNL     1       4.515  -7.675   0.620  0.00  0.00    -0.386 OA
ATOM     11  H   UNL     1       5.035  -8.472   0.788  0.00  0.00    +0.210 HD
ENDBRANCH   5  10
BRANCH   4  12
ATOM     12  O   UNL     1       4.151  -4.838   0.598  0.00  0.00    -0.386 OA
ATOM     13  H   UNL     1       4.449  -5.242  -0.229  0.00  0.00    +0.210 HD
ENDBRANCH   4  12
BRANCH   3  14
ATOM     14  O   UNL     1       2.120  -3.849   2.352  0.00  0.00    -0.387 OA
ATOM     15  H   UNL     1       2.551  -3.200   1.779  0.00  0.00    +0.210 HD
ENDBRANCH   3  14
ENDBRANCH   1   2
BRANCH   1  18
ATOM     16  C   UNL     1      -0.905  -5.220   1.704  0.00  0.00    +0.200 C 
ATOM     17  O   UNL     1      -0.987  -6.174   0.960  0.00  0.00    -0.278 OA
ATOM     18  N   UNL     1       0.003  -5.220   2.701  0.00  0.00    -0.309 N 
ATOM     19  H   UNL     1       0.068  -4.457   3.296  0.00  0.00    +0.149 HD
BRANCH  16  22
ATOM     20  C   UNL     1      -1.480  -2.288  -0.169  0.00  0.00    -0.029 C 
ATOM     21  C   UNL     1      -0.986  -2.776   1.212  0.00  0.00    -0.005 C 
ATOM     22  C   UNL     1      -1.817  -4.036   1.515  0.00  0.00    +0.019 C 
ATOM     23  N   UNL     1      -2.705  -4.259   0.354  0.00  0.00    +0.386 N 
ATOM     24  C   UNL     1      -2.886  -2.928  -0.284  0.00  0.00    -0.075 C 
ATOM     25  C   UNL     1      -4.001  -4.788   0.801  0.00  0.00    -0.095 C 
ATOM     26  H   UNL     1      -2.273  -4.898  -0.297  0.00  0.00    -0.081 HD
BRANCH  20  27
ATOM     27  C   UNL     1      -1.575  -0.762  -0.202  0.00  0.00    +0.001 C 
BRANCH  27  29
ATOM     28  C   UNL     1      -0.264   1.365  -0.184  0.00  0.00    +0.004 C 
ATOM     29  C   UNL     1      -0.169  -0.162  -0.151  0.00  0.00    -0.003 C 
ENDBRANCH  27  29
ENDBRANCH  20  27
ENDBRANCH  16  22
ENDBRANCH   1  18
BRANCH   1  30
ATOM     30  C   UNL     1       0.181  -7.431   3.729  0.00  0.00    +0.134 C 
ATOM     31  C   UNL     1      -0.303  -6.803   5.037  0.00  0.00    +0.039 C 
BRANCH  30  32
ATOM     32  O   UNL     1      -0.939  -7.946   3.005  0.00  0.00    -0.390 OA
ATOM     33  H   UNL     1      -0.700  -8.429   2.202  0.00  0.00    +0.210 HD
ENDBRANCH  30  32
ENDBRANCH   1  30
TORSDOF 11
