REMARK  Name = ZINC07547166
REMARK  9 active torsions:
REMARK  status: ('A' for Active; 'I' for Inactive)
REMARK    1  A    between atoms: C_1  and  N_2
REMARK    2  A    between atoms: N_2  and  C_3
REMARK    3  A    between atoms: C_4  and  C_6
REMARK    4  A    between atoms: C_6  and  C_8
REMARK    5  A    between atoms: C_6  and  N_53
REMARK    6  A    between atoms: C_14  and  C_15
REMARK    7  A    between atoms: C_14  and  N_53
REMARK    8  A    between atoms: C_15  and  C_17
REMARK    9  A    between atoms: C_15  and  C_22
REMARK                            x       y       z     vdW  Elec       q    Type
REMARK                         _______ _______ _______ _____ _____    ______ ____
ROOT
ATOM      1  C   UNL     1       4.154   4.214   1.439  0.00  0.00    -0.068 C 
ENDROOT
BRANCH   1   2
ATOM      2  N   UNL     1       5.604   4.116   1.187  0.00  0.00    +0.390 N 
ATOM      3  H   UNL     1       5.870   3.127   1.117  0.00  0.00    -0.084 HD
ATOM      4  H   UNL     1       5.827   4.594   0.305  0.00  0.00    -0.084 HD
BRANCH   2   5
ATOM      5  C   UNL     1       6.358   4.747   2.286  0.00  0.00    +0.047 C 
BRANCH   5   6
ATOM      6  C   UNL     1       7.735   4.138   2.353  0.00  0.00    -0.053 A 
ATOM      7  C   UNL     1       8.464   3.946   1.194  0.00  0.00    +0.002 A 
ATOM      8  C   UNL     1       9.728   3.391   1.257  0.00  0.00    +0.000 A 
ATOM      9  C   UNL     1      10.261   3.020   2.477  0.00  0.00    +0.000 A 
ATOM     10  C   UNL     1       9.530   3.207   3.636  0.00  0.00    +0.000 A 
ATOM     11  C   UNL     1       8.267   3.766   3.574  0.00  0.00    +0.002 A 
ENDBRANCH   5   6
BRANCH   5  15
ATOM     12  C   UNL     1       6.661   8.523   2.828  0.00  0.00    +0.131 C 
ATOM     13  N   UNL     1       6.655   7.077   3.062  0.00  0.00    -0.309 N 
ATOM     14  C   UNL     1       6.844   6.554   4.418  0.00  0.00    +0.131 C 
ATOM     15  C   UNL     1       6.476   6.227   2.031  0.00  0.00    +0.205 C 
ATOM     16  O   UNL     1       6.410   6.655   0.898  0.00  0.00    -0.277 OA
ENDBRANCH   5  15
ENDBRANCH   2   5
ENDBRANCH   1   2
BRANCH   1  17
ATOM     17  C   UNL     1       3.398   3.553   0.285  0.00  0.00    +0.041 C 
BRANCH  17  18
ATOM     18  C   UNL     1       1.923   3.539   0.592  0.00  0.00    -0.016 A 
ATOM     19  C   UNL     1       1.143   4.609   0.812  0.00  0.00    +0.087 A 
ATOM     20  N   UNL     1      -0.142   4.207   1.060  0.00  0.00    -0.360 N 
ATOM     21  H   UNL     1      -0.885   4.801   1.247  0.00  0.00    +0.165 HD
ATOM     22  C   UNL     1      -0.221   2.833   1.004  0.00  0.00    +0.047 A 
ATOM     23  C   UNL     1       1.068   2.355   0.709  0.00  0.00    +0.003 A 
ATOM     24  C   UNL     1       1.291   0.982   0.590  0.00  0.00    +0.010 A 
ATOM     25  C   UNL     1       0.254   0.109   0.762  0.00  0.00    +0.001 A 
ATOM     26  C   UNL     1      -1.021   0.576   1.047  0.00  0.00    +0.002 A 
ATOM     27  C   UNL     1      -1.262   1.927   1.175  0.00  0.00    +0.026 A 
ENDBRANCH  17  18
BRANCH  17  28
ATOM     28  C   UNL     1       3.639   4.330  -0.984  0.00  0.00    -0.005 A 
ATOM     29  C   UNL     1       4.198   3.914  -2.147  0.00  0.00    +0.012 A 
ATOM     30  C   UNL     1       4.319   4.811  -3.191  0.00  0.00    +0.008 A 
ATOM     31  C   UNL     1       3.874   6.081  -3.022  0.00  0.00    +0.045 A 
ATOM     32  S   UNL     1       3.255   6.035  -1.348  0.00  0.00    -0.101 S 
ENDBRANCH  17  28
ENDBRANCH   1  17
TORSDOF 7
