REMARK  Name = ZINC05555665
REMARK  6 active torsions:
REMARK  status: ('A' for Active; 'I' for Inactive)
REMARK    1  A    between atoms: C_3  and  C_14
REMARK    2  A    between atoms: N_4  and  C_6
REMARK    3  A    between atoms: C_9  and  C_12
REMARK    4  A    between atoms: N_15  and  N_16
REMARK    5  A    between atoms: C_17  and  C_19
REMARK    6  A    between atoms: C_22  and  C_26
REMARK                            x       y       z     vdW  Elec       q    Type
REMARK                         _______ _______ _______ _____ _____    ______ ____
ROOT
ATOM      1  C   UNL     1      -4.448   5.534   1.980  0.00  0.00    +0.156 C 
ATOM      2  N   UNL     1      -4.899   6.497   2.729  0.00  0.00    -0.186 NA
ENDROOT
BRANCH   1   5
ATOM      3  C   UNL     1      -6.989   4.589  -0.487  0.00  0.00    +0.020 A 
ATOM      4  C   UNL     1      -6.564   5.381   0.591  0.00  0.00    +0.029 A 
ATOM      5  C   UNL     1      -5.286   4.980   0.912  0.00  0.00    +0.066 A 
ATOM      6  N   UNL     1      -4.939   3.966   0.048  0.00  0.00    -0.315 N 
ATOM      7  C   UNL     1      -5.984   3.742  -0.801  0.00  0.00    +0.092 A 
BRANCH   6   8
ATOM      8  C   UNL     1      -3.720   3.284   0.038  0.00  0.00    +0.047 A 
ATOM      9  C   UNL     1      -3.703   1.893   0.030  0.00  0.00    +0.027 A 
ATOM     10  C   UNL     1      -2.504   1.217   0.021  0.00  0.00    +0.017 A 
ATOM     11  C   UNL     1      -1.302   1.931   0.019  0.00  0.00    +0.063 A 
ATOM     12  C   UNL     1      -1.323   3.329   0.032  0.00  0.00    +0.017 A 
ATOM     13  C   UNL     1      -2.526   3.997   0.037  0.00  0.00    +0.027 A 
BRANCH  11  14
ATOM     14  C   UNL     1      -0.014   1.211   0.009  0.00  0.00    +0.387 C 
ATOM     15  O   UNL     1       0.002  -0.004   0.002  0.00  0.00    -0.241 OA
ATOM     16  O   UNL     1       1.143   1.900   0.001  0.00  0.00    -0.241 OA
ENDBRANCH  11  14
ENDBRANCH   6   8
ENDBRANCH   1   5
BRANCH   2  17
ATOM     17  N   UNL     1      -4.098   7.026   3.749  0.00  0.00    -0.203 N 
ATOM     18  C   UNL     1      -4.566   8.024   4.525  0.00  0.00    +0.266 C 
ATOM     19  O   UNL     1      -5.684   8.465   4.339  0.00  0.00    -0.268 OA
ATOM     20  H   UNL     1      -3.207   6.674   3.897  0.00  0.00    +0.178 HD
BRANCH  18  21
ATOM     21  C   UNL     1      -3.721   8.581   5.600  0.00  0.00    +0.074 A 
ATOM     22  C   UNL     1      -2.437   8.075   5.814  0.00  0.00    +0.017 A 
ATOM     23  C   UNL     1      -1.649   8.594   6.816  0.00  0.00    +0.020 A 
ATOM     24  C   UNL     1      -2.133   9.628   7.622  0.00  0.00    +0.055 A 
ATOM     25  C   UNL     1      -3.416  10.137   7.410  0.00  0.00    +0.058 A 
ATOM     26  C   UNL     1      -4.205   9.621   6.402  0.00  0.00    +0.137 A 
ATOM     27  F   UNL     1      -5.444  10.116   6.193  0.00  0.00    -0.205 F 
BRANCH  24  28
ATOM     28  C   UNL     1      -1.312  10.167   8.664  0.00  0.00    +0.099 C 
ATOM     29  N   UNL     1      -0.661  10.595   9.491  0.00  0.00    -0.191 NA
ENDBRANCH  24  28
ENDBRANCH  18  21
ENDBRANCH   2  17
TORSDOF 6
