REMARK  Name = ZINC09094892
REMARK  7 active torsions:
REMARK  status: ('A' for Active; 'I' for Inactive)
REMARK    1  A    between atoms: C_4  and  C_7
REMARK    2  A    between atoms: C_7  and  C_8
REMARK    3  A    between atoms: C_8  and  C_10
REMARK    4  A    between atoms: C_8  and  N_22
REMARK    5  A    between atoms: N_12  and  C_13
REMARK    6  A    between atoms: N_22  and  S_23
REMARK    7  A    between atoms: S_23  and  C_26
REMARK                            x       y       z     vdW  Elec       q    Type
REMARK                         _______ _______ _______ _____ _____    ______ ____
ROOT
ATOM      1  C   UNL     1      -2.946   0.714   1.468  0.00  0.00    +0.167 C 
ENDROOT
BRANCH   1   2
ATOM      2  C   UNL     1      -4.298   0.048   1.465  0.00  0.00    +0.236 C 
ATOM      3  O   UNL     1      -4.432  -1.055   1.952  0.00  0.00    -0.274 OA
ATOM      4  N   UNL     1      -5.359   0.678   0.922  0.00  0.00    -0.284 N 
ATOM      5  H   UNL     1      -5.267   1.586   0.594  0.00  0.00    +0.155 HD
BRANCH   4   6
ATOM      6  C   UNL     1      -6.593   0.021   0.832  0.00  0.00    +0.037 A 
ATOM      7  C   UNL     1      -7.426   0.255  -0.254  0.00  0.00    +0.027 A 
ATOM      8  C   UNL     1      -8.642  -0.395  -0.346  0.00  0.00    +0.051 A 
ATOM      9  C   UNL     1      -9.037  -1.274   0.649  0.00  0.00    +0.166 A 
ATOM     10  C   UNL     1      -8.206  -1.507   1.742  0.00  0.00    +0.168 A 
ATOM     11  C   UNL     1      -6.986  -0.858   1.831  0.00  0.00    +0.072 A 
ATOM     12  O   UNL     1      -8.817  -2.403   2.572  0.00  0.00    -0.453 OA
ATOM     13  C   UNL     1     -10.203  -2.405   2.182  0.00  0.00    +0.466 C 
ATOM     14  O   UNL     1     -10.169  -2.026   0.794  0.00  0.00    -0.453 OA
ENDBRANCH   4   6
ENDBRANCH   1   2
BRANCH   1  15
ATOM     15  N   UNL     1      -1.969  -0.169   2.110  0.00  0.00    -0.178 NA
ATOM     16  H   UNL     1      -2.038  -1.130   2.001  0.00  0.00    +0.149 HD
BRANCH  15  17
ATOM     17  S   UNL     1      -0.746   0.475   3.022  0.00  0.00    +0.059 S 
ATOM     18  O   UNL     1       0.007  -0.620   3.524  0.00  0.00    -0.153 OA
ATOM     19  O   UNL     1      -0.159   1.509   2.243  0.00  0.00    -0.153 OA
BRANCH  17  20
ATOM     20  C   UNL     1      -1.490   1.256   4.416  0.00  0.00    +0.105 A 
ATOM     21  C   UNL     1      -1.856   2.587   4.348  0.00  0.00    +0.030 A 
ATOM     22  C   UNL     1      -2.445   3.198   5.439  0.00  0.00    +0.022 A 
ATOM     23  C   UNL     1      -2.658   2.480   6.603  0.00  0.00    +0.041 A 
ATOM     24  C   UNL     1      -2.285   1.149   6.671  0.00  0.00    +0.022 A 
ATOM     25  C   UNL     1      -1.701   0.538   5.578  0.00  0.00    +0.030 A 
ATOM     26 CL   UNL     1      -3.391   3.248   7.976  0.00  0.00    -0.084 Cl
ENDBRANCH  17  20
ENDBRANCH  15  17
ENDBRANCH   1  15
BRANCH   1  27
ATOM     27  C   UNL     1      -2.513   0.993   0.028  0.00  0.00    +0.065 C 
BRANCH  27  31
ATOM     28  C   UNL     1       1.151   3.189   0.039  0.00  0.00    +0.000 A 
ATOM     29  C   UNL     1       1.174   1.807   0.022  0.00  0.00    +0.000 A 
ATOM     30  C   UNL     1      -0.012   1.096   0.023  0.00  0.00    +0.004 A 
ATOM     31  C   UNL     1      -1.220   1.768   0.034  0.00  0.00    -0.045 A 
ATOM     32  C   UNL     1      -1.242   3.150   0.055  0.00  0.00    +0.004 A 
ATOM     33  C   UNL     1      -0.057   3.861   0.055  0.00  0.00    +0.000 A 
ENDBRANCH  27  31
ENDBRANCH   1  27
TORSDOF 7
