REMARK  Name = ZINC04598654
REMARK  3 active torsions:
REMARK  status: ('A' for Active; 'I' for Inactive)
REMARK    1  A    between atoms: C_1  and  N_2
REMARK    2  A    between atoms: C_5  and  C_22
REMARK    3  A    between atoms: N_27  and  C_28
REMARK                            x       y       z     vdW  Elec       q    Type
REMARK                         _______ _______ _______ _____ _____    ______ ____
ROOT
ATOM      1  C   UNL     1       1.082  -2.207   0.528  0.00  0.00    +0.136 C 
ATOM      2  N   UNL     1       1.177  -0.745   0.523  0.00  0.00    -0.266 N 
ATOM      3  C   UNL     1       0.103  -0.061   0.130  0.00  0.00    +0.228 C 
ATOM      4  O   UNL     1      -0.887  -0.676  -0.207  0.00  0.00    -0.275 OA
ATOM      5  C   UNL     1       0.069   1.441   0.087  0.00  0.00    +0.140 C 
ATOM      6  C   UNL     1       1.504   1.975   0.113  0.00  0.00    +0.049 C 
ATOM      7  C   UNL     1       2.210   1.564  -1.164  0.00  0.00    -0.001 A 
ATOM      8  C   UNL     1       1.931   2.266  -2.324  0.00  0.00    +0.007 A 
ATOM      9  C   UNL     1       2.560   1.934  -3.508  0.00  0.00    +0.001 A 
ATOM     10  C   UNL     1       3.472   0.895  -3.539  0.00  0.00    +0.004 A 
ATOM     11  C   UNL     1       3.751   0.188  -2.387  0.00  0.00    +0.046 A 
ATOM     12  C   UNL     1       3.116   0.517  -1.194  0.00  0.00    +0.127 A 
ATOM     13  O   UNL     1       3.406  -0.233  -0.085  0.00  0.00    -0.468 OA
ATOM     14  C   UNL     1       2.437  -0.154   0.947  0.00  0.00    +0.184 C 
ATOM     15  C   UNL     1       2.256   1.351   1.274  0.00  0.00    +0.061 C 
ATOM     16  C   UNL     1       1.487   1.297   2.600  0.00  0.00    +0.010 C 
ATOM     17  C   UNL     1       2.198   0.150   3.367  0.00  0.00    +0.006 C 
ATOM     18  C   UNL     1       2.857  -0.750   2.294  0.00  0.00    +0.069 C 
ENDROOT
BRANCH   5  19
ATOM     19  C   UNL     1      -0.684   1.963   1.283  0.00  0.00    +0.116 A 
ATOM     20  N   UNL     1      -0.607   3.130   1.890  0.00  0.00    -0.144 NA
ATOM     21  N   UNL     1      -1.316   3.415   2.893  0.00  0.00    -0.126 NA
ATOM     22  C   UNL     1      -2.187   2.552   3.401  0.00  0.00    +0.186 A 
ATOM     23  S   UNL     1      -1.945   1.176   2.282  0.00  0.00    -0.035 S 
ATOM     24  N   UNL     1      -3.043   2.682   4.485  0.00  0.00    -0.292 N 
ATOM     25  H   UNL     1      -3.689   1.985   4.679  0.00  0.00    +0.154 HD
BRANCH  24  26
ATOM     26  C   UNL     1      -2.975   3.817   5.297  0.00  0.00    +0.033 A 
ATOM     27  C   UNL     1      -1.790   4.537   5.391  0.00  0.00    +0.023 A 
ATOM     28  C   UNL     1      -1.728   5.661   6.190  0.00  0.00    +0.002 A 
ATOM     29  C   UNL     1      -2.841   6.064   6.906  0.00  0.00    +0.000 A 
ATOM     30  C   UNL     1      -4.020   5.348   6.820  0.00  0.00    +0.002 A 
ATOM     31  C   UNL     1      -4.091   4.225   6.018  0.00  0.00    +0.023 A 
ENDBRANCH  24  26
ENDBRANCH   5  19
TORSDOF 2
