REMARK  Name = ZINC21730047
REMARK  9 active torsions:
REMARK  status: ('A' for Active; 'I' for Inactive)
REMARK    1  A    between atoms: C_1  and  C_2
REMARK    2  A    between atoms: C_2  and  C_3
REMARK    3  A    between atoms: C_3  and  C_5
REMARK    4  A    between atoms: C_3  and  N_6
REMARK    5  A    between atoms: C_7  and  C_9
REMARK    6  A    between atoms: N_21  and  C_24
REMARK    7  A    between atoms: C_24  and  C_25
REMARK    8  A    between atoms: C_25  and  C_26
REMARK    9  A    between atoms: C_25  and  C_27
REMARK                            x       y       z     vdW  Elec       q    Type
REMARK                         _______ _______ _______ _____ _____    ______ ____
ROOT
ATOM      1  C   UNL     1       0.204   1.106   4.840  0.00  0.00    +0.039 A 
ATOM      2  C   UNL     1       1.579   0.882   4.731  0.00  0.00    +0.014 A 
ATOM      3  C   UNL     1       2.314   0.526   5.840  0.00  0.00    +0.016 A 
ATOM      4  C   UNL     1       1.680   0.378   7.073  0.00  0.00    +0.064 A 
ATOM      5  C   UNL     1       0.299   0.597   7.186  0.00  0.00    +0.065 A 
ATOM      6  C   UNL     1      -0.435   0.960   6.069  0.00  0.00    +0.040 A 
ATOM      7  N   UNL     1      -0.318   0.445   8.428  0.00  0.00    -0.255 N 
ATOM      8  C   UNL     1      -1.607   0.593   8.801  0.00  0.00    +0.208 A 
ATOM      9  S   UNL     1      -2.910   1.036   7.783  0.00  0.00    -0.009 SA
ATOM     10  N   UNL     1      -1.681   0.330  10.121  0.00  0.00    -0.119 NA
ATOM     11  N   UNL     1      -0.390   0.011  10.558  0.00  0.00    -0.109 NA
ATOM     12  C   UNL     1       0.417   0.084   9.534  0.00  0.00    +0.240 A 
ATOM     13  N   UNL     1       1.785  -0.138   9.450  0.00  0.00    -0.276 N 
ATOM     14  C   UNL     1       2.440  -0.008   8.279  0.00  0.00    +0.263 A 
ATOM     15  O   UNL     1       3.638  -0.204   8.217  0.00  0.00    -0.267 OA
ENDROOT
BRANCH   1  17
ATOM     16  N   UNL     1       0.038   1.636   2.453  0.00  0.00    -0.309 N 
ATOM     17  C   UNL     1      -0.578   1.494   3.643  0.00  0.00    +0.244 C 
ATOM     18  O   UNL     1      -1.774   1.684   3.735  0.00  0.00    -0.270 OA
ATOM     19  H   UNL     1       1.122   1.463   2.370  0.00  0.00    +0.149 HD
BRANCH  16  20
ATOM     20  C   UNL     1      -0.735   2.019   1.269  0.00  0.00    +0.070 C 
ATOM     21  C   UNL     1      -0.866   3.543   1.217  0.00  0.00    +0.028 C 
BRANCH  20  23
ATOM     22  C   UNL     1       0.002  -0.004   0.002  0.00  0.00    +0.005 C 
ATOM     23  C   UNL     1      -0.019   1.526   0.010  0.00  0.00    +0.018 C 
ENDBRANCH  20  23
ENDBRANCH  16  20
ENDBRANCH   1  17
BRANCH  13  24
ATOM     24  C   UNL     1       2.528  -0.520  10.653  0.00  0.00    +0.131 C 
BRANCH  24  25
ATOM     25  C   UNL     1       3.031   0.739  11.363  0.00  0.00    +0.003 C 
ATOM     26  C   UNL     1       3.699   0.348  12.683  0.00  0.00    +0.009 C 
ATOM     27  C   UNL     1       4.045   1.457  10.471  0.00  0.00    +0.009 C 
ENDBRANCH  24  25
ENDBRANCH  13  24
TORSDOF 5
