REMARK  Name = ZINC43075054
REMARK  9 active torsions:
REMARK  status: ('A' for Active; 'I' for Inactive)
REMARK    1  A    between atoms: C_1  and  C_2
REMARK    2  A    between atoms: C_2  and  N_3
REMARK    3  A    between atoms: N_7  and  C_8
REMARK    4  A    between atoms: C_12  and  C_14
REMARK    5  A    between atoms: C_14  and  C_15
REMARK    6  A    between atoms: C_15  and  C_16
REMARK    7  A    between atoms: C_19  and  O_22
REMARK    8  A    between atoms: O_22  and  C_23
REMARK    9  A    between atoms: C_27  and  N_29
REMARK                            x       y       z     vdW  Elec       q    Type
REMARK                         _______ _______ _______ _____ _____    ______ ____
ROOT
ATOM      1  C   UNL     1       1.913  -2.030  -5.774  0.00  0.00    +0.040 A 
ATOM      2  C   UNL     1       0.677  -2.684  -5.790  0.00  0.00    +0.025 A 
ATOM      3  C   UNL     1       0.041  -2.920  -6.989  0.00  0.00    +0.002 A 
ATOM      4  C   UNL     1       0.622  -2.511  -8.178  0.00  0.00    +0.004 A 
ATOM      5  C   UNL     1       1.845  -1.864  -8.171  0.00  0.00    -0.045 A 
ATOM      6  C   UNL     1       2.492  -1.615  -6.979  0.00  0.00    +0.029 A 
ENDROOT
BRANCH   1  11
ATOM      7  N   UNL     1       3.401  -4.893  -2.074  0.00  0.00    -0.352 N 
ATOM      8  C   UNL     1       2.884  -5.146  -3.303  0.00  0.00    +0.088 A 
ATOM      9  C   UNL     1       2.590  -4.148  -4.161  0.00  0.00    +0.045 A 
ATOM     10  C   UNL     1       2.827  -2.805  -3.770  0.00  0.00    +0.063 A 
ATOM     11  N   UNL     1       2.549  -1.793  -4.592  0.00  0.00    -0.354 N 
ATOM     12  C   UNL     1       3.386  -2.561  -2.435  0.00  0.00    +0.065 A 
ATOM     13  C   UNL     1       3.646  -3.624  -1.638  0.00  0.00    +0.110 A 
ATOM     14  H   UNL     1       2.798  -0.888  -4.349  0.00  0.00    +0.166 HD
BRANCH  12  15
ATOM     15  N   UNL     1       3.642  -1.255  -1.994  0.00  0.00    -0.355 N 
ATOM     16  H   UNL     1       3.450  -0.501  -2.572  0.00  0.00    +0.142 HD
ATOM     17  H   UNL     1       4.012  -1.106  -1.109  0.00  0.00    +0.142 HD
ENDBRANCH  12  15
BRANCH   7  19
ATOM     18  C   UNL     1       2.468  -6.338  -0.335  0.00  0.00    +0.027 C 
ATOM     19  C   UNL     1       3.699  -6.019  -1.185  0.00  0.00    +0.118 C 
ENDBRANCH   7  19
ENDBRANCH   1  11
BRANCH   5  20
ATOM     20  C   UNL     1       2.469  -1.423  -9.470  0.00  0.00    +0.040 C 
BRANCH  20  21
ATOM     21  C   UNL     1       2.007  -0.003  -9.803  0.00  0.00    +0.040 C 
BRANCH  21  22
ATOM     22  C   UNL     1       2.631   0.437 -11.102  0.00  0.00    -0.047 A 
ATOM     23  C   UNL     1       3.855   1.079 -11.097  0.00  0.00    +0.007 A 
ATOM     24  C   UNL     1       4.429   1.485 -12.286  0.00  0.00    +0.046 A 
ATOM     25  C   UNL     1       3.776   1.246 -13.487  0.00  0.00    +0.130 A 
ATOM     26  C   UNL     1       2.548   0.601 -13.489  0.00  0.00    +0.046 A 
ATOM     27  C   UNL     1       1.980   0.193 -12.297  0.00  0.00    +0.007 A 
BRANCH  25  28
ATOM     28  O   UNL     1       4.338   1.644 -14.658  0.00  0.00    -0.406 OA
BRANCH  28  29
ATOM     29  C   UNL     1       3.609   1.365 -15.855  0.00  0.00    +0.575 C 
ATOM     30  F   UNL     1       2.364   2.000 -15.801  0.00  0.00    -0.133 F 
ATOM     31  F   UNL     1       4.327   1.839 -16.959  0.00  0.00    -0.133 F 
ATOM     32  F   UNL     1       3.424  -0.016 -15.977  0.00  0.00    -0.133 F 
ENDBRANCH  28  29
ENDBRANCH  25  28
ENDBRANCH  21  22
ENDBRANCH  20  21
ENDBRANCH   5  20
TORSDOF 8
