REMARK  Name = ZINC05679233
REMARK  3 active torsions:
REMARK  status: ('A' for Active; 'I' for Inactive)
REMARK    1  A    between atoms: C_3  and  N_8
REMARK    2  A    between atoms: C_9  and  C_11
REMARK    3  A    between atoms: C_11  and  N_12
REMARK                            x       y       z     vdW  Elec       q    Type
REMARK                         _______ _______ _______ _____ _____    ______ ____
ROOT
ATOM      1  N   UNL     1       2.226   7.996   0.334  0.00  0.00    -0.215 N 
ATOM      2  C   UNL     1       2.958   8.380  -0.733  0.00  0.00    +0.251 C 
ATOM      3  O   UNL     1       2.639   8.326  -1.901  0.00  0.00    -0.272 OA
ATOM      4  C   UNL     1       4.259   8.891  -0.163  0.00  0.00    +0.139 C 
ATOM      5  C   UNL     1       5.439   8.087  -0.688  0.00  0.00    +0.040 C 
ATOM      6  C   UNL     1       6.755   8.722  -0.226  0.00  0.00    +0.008 C 
ATOM      7  C   UNL     1       6.938  10.066  -0.946  0.00  0.00    +0.043 C 
ATOM      8  C   UNL     1       5.662  10.836  -0.850  0.00  0.00    -0.005 A 
ATOM      9  C   UNL     1       4.433  10.361  -0.504  0.00  0.00    -0.005 A 
ATOM     10  C   UNL     1       3.390  11.287  -0.488  0.00  0.00    +0.014 A 
ATOM     11  C   UNL     1       3.627  12.581  -0.805  0.00  0.00    +0.046 A 
ATOM     12  S   UNL     1       5.380  12.560  -1.151  0.00  0.00    -0.101 S 
ATOM     13  N   UNL     1       4.109   8.726   1.286  0.00  0.00    -0.281 N 
ATOM     14  C   UNL     1       2.885   8.199   1.482  0.00  0.00    +0.310 C 
ATOM     15  O   UNL     1       2.430   7.935   2.578  0.00  0.00    -0.252 OA
ATOM     16  H   UNL     1       4.760   8.955   1.968  0.00  0.00    +0.152 HD
ENDROOT
BRANCH   1  17
ATOM     17  C   UNL     1       0.877   7.432   0.247  0.00  0.00    +0.214 C 
BRANCH  17  19
ATOM     18  N   UNL     1      -0.159   5.196   0.031  0.00  0.00    -0.282 N 
ATOM     19  C   UNL     1       0.966   5.932   0.126  0.00  0.00    +0.235 C 
ATOM     20  O   UNL     1       2.050   5.388   0.112  0.00  0.00    -0.274 OA
ATOM     21  H   UNL     1      -1.021   5.634  -0.040  0.00  0.00    +0.155 HD
BRANCH  18  24
ATOM     22  C   UNL     1       1.031   1.766   0.605  0.00  0.00    +0.022 A 
ATOM     23  C   UNL     1       1.000   3.151   0.626  0.00  0.00    +0.028 A 
ATOM     24  C   UNL     1      -0.082   3.798   0.036  0.00  0.00    +0.071 A 
ATOM     25  C   UNL     1      -1.086   3.034  -0.550  0.00  0.00    +0.150 A 
ATOM     26  N   UNL     1      -1.014   1.718  -0.552  0.00  0.00    -0.242 NA
ATOM     27  C   UNL     1      -0.005   1.076   0.004  0.00  0.00    +0.112 A 
ATOM     28 CL   UNL     1      -2.444   3.823  -1.291  0.00  0.00    -0.060 Cl
ENDBRANCH  18  24
ENDBRANCH  17  19
ENDBRANCH   1  17
TORSDOF 3
