REMARK  Name = ZINC03528768
REMARK  8 active torsions:
REMARK  status: ('A' for Active; 'I' for Inactive)
REMARK    1  A    between atoms: C_1  and  N_2
REMARK    2  A    between atoms: C_3  and  N_30
REMARK    3  A    between atoms: C_4  and  C_11
REMARK    4  A    between atoms: N_7  and  C_10
REMARK    5  A    between atoms: C_11  and  C_13
REMARK    6  A    between atoms: C_13  and  S_14
REMARK    7  A    between atoms: S_14  and  C_15
REMARK    8  A    between atoms: C_18  and  C_20
REMARK                            x       y       z     vdW  Elec       q    Type
REMARK                         _______ _______ _______ _____ _____    ______ ____
ROOT
ATOM      1  C   UNL     1       1.280   1.984  -0.053  0.00  0.00    +0.158 C 
ENDROOT
BRANCH   1   2
ATOM      2  C   UNL     1      -0.014   1.212  -0.013  0.00  0.00    +0.182 C 
ATOM      3  O   UNL     1       0.004  -0.002  -0.004  0.00  0.00    -0.291 OA
BRANCH   2   7
ATOM      4  C   UNL     1      -4.908   1.203  -0.144  0.00  0.00    +0.155 C 
ATOM      5  N   UNL     1      -3.632   1.917  -0.055  0.00  0.00    -0.284 N 
ATOM      6  C   UNL     1      -2.465   1.207  -0.085  0.00  0.00    +0.116 A 
ATOM      7  C   UNL     1      -1.246   1.900   0.007  0.00  0.00    +0.120 A 
ATOM      8  C   UNL     1      -1.295   3.364   0.120  0.00  0.00    +0.269 A 
ATOM      9  O   UNL     1      -0.270   4.016   0.197  0.00  0.00    -0.267 OA
ATOM     10  N   UNL     1      -2.499   3.971   0.135  0.00  0.00    -0.263 N 
ATOM     11  C   UNL     1      -3.632   3.255   0.049  0.00  0.00    +0.333 A 
ATOM     12  O   UNL     1      -4.697   3.840   0.067  0.00  0.00    -0.246 OA
ATOM     13  C   UNL     1      -2.573   5.429   0.246  0.00  0.00    +0.157 C 
BRANCH   6  14
ATOM     14  N   UNL     1      -2.483  -0.149  -0.197  0.00  0.00    -0.344 N 
ATOM     15  H   UNL     1      -1.656  -0.651  -0.133  0.00  0.00    +0.144 HD
ATOM     16  H   UNL     1      -3.323  -0.612  -0.340  0.00  0.00    +0.144 HD
ENDBRANCH   6  14
ENDBRANCH   2   7
ENDBRANCH   1   2
BRANCH   1  17
ATOM     17  S   UNL     1       2.672   0.828  -0.080  0.00  0.00    -0.058 S 
BRANCH  17  18
ATOM     18  C   UNL     1       4.016   1.967  -0.124  0.00  0.00    +0.278 A 
ATOM     19  N   UNL     1       3.923   3.277  -0.131  0.00  0.00    -0.101 NA
ATOM     20  N   UNL     1       5.102   3.790  -0.166  0.00  0.00    -0.106 NA
ATOM     21  C   UNL     1       5.996   2.828  -0.182  0.00  0.00    +0.257 A 
ATOM     22  O   UNL     1       5.325   1.654  -0.150  0.00  0.00    -0.410 OA
BRANCH  21  23
ATOM     23  C   UNL     1       7.456   2.996  -0.221  0.00  0.00    +0.095 A 
ATOM     24  C   UNL     1       8.170   4.152  -0.254  0.00  0.00    +0.068 A 
ATOM     25  C   UNL     1       9.620   4.082  -0.285  0.00  0.00    +0.008 A 
ATOM     26  C   UNL     1      10.556   5.145  -0.317  0.00  0.00    +0.010 A 
ATOM     27  C   UNL     1      11.891   4.894  -0.350  0.00  0.00    +0.001 A 
ATOM     28  C   UNL     1      12.386   3.597  -0.354  0.00  0.00    +0.001 A 
ATOM     29  C   UNL     1      11.507   2.532  -0.323  0.00  0.00    +0.016 A 
ATOM     30  C   UNL     1      10.150   2.772  -0.289  0.00  0.00    +0.021 A 
ATOM     31  S   UNL     1       8.713   1.732  -0.245  0.00  0.00    -0.082 S 
ATOM     32 CL   UNL     1       7.361   5.688  -0.254  0.00  0.00    -0.082 Cl
ENDBRANCH  21  23
ENDBRANCH  17  18
ENDBRANCH   1  17
TORSDOF 6
