REMARK  Name = ZINC00829852
REMARK  7 active torsions:
REMARK  status: ('A' for Active; 'I' for Inactive)
REMARK    1  A    between atoms: C_1  and  N_2
REMARK    2  A    between atoms: N_11  and  C_15
REMARK    3  A    between atoms: C_15  and  C_16
REMARK    4  A    between atoms: C_16  and  C_18
REMARK    5  A    between atoms: C_16  and  O_30
REMARK    6  A    between atoms: C_18  and  O_19
REMARK    7  A    between atoms: O_19  and  C_20
REMARK                            x       y       z     vdW  Elec       q    Type
REMARK                         _______ _______ _______ _____ _____    ______ ____
ROOT
ATOM      1  C   UNL     1      -6.150   2.943   0.203  0.00  0.00    +0.159 C 
ENDROOT
BRANCH   1  12
ATOM      2  C   UNL     1     -11.125   6.462  -0.290  0.00  0.00    +0.155 C 
ATOM      3  N   UNL     1     -10.061   5.657  -0.896  0.00  0.00    -0.280 N 
ATOM      4  C   UNL     1      -9.116   5.042  -0.091  0.00  0.00    +0.169 A 
ATOM      5  C   UNL     1      -8.118   4.283  -0.690  0.00  0.00    +0.152 A 
ATOM      6  C   UNL     1      -8.095   4.163  -2.095  0.00  0.00    +0.280 A 
ATOM      7  O   UNL     1      -7.230   3.504  -2.643  0.00  0.00    -0.265 OA
ATOM      8  N   UNL     1      -9.043   4.786  -2.825  0.00  0.00    -0.273 N 
ATOM      9  H   UNL     1      -9.031   4.703  -3.822  0.00  0.00    +0.173 HD
ATOM     10  C   UNL     1     -10.004   5.516  -2.233  0.00  0.00    +0.331 A 
ATOM     11  O   UNL     1     -10.842   6.064  -2.924  0.00  0.00    -0.246 OA
ATOM     12  N   UNL     1      -7.332   3.798   0.338  0.00  0.00    -0.310 N 
ATOM     13  C   UNL     1      -7.864   4.255   1.489  0.00  0.00    +0.180 A 
ATOM     14  N   UNL     1      -8.914   4.994   1.228  0.00  0.00    -0.203 NA
ATOM     15 BR   UNL     1      -7.192   3.891   3.219  0.00  0.00    -0.008 Br
ENDBRANCH   1  12
BRANCH   1  16
ATOM     16  C   UNL     1      -4.901   3.816   0.069  0.00  0.00    +0.171 C 
BRANCH  16  17
ATOM     17  O   UNL     1      -4.970   4.562  -1.148  0.00  0.00    -0.387 OA
ATOM     18  H   UNL     1      -5.021   4.014  -1.943  0.00  0.00    +0.210 HD
ENDBRANCH  16  17
BRANCH  16  19
ATOM     19  C   UNL     1      -3.656   2.927   0.053  0.00  0.00    +0.262 C 
BRANCH  19  20
ATOM     20  O   UNL     1      -2.486   3.747   0.046  0.00  0.00    -0.489 OA
BRANCH  20  21
ATOM     21  C   UNL     1      -1.287   3.110   0.032  0.00  0.00    +0.128 A 
ATOM     22  C   UNL     1      -1.234   1.744   0.017  0.00  0.00    +0.046 A 
ATOM     23  C   UNL     1      -0.013   1.076   0.008  0.00  0.00    +0.004 A 
ATOM     24  C   UNL     1       1.164   1.762   0.000  0.00  0.00    +0.009 A 
ATOM     25  C   UNL     1       1.152   3.167   0.008  0.00  0.00    -0.014 A 
ATOM     26  C   UNL     1      -0.088   3.852   0.024  0.00  0.00    +0.024 A 
ATOM     27  C   UNL     1      -0.100   5.256   0.030  0.00  0.00    +0.012 A 
ATOM     28  C   UNL     1       1.077   5.940   0.022  0.00  0.00    +0.001 A 
ATOM     29  C   UNL     1       2.297   5.267   0.007  0.00  0.00    +0.001 A 
ATOM     30  C   UNL     1       2.347   3.907   0.000  0.00  0.00    +0.008 A 
ENDBRANCH  20  21
ENDBRANCH  19  20
ENDBRANCH  16  19
ENDBRANCH   1  16
TORSDOF 6
