REMARK  Name = ZINC28563431
REMARK  7 active torsions:
REMARK  status: ('A' for Active; 'I' for Inactive)
REMARK    1  A    between atoms: C_3  and  N_11
REMARK    2  A    between atoms: C_6  and  S_7
REMARK    3  A    between atoms: S_7  and  N_10
REMARK    4  A    between atoms: C_12  and  N_22
REMARK    5  A    between atoms: C_13  and  C_20
REMARK    6  A    between atoms: C_14  and  C_16
REMARK    7  A    between atoms: N_22  and  C_23
REMARK                            x       y       z     vdW  Elec       q    Type
REMARK                         _______ _______ _______ _____ _____    ______ ____
ROOT
ATOM      1  N   UNL     1      -2.023   2.370   5.147  0.00  0.00    -0.199 N 
ATOM      2  C   UNL     1      -2.200   3.602   5.692  0.00  0.00    +0.142 A 
ATOM      3  C   UNL     1      -3.493   3.637   6.207  0.00  0.00    +0.123 A 
ATOM      4  C   UNL     1      -4.075   2.373   5.954  0.00  0.00    +0.185 A 
ATOM      5  N   UNL     1      -3.200   1.635   5.329  0.00  0.00    -0.158 NA
ENDROOT
BRANCH   1   8
ATOM      6  C   UNL     1       0.210   0.464   2.946  0.00  0.00    +0.034 A 
ATOM      7  C   UNL     1      -0.948   0.908   3.562  0.00  0.00    +0.050 A 
ATOM      8  C   UNL     1      -0.862   1.912   4.518  0.00  0.00    +0.156 A 
ATOM      9  N   UNL     1       0.308   2.440   4.839  0.00  0.00    -0.234 NA
ATOM     10  C   UNL     1       1.429   2.034   4.273  0.00  0.00    +0.141 A 
ATOM     11  C   UNL     1       1.417   1.043   3.310  0.00  0.00    +0.123 A 
BRANCH  11  12
ATOM     12  S   UNL     1       2.920   0.516   2.558  0.00  0.00    +0.057 S 
ATOM     13  O   UNL     1       2.697  -0.806   2.087  0.00  0.00    -0.153 OA
ATOM     14  O   UNL     1       3.964   0.834   3.468  0.00  0.00    -0.153 OA
BRANCH  12  15
ATOM     15  N   UNL     1       3.155   1.461   1.218  0.00  0.00    -0.203 NA
ATOM     16  H   UNL     1       4.088   1.162   0.718  0.00  0.00    +0.144 HD
ATOM     17  H   UNL     1       3.224   2.516   1.522  0.00  0.00    +0.144 HD
ENDBRANCH  12  15
ENDBRANCH  11  12
ENDBRANCH   1   8
BRANCH   4  18
ATOM     18  C   UNL     1      -5.469   1.950   6.340  0.00  0.00    +0.437 C 
ATOM     19  F   UNL     1      -5.650   0.599   6.027  0.00  0.00    -0.164 F 
ATOM     20  F   UNL     1      -5.649   2.139   7.715  0.00  0.00    -0.164 F 
ATOM     21  F   UNL     1      -6.401   2.721   5.637  0.00  0.00    -0.164 F 
ENDBRANCH   4  18
BRANCH   3  22
ATOM     22  C   UNL     1      -4.114   4.742   6.872  0.00  0.00    +0.105 C 
ATOM     23  N   UNL     1      -4.607   5.619   7.401  0.00  0.00    -0.191 NA
ENDBRANCH   3  22
BRANCH   2  24
ATOM     24  N   UNL     1      -1.274   4.626   5.726  0.00  0.00    -0.325 N 
ATOM     25  H   UNL     1      -0.870   5.221   4.894  0.00  0.00    +0.148 HD
BRANCH  24  26
ATOM     26  C   UNL     1      -0.825   4.884   7.100  0.00  0.00    +0.075 C 
ATOM     27  C   UNL     1       0.006   3.693   7.628  0.00  0.00    +0.026 C 
ATOM     28  C   UNL     1       1.412   4.295   7.930  0.00  0.00    -0.009 C 
ATOM     29  C   UNL     1       2.023   4.584   6.525  0.00  0.00    +0.004 C 
ATOM     30  C   UNL     1       1.198   5.771   5.977  0.00  0.00    +0.005 C 
ATOM     31  C   UNL     1       0.158   6.095   7.132  0.00  0.00    +0.010 C 
ATOM     32  C   UNL     1       1.014   5.739   8.399  0.00  0.00    +0.009 C 
ENDBRANCH  24  26
ENDBRANCH   2  24
TORSDOF 7
