REMARK  Name = ZINC40034802
REMARK  12 active torsions:
REMARK  status: ('A' for Active; 'I' for Inactive)
REMARK    1  A    between atoms: C_1  and  C_2
REMARK    2  A    between atoms: C_5  and  N_8
REMARK    3  A    between atoms: N_15  and  N_16
REMARK    4  A    between atoms: C_17  and  C_18
REMARK    5  A    between atoms: C_20  and  O_28
REMARK    6  A    between atoms: C_21  and  O_26
REMARK    7  A    between atoms: C_22  and  O_24
REMARK    8  A    between atoms: O_24  and  C_25
REMARK    9  A    between atoms: O_26  and  C_27
REMARK   10  A    between atoms: O_28  and  C_29
REMARK   11  A    between atoms: C_37  and  C_38
REMARK   12  A    between atoms: C_37  and  C_39
REMARK                            x       y       z     vdW  Elec       q    Type
REMARK                         _______ _______ _______ _____ _____    ______ ____
ROOT
ATOM      1  N   UNL     1      -0.633  -4.438  -0.153  0.00  0.00    -0.248 N 
ATOM      2  C   UNL     1      -0.231  -4.991   1.012  0.00  0.00    +0.264 A 
ATOM      3  O   UNL     1       0.049  -4.290   1.970  0.00  0.00    -0.267 OA
ATOM      4  C   UNL     1      -0.144  -6.386   1.097  0.00  0.00    +0.049 A 
ATOM      5  C   UNL     1      -0.474  -7.147  -0.016  0.00  0.00    +0.084 A 
ATOM      6  N   UNL     1      -0.859  -6.545  -1.146  0.00  0.00    -0.214 NA
ATOM      7  C   UNL     1      -0.944  -5.232  -1.219  0.00  0.00    +0.223 A 
ATOM      8  N   UNL     1      -1.350  -4.650  -2.392  0.00  0.00    -0.206 N 
ATOM      9  C   UNL     1      -0.397  -8.622   0.077  0.00  0.00    +0.004 A 
ATOM     10  C   UNL     1      -0.345  -9.409  -1.069  0.00  0.00    +0.010 A 
ATOM     11  C   UNL     1      -0.268 -10.783  -0.953  0.00  0.00    +0.001 A 
ATOM     12  C   UNL     1      -0.244 -11.373   0.299  0.00  0.00    +0.000 A 
ATOM     13  C   UNL     1      -0.299 -10.594   1.441  0.00  0.00    +0.004 A 
ATOM     14  C   UNL     1      -0.378  -9.220   1.338  0.00  0.00    -0.037 A 
ATOM     15  C   UNL     1      -0.450  -8.367   2.575  0.00  0.00    +0.047 C 
ATOM     16  C   UNL     1       0.301  -7.055   2.367  0.00  0.00    +0.001 C 
ATOM     17  C   UNL     1       1.802  -7.340   2.287  0.00  0.00    +0.016 C 
ATOM     18  C   UNL     1       0.028  -6.123   3.550  0.00  0.00    +0.016 C 
ATOM     19  H   UNL     1      -1.476  -3.690  -2.439  0.00  0.00    +0.177 HD
ENDROOT
BRANCH   1  24
ATOM     20  C   UNL     1      -1.048   1.202  -0.612  0.00  0.00    +0.044 C 
ATOM     21  C   UNL     1      -0.938  -0.296  -0.490  0.00  0.00    -0.050 A 
ATOM     22  C   UNL     1      -2.051  -1.045  -0.156  0.00  0.00    +0.005 A 
ATOM     23  C   UNL     1      -1.954  -2.418  -0.044  0.00  0.00    +0.026 A 
ATOM     24  C   UNL     1      -0.735  -3.046  -0.267  0.00  0.00    +0.053 A 
ATOM     25  C   UNL     1       0.381  -2.291  -0.602  0.00  0.00    +0.026 A 
ATOM     26  C   UNL     1       0.275  -0.919  -0.718  0.00  0.00    +0.005 A 
ENDBRANCH   1  24
BRANCH   8  27
ATOM     27  N   UNL     1      -1.582  -5.444  -3.523  0.00  0.00    -0.188 NA
ATOM     28  C   UNL     1      -1.966  -4.893  -4.634  0.00  0.00    +0.138 C 
BRANCH  28  29
ATOM     29  C   UNL     1      -2.211  -5.727  -5.824  0.00  0.00    +0.002 A 
ATOM     30  C   UNL     1      -2.035  -7.112  -5.757  0.00  0.00    +0.059 A 
ATOM     31  C   UNL     1      -2.266  -7.892  -6.875  0.00  0.00    +0.166 A 
ATOM     32  C   UNL     1      -2.672  -7.300  -8.067  0.00  0.00    +0.204 A 
ATOM     33  C   UNL     1      -2.848  -5.921  -8.137  0.00  0.00    +0.166 A 
ATOM     34  C   UNL     1      -2.624  -5.136  -7.021  0.00  0.00    +0.059 A 
BRANCH  33  35
ATOM     35  O   UNL     1      -3.245  -5.346  -9.304  0.00  0.00    -0.491 OA
ATOM     36  C   UNL     1      -3.405  -3.926  -9.305  0.00  0.00    +0.277 C 
ENDBRANCH  33  35
BRANCH  32  37
ATOM     37  O   UNL     1      -2.898  -8.070  -9.165  0.00  0.00    -0.488 OA
ATOM     38  C   UNL     1      -4.223  -8.575  -9.342  0.00  0.00    +0.277 C 
ENDBRANCH  32  37
BRANCH  31  39
ATOM     39  O   UNL     1      -2.095  -9.240  -6.810  0.00  0.00    -0.491 OA
ATOM     40  C   UNL     1      -1.676  -9.781  -5.556  0.00  0.00    +0.277 C 
ENDBRANCH  31  39
ENDBRANCH  28  29
ENDBRANCH   8  27
TORSDOF 6
