REMARK  Name = ZINC12985064
REMARK  6 active torsions:
REMARK  status: ('A' for Active; 'I' for Inactive)
REMARK    1  A    between atoms: C_1  and  C_2
REMARK    2  A    between atoms: C_2  and  C_4
REMARK    3  A    between atoms: C_2  and  N_17
REMARK    4  A    between atoms: N_6  and  C_7
REMARK    5  A    between atoms: C_9  and  N_14
REMARK    6  A    between atoms: C_23  and  C_25
REMARK                            x       y       z     vdW  Elec       q    Type
REMARK                         _______ _______ _______ _____ _____    ______ ____
ROOT
ATOM      1  C   UNL     1      -0.414   1.417   0.120  0.00  0.00    +0.234 C 
ATOM      2  O   UNL     1      -1.587   1.721   0.064  0.00  0.00    -0.274 OA
ATOM      3  N   UNL     1       0.519   2.368   0.328  0.00  0.00    -0.283 N 
ATOM      4  H   UNL     1       1.461   2.137   0.303  0.00  0.00    +0.155 HD
ENDROOT
BRANCH   3   5
ATOM      5  C   UNL     1       0.129   3.688   0.579  0.00  0.00    +0.054 A 
ATOM      6  C   UNL     1      -1.008   4.205  -0.027  0.00  0.00    +0.057 A 
ATOM      7  C   UNL     1      -1.391   5.509   0.223  0.00  0.00    +0.128 A 
ATOM      8  C   UNL     1      -0.643   6.299   1.077  0.00  0.00    +0.034 A 
ATOM      9  C   UNL     1       0.490   5.788   1.683  0.00  0.00    +0.024 A 
ATOM     10  C   UNL     1       0.875   4.483   1.441  0.00  0.00    +0.062 A 
ATOM     11 CL   UNL     1       2.294   3.839   2.208  0.00  0.00    -0.082 Cl
BRANCH   7  12
ATOM     12  N   UNL     1      -2.602   6.061  -0.423  0.00  0.00    +0.056 N 
ATOM     13  O   UNL     1      -3.256   5.370  -1.170  0.00  0.00    -0.126 OA
ATOM     14  O   UNL     1      -2.938   7.201  -0.205  0.00  0.00    -0.126 OA
ENDBRANCH   7  12
ENDBRANCH   3   5
BRANCH   1  16
ATOM     15  C   UNL     1       0.794  -0.180  -1.342  0.00  0.00    +0.034 C 
ATOM     16  C   UNL     1       0.001  -0.022  -0.044  0.00  0.00    +0.140 C 
BRANCH  16  17
ATOM     17  N   UNL     1      -1.195  -0.873  -0.094  0.00  0.00    -0.289 NA
ATOM     18  C   UNL     1      -0.846  -2.286   0.109  0.00  0.00    +0.104 C 
ATOM     19  C   UNL     1      -2.129  -3.114   0.230  0.00  0.00    +0.123 C 
ATOM     20  N   UNL     1      -2.972  -2.845  -0.945  0.00  0.00    -0.299 N 
ATOM     21  C   UNL     1      -3.254  -1.444  -1.292  0.00  0.00    +0.123 C 
ATOM     22  C   UNL     1      -1.926  -0.681  -1.354  0.00  0.00    +0.104 C 
ATOM     23  C   UNL     1      -3.473  -3.855  -1.683  0.00  0.00    +0.219 C 
ATOM     24  O   UNL     1      -3.231  -5.004  -1.381  0.00  0.00    -0.275 OA
BRANCH  23  25
ATOM     25  C   UNL     1      -4.335  -3.556  -2.882  0.00  0.00    +0.075 C 
ATOM     26  C   UNL     1      -5.817  -3.925  -2.797  0.00  0.00    +0.013 C 
ATOM     27  C   UNL     1      -4.874  -4.746  -3.679  0.00  0.00    +0.013 C 
ENDBRANCH  23  25
ENDBRANCH  16  17
ENDBRANCH   1  16
TORSDOF 5
