REMARK  Name = ZINC67632279
REMARK  11 active torsions:
REMARK  status: ('A' for Active; 'I' for Inactive)
REMARK    1  A    between atoms: C_1  and  C_2
REMARK    2  A    between atoms: C_2  and  C_3
REMARK    3  A    between atoms: C_2  and  C_4
REMARK    4  A    between atoms: C_2  and  O_5
REMARK    5  A    between atoms: O_5  and  C_6
REMARK    6  A    between atoms: N_8  and  C_9
REMARK    7  A    between atoms: C_12  and  O_15
REMARK    8  A    between atoms: O_15  and  C_16
REMARK    9  A    between atoms: C_16  and  C_18
REMARK   10  A    between atoms: C_24  and  O_26
REMARK   11  A    between atoms: O_26  and  C_27
REMARK                            x       y       z     vdW  Elec       q    Type
REMARK                         _______ _______ _______ _____ _____    ______ ____
ROOT
ATOM      1  C   UNL     1       4.035  -0.071  -2.601  0.00  0.00    +0.076 C 
ATOM      2  C   UNL     1       4.953  -1.035  -1.847  0.00  0.00    +0.026 C 
ATOM      3  C   UNL     1       6.409  -0.603  -2.032  0.00  0.00    +0.046 C 
ATOM      4  C   UNL     1       6.761  -0.624  -3.521  0.00  0.00    +0.177 C 
ATOM      5  C   UNL     1       5.843   0.340  -4.275  0.00  0.00    +0.046 C 
ATOM      6  C   UNL     1       4.388  -0.092  -4.090  0.00  0.00    +0.026 C 
ENDROOT
BRANCH   1   9
ATOM      7  C   UNL     1       1.952  -0.085  -1.337  0.00  0.00    +0.401 C 
ATOM      8  O   UNL     1       2.488   0.619  -0.503  0.00  0.00    -0.226 OA
ATOM      9  N   UNL     1       2.641  -0.485  -2.424  0.00  0.00    -0.278 N 
ATOM     10  H   UNL     1       2.213  -1.047  -3.089  0.00  0.00    +0.152 HD
BRANCH   7  11
ATOM     11  O   UNL     1       0.671  -0.465  -1.174  0.00  0.00    -0.445 OA
BRANCH  11  13
ATOM     12  C   UNL     1      -0.019   1.526   0.010  0.00  0.00    +0.055 C 
ATOM     13  C   UNL     1       0.002  -0.004   0.002  0.00  0.00    +0.107 C 
ATOM     14  C   UNL     1       0.742  -0.511   1.242  0.00  0.00    +0.055 C 
ATOM     15  C   UNL     1      -1.433  -0.534   0.013  0.00  0.00    +0.055 C 
ENDBRANCH  11  13
ENDBRANCH   7  11
ENDBRANCH   1   9
BRANCH   4  16
ATOM     16  O   UNL     1       8.121  -0.220  -3.693  0.00  0.00    -0.460 OA
BRANCH  16  17
ATOM     17  C   UNL     1       8.781  -0.736  -4.743  0.00  0.00    +0.328 C 
ATOM     18  O   UNL     1       8.223  -1.504  -5.489  0.00  0.00    -0.249 OA
BRANCH  17  19
ATOM     19  C   UNL     1      10.219  -0.356  -4.989  0.00  0.00    +0.188 C 
ATOM     20  C   UNL     1      11.160  -1.198  -4.092  0.00  0.00    +0.035 C 
ATOM     21  C   UNL     1      12.485  -1.147  -4.897  0.00  0.00    +0.021 C 
ATOM     22  C   UNL     1      12.001  -1.171  -6.362  0.00  0.00    +0.112 C 
ATOM     23  N   UNL     1      10.609  -0.694  -6.370  0.00  0.00    -0.254 N 
ATOM     24  C   UNL     1       9.820  -0.585  -7.458  0.00  0.00    +0.403 C 
ATOM     25  O   UNL     1       8.681  -0.179  -7.344  0.00  0.00    -0.226 OA
BRANCH  24  26
ATOM     26  O   UNL     1      10.296  -0.927  -8.671  0.00  0.00    -0.454 OA
ATOM     27  C   UNL     1       9.405  -0.786  -9.779  0.00  0.00    +0.282 C 
ENDBRANCH  24  26
ENDBRANCH  17  19
ENDBRANCH  16  17
ENDBRANCH   4  16
TORSDOF 7
