REMARK  Name = ZINC52941155
REMARK  9 active torsions:
REMARK  status: ('A' for Active; 'I' for Inactive)
REMARK    1  A    between atoms: C_1  and  C_2
REMARK    2  A    between atoms: C_4  and  C_25
REMARK    3  A    between atoms: C_5  and  N_9
REMARK    4  A    between atoms: C_6  and  C_8
REMARK    5  A    between atoms: C_10  and  C_12
REMARK    6  A    between atoms: C_12  and  C_14
REMARK    7  A    between atoms: C_12  and  N_15
REMARK    8  A    between atoms: C_18  and  C_21
REMARK    9  A    between atoms: C_21  and  C_22
REMARK                            x       y       z     vdW  Elec       q    Type
REMARK                         _______ _______ _______ _____ _____    ______ ____
ROOT
ATOM      1  C   UNL     1       0.129  -6.698   1.148  0.00  0.00    +0.016 C 
ATOM      2  C   UNL     1      -1.237  -7.362   0.968  0.00  0.00    -0.004 C 
ENDROOT
BRANCH   1   3
ATOM      3  N   UNL     1       0.726  -7.141   2.415  0.00  0.00    +0.387 N 
ATOM      4  C   UNL     1       2.078  -6.581   2.539  0.00  0.00    -0.078 C 
ATOM      5  C   UNL     1       2.673  -6.973   3.893  0.00  0.00    -0.015 C 
ATOM      6  C   UNL     1       2.740  -8.499   3.993  0.00  0.00    -0.006 C 
ATOM      7  C   UNL     1       1.337  -9.076   3.788  0.00  0.00    -0.015 C 
ATOM      8  C   UNL     1       0.790  -8.607   2.438  0.00  0.00    -0.078 C 
ATOM      9  H   UNL     1       0.159  -6.818   3.184  0.00  0.00    -0.081 HD
BRANCH   6  10
ATOM     10  C   UNL     1       3.260  -8.899   5.375  0.00  0.00    +0.099 C 
BRANCH  10  11
ATOM     11  C   UNL     1       3.442 -10.394   5.431  0.00  0.00    +0.211 C 
ATOM     12  O   UNL     1       3.181 -11.073   4.460  0.00  0.00    -0.276 OA
ATOM     13  N   UNL     1       3.895 -10.977   6.559  0.00  0.00    -0.329 N 
ATOM     14  H   UNL     1       4.104 -10.434   7.335  0.00  0.00    +0.145 HD
ATOM     15  H   UNL     1       4.012 -11.939   6.594  0.00  0.00    +0.145 HD
ENDBRANCH  10  11
ENDBRANCH   6  10
ENDBRANCH   1   3
BRANCH   1  17
ATOM     16  N   UNL     1      -0.291  -4.536   0.023  0.00  0.00    -0.286 N 
ATOM     17  C   UNL     1      -0.039  -5.201   1.168  0.00  0.00    +0.203 C 
ATOM     18  O   UNL     1       0.053  -4.594   2.214  0.00  0.00    -0.277 OA
ATOM     19  H   UNL     1      -0.430  -5.026  -0.802  0.00  0.00    +0.155 HD
BRANCH  16  24
ATOM     20  C   UNL     1      -0.544   1.132   0.030  0.00  0.00    +0.044 C 
ATOM     21  C   UNL     1      -0.477  -0.374   0.029  0.00  0.00    -0.050 A 
ATOM     22  C   UNL     1       0.408  -1.024  -0.812  0.00  0.00    +0.008 A 
ATOM     23  C   UNL     1       0.472  -2.403  -0.816  0.00  0.00    -0.029 A 
ATOM     24  C   UNL     1      -0.353  -3.138   0.025  0.00  0.00    +0.039 A 
ATOM     25  C   UNL     1      -1.241  -2.482   0.868  0.00  0.00    -0.029 A 
ATOM     26  C   UNL     1      -1.297  -1.102   0.871  0.00  0.00    +0.008 A 
ATOM     27  C   UNL     1      -2.139  -3.275   1.782  0.00  0.00    +0.045 C 
ATOM     28  C   UNL     1       1.437  -3.111  -1.732  0.00  0.00    +0.045 C 
ENDBRANCH  16  24
ENDBRANCH   1  17
TORSDOF 5
