REMARK  Name = ZINC05106247
REMARK  6 active torsions:
REMARK  status: ('A' for Active; 'I' for Inactive)
REMARK    1  A    between atoms: C_1  and  C_2
REMARK    2  A    between atoms: C_7  and  N_8
REMARK    3  A    between atoms: C_22  and  S_23
REMARK    4  A    between atoms: S_23  and  C_24
REMARK    5  A    between atoms: C_24  and  C_26
REMARK    6  A    between atoms: C_24  and  C_27
REMARK                            x       y       z     vdW  Elec       q    Type
REMARK                         _______ _______ _______ _____ _____    ______ ____
ROOT
ATOM      1  N   UNL     1       2.694   5.960   0.008  0.00  0.00    -0.254 N 
ATOM      2  C   UNL     1       3.496   4.874  -0.006  0.00  0.00    +0.283 A 
ATOM      3  O   UNL     1       4.710   4.997  -0.018  0.00  0.00    -0.265 OA
ATOM      4  C   UNL     1       2.902   3.595  -0.007  0.00  0.00    +0.132 A 
ATOM      5  C   UNL     1       1.511   3.507   0.007  0.00  0.00    +0.104 A 
ATOM      6  C   UNL     1       1.184   2.074   0.002  0.00  0.00    +0.026 A 
ATOM      7  C   UNL     1      -0.017   1.362   0.009  0.00  0.00    +0.012 A 
ATOM      8  C   UNL     1       0.002  -0.004   0.002  0.00  0.00    +0.001 A 
ATOM      9  C   UNL     1       1.208  -0.691  -0.014  0.00  0.00    +0.002 A 
ATOM     10  C   UNL     1       2.404  -0.009  -0.022  0.00  0.00    +0.026 A 
ATOM     11  C   UNL     1       2.408   1.384  -0.014  0.00  0.00    +0.049 A 
ATOM     12  N   UNL     1       3.427   2.312  -0.019  0.00  0.00    -0.349 N 
ATOM     13  H   UNL     1       4.374   2.099  -0.030  0.00  0.00    +0.166 HD
ATOM     14  N   UNL     1       0.771   4.627   0.020  0.00  0.00    -0.221 NA
ATOM     15  C   UNL     1       1.335   5.814   0.021  0.00  0.00    +0.178 A 
ENDROOT
BRANCH   1  22
ATOM     16  C   UNL     1       3.209   7.205  -2.499  0.00  0.00    +0.046 C 
ATOM     17  C   UNL     1       3.524   7.886  -1.192  0.00  0.00    -0.026 A 
ATOM     18  C   UNL     1       4.078   9.151  -1.188  0.00  0.00    +0.005 A 
ATOM     19  C   UNL     1       4.367   9.777   0.011  0.00  0.00    +0.000 A 
ATOM     20  C   UNL     1       4.103   9.138   1.209  0.00  0.00    +0.002 A 
ATOM     21  C   UNL     1       3.543   7.876   1.211  0.00  0.00    +0.026 A 
ATOM     22  C   UNL     1       3.256   7.242   0.009  0.00  0.00    +0.055 A 
ENDBRANCH   1  22
BRANCH  15  23
ATOM     23  S   UNL     1       0.316   7.251   0.038  0.00  0.00    -0.073 S 
BRANCH  23  24
ATOM     24  C   UNL     1      -1.320   6.476   0.051  0.00  0.00    +0.164 C 
ATOM     25  C   UNL     1      -1.533   5.713  -1.259  0.00  0.00    +0.031 C 
BRANCH  24  26
ATOM     26  C   UNL     1      -2.378   7.539   0.191  0.00  0.00    +0.369 C 
ATOM     27  O   UNL     1      -2.150   8.670  -0.169  0.00  0.00    -0.245 OA
ATOM     28  O   UNL     1      -3.575   7.230   0.715  0.00  0.00    -0.245 OA
ENDBRANCH  24  26
ENDBRANCH  23  24
ENDBRANCH  15  23
TORSDOF 4
