REMARK  Name = ZINC25445716
REMARK  6 active torsions:
REMARK  status: ('A' for Active; 'I' for Inactive)
REMARK    1  A    between atoms: C_3  and  C_6
REMARK    2  A    between atoms: C_9  and  S_12
REMARK    3  A    between atoms: N_10  and  N_11
REMARK    4  A    between atoms: S_12  and  C_13
REMARK    5  A    between atoms: C_13  and  C_14
REMARK    6  A    between atoms: N_19  and  C_22
REMARK                            x       y       z     vdW  Elec       q    Type
REMARK                         _______ _______ _______ _____ _____    ______ ____
ROOT
ATOM      1  C   UNL     1      -1.271   3.571   0.073  0.00  0.00    +0.173 C 
ENDROOT
BRANCH   1   2
ATOM      2  C   UNL     1      -1.227   2.066   0.018  0.00  0.00    +0.226 C 
ATOM      3  O   UNL     1      -2.259   1.430  -0.019  0.00  0.00    -0.275 OA
ATOM      4  N   UNL     1      -0.040   1.427   0.009  0.00  0.00    -0.298 N 
ATOM      5  C   UNL     1       1.223   2.179   0.047  0.00  0.00    +0.123 C 
ATOM      6  C   UNL     1       2.098   1.605   1.166  0.00  0.00    +0.103 C 
ATOM      7  N   UNL     1       2.244   0.155   0.974  0.00  0.00    -0.295 NA
ATOM      8  C   UNL     1       0.948  -0.529   1.078  0.00  0.00    +0.103 C 
ATOM      9  C   UNL     1       0.026  -0.042  -0.044  0.00  0.00    +0.123 C 
BRANCH   7  10
ATOM     10  C   UNL     1       3.214  -0.407   1.924  0.00  0.00    +0.079 C 
ATOM     11  C   UNL     1       4.550   0.345   1.807  0.00  0.00    +0.043 C 
ATOM     12  C   UNL     1       5.659  -0.431   2.557  0.00  0.00    +0.167 C 
ATOM     13  S   UNL     1       5.076  -2.172   2.451  0.00  0.00    -0.029 S 
ATOM     14  O   UNL     1       4.821  -2.655   3.763  0.00  0.00    -0.174 OA
ATOM     15  O   UNL     1       5.944  -2.901   1.594  0.00  0.00    -0.174 OA
ATOM     16  C   UNL     1       3.470  -1.904   1.589  0.00  0.00    +0.184 C 
ENDBRANCH   7  10
ENDBRANCH   1   2
BRANCH   1  17
ATOM     17  S   UNL     1      -2.995   4.124   0.072  0.00  0.00    -0.075 S 
BRANCH  17  21
ATOM     18  C   UNL     1      -3.079   8.030   0.216  0.00  0.00    +0.188 A 
ATOM     19  N   UNL     1      -1.791   7.767   0.223  0.00  0.00    -0.126 NA
ATOM     20  N   UNL     1      -1.603   6.496   0.183  0.00  0.00    -0.121 NA
ATOM     21  C   UNL     1      -2.756   5.869   0.140  0.00  0.00    +0.209 A 
ATOM     22  N   UNL     1      -3.737   6.821   0.162  0.00  0.00    -0.223 N 
BRANCH  18  25
ATOM     23  C   UNL     1      -3.925  11.699   0.553  0.00  0.00    +0.008 A 
ATOM     24  C   UNL     1      -3.137  10.570   0.586  0.00  0.00    +0.019 A 
ATOM     25  C   UNL     1      -3.701   9.363   0.258  0.00  0.00    +0.058 A 
ATOM     26  S   UNL     1      -5.383   9.833  -0.113  0.00  0.00    -0.093 S 
ATOM     27  C   UNL     1      -5.231  11.584   0.199  0.00  0.00    +0.046 A 
ENDBRANCH  18  25
BRANCH  22  28
ATOM     28  N   UNL     1      -5.088   6.616   0.138  0.00  0.00    -0.295 N 
ATOM     29  H   UNL     1      -5.488   5.592   0.094  0.00  0.00    +0.163 HD
ATOM     30  H   UNL     1      -5.775   7.474   0.161  0.00  0.00    +0.163 HD
ENDBRANCH  22  28
ENDBRANCH  17  21
ENDBRANCH   1  17
TORSDOF 6
