REMARK  Name = ZINC65258678
REMARK  5 active torsions:
REMARK  status: ('A' for Active; 'I' for Inactive)
REMARK    1  A    between atoms: C_3  and  O_22
REMARK    2  A    between atoms: C_6  and  N_7
REMARK    3  A    between atoms: N_7  and  S_8
REMARK    4  A    between atoms: S_8  and  C_11
REMARK    5  A    between atoms: O_22  and  C_23
REMARK                            x       y       z     vdW  Elec       q    Type
REMARK                         _______ _______ _______ _____ _____    ______ ____
ROOT
ATOM      1  S   UNL     1      -1.177  -2.376   0.001  0.00  0.00    +0.093 S 
ATOM      2  O   UNL     1      -0.633  -2.768  -1.252  0.00  0.00    -0.148 OA
ATOM      3  O   UNL     1      -0.608  -2.781   1.239  0.00  0.00    -0.148 OA
ENDROOT
BRANCH   1   4
ATOM      4  C   UNL     1      -2.853  -2.921   0.015  0.00  0.00    +0.128 A 
ATOM      5  C   UNL     1      -3.628  -3.176   1.155  0.00  0.00    +0.061 A 
ATOM      6  C   UNL     1      -4.856  -3.573   0.712  0.00  0.00    +0.106 A 
ATOM      7  N   UNL     1      -4.845  -3.569  -0.668  0.00  0.00    -0.341 N 
ATOM      8  C   UNL     1      -3.623  -3.162  -1.077  0.00  0.00    +0.115 A 
ATOM      9  C   UNL     1      -5.995  -3.950  -1.487  0.00  0.00    +0.123 C 
ATOM     10  C   UNL     1      -6.222  -5.465  -1.394  0.00  0.00    +0.040 C 
ATOM     11  C   UNL     1      -6.052  -5.923   0.053  0.00  0.00    +0.106 C 
ATOM     12  N   UNL     1      -6.710  -5.056   1.018  0.00  0.00    -0.310 N 
ATOM     13  C   UNL     1      -6.057  -3.960   1.476  0.00  0.00    +0.261 C 
ATOM     14  O   UNL     1      -6.435  -3.338   2.452  0.00  0.00    -0.269 OA
ATOM     15  H   UNL     1      -7.606  -5.259   1.329  0.00  0.00    +0.149 HD
ENDBRANCH   1   4
BRANCH   1  16
ATOM     16  N   UNL     1      -1.200  -0.721   0.010  0.00  0.00    -0.098 NA
BRANCH  16  22
ATOM     17  C   UNL     1      -0.017   1.384   0.010  0.00  0.00    +0.030 A 
ATOM     18  C   UNL     1       1.170   2.091   0.002  0.00  0.00    +0.048 A 
ATOM     19  C   UNL     1       2.380   1.414  -0.013  0.00  0.00    +0.130 A 
ATOM     20  C   UNL     1       2.400   0.027  -0.021  0.00  0.00    +0.048 A 
ATOM     21  C   UNL     1       1.214  -0.681  -0.013  0.00  0.00    +0.030 A 
ATOM     22  C   UNL     1       0.002  -0.004   0.002  0.00  0.00    +0.075 A 
BRANCH  19  23
ATOM     23  O   UNL     1       3.549   2.110  -0.021  0.00  0.00    -0.406 OA
BRANCH  23  24
ATOM     24  C   UNL     1       4.758   1.349  -0.036  0.00  0.00    +0.575 C 
ATOM     25  F   UNL     1       4.790   0.548  -1.183  0.00  0.00    -0.133 F 
ATOM     26  F   UNL     1       5.855   2.216  -0.043  0.00  0.00    -0.133 F 
ATOM     27  F   UNL     1       4.812   0.536   1.101  0.00  0.00    -0.133 F 
ENDBRANCH  23  24
ENDBRANCH  19  23
ENDBRANCH  16  22
ENDBRANCH   1  16
TORSDOF 5
