REMARK  Name = ZINC39663302
REMARK  7 active torsions:
REMARK  status: ('A' for Active; 'I' for Inactive)
REMARK    1  A    between atoms: C_1  and  C_2
REMARK    2  A    between atoms: C_2  and  C_3
REMARK    3  A    between atoms: C_3  and  C_5
REMARK    4  A    between atoms: C_3  and  C_6
REMARK    5  A    between atoms: C_6  and  C_7
REMARK    6  A    between atoms: C_11  and  C_20
REMARK    7  A    between atoms: N_22  and  C_23
REMARK                            x       y       z     vdW  Elec       q    Type
REMARK                         _______ _______ _______ _____ _____    ______ ____
ROOT
ATOM      1  C   UNL     1      -2.952  -2.581  -0.269  0.00  0.00    +0.216 C 
ATOM      2  O   UNL     1      -3.898  -1.826  -0.205  0.00  0.00    -0.276 OA
ATOM      3  N   UNL     1      -3.156  -3.910  -0.369  0.00  0.00    -0.300 N 
ATOM      4  C   UNL     1      -2.136  -4.982  -0.451  0.00  0.00    +0.121 C 
ATOM      5  C   UNL     1      -2.705  -6.129   0.413  0.00  0.00    +0.100 C 
ATOM      6  C   UNL     1      -4.224  -5.893   0.427  0.00  0.00    -0.004 C 
ATOM      7  C   UNL     1      -4.451  -4.629  -0.415  0.00  0.00    +0.115 C 
ATOM      8  C   UNL     1      -4.710  -5.662   1.855  0.00  0.00    -0.010 C 
ATOM      9  C   UNL     1      -6.231  -5.487   1.850  0.00  0.00    -0.082 C 
ATOM     10  N   UNL     1      -6.862  -6.686   1.285  0.00  0.00    +0.379 N 
ATOM     11  C   UNL     1      -6.462  -6.849  -0.118  0.00  0.00    -0.082 C 
ATOM     12  C   UNL     1      -4.950  -7.082  -0.196  0.00  0.00    -0.010 C 
ATOM     13  H   UNL     1      -6.573  -7.497   1.812  0.00  0.00    -0.086 HD
ATOM     14  H   UNL     1      -7.865  -6.594   1.339  0.00  0.00    -0.086 HD
ENDROOT
BRANCH   5  15
ATOM     15  C   UNL     1      -2.385  -7.464  -0.210  0.00  0.00    +0.218 C 
ATOM     16  O   UNL     1      -2.305  -7.566  -1.416  0.00  0.00    -0.275 OA
ATOM     17  N   UNL     1      -2.188  -8.543   0.573  0.00  0.00    -0.314 N 
ATOM     18  H   UNL     1      -2.252  -8.461   1.537  0.00  0.00    +0.149 HD
BRANCH  17  19
ATOM     19  C   UNL     1      -1.876  -9.840  -0.033  0.00  0.00    +0.059 C 
ATOM     20  C   UNL     1      -3.175 -10.550  -0.420  0.00  0.00    -0.056 C 
ATOM     21  N   UNL     1      -3.282 -11.825   0.292  0.00  0.00    +0.381 N 
ATOM     22  C   UNL     1      -2.173 -12.712  -0.069  0.00  0.00    -0.078 C 
ATOM     23  C   UNL     1      -0.841 -12.074   0.330  0.00  0.00    -0.014 C 
ATOM     24  C   UNL     1      -1.116 -10.710   0.977  0.00  0.00    +0.004 C 
ATOM     25  C   UNL     1      -2.016 -10.931   2.200  0.00  0.00    -0.014 C 
ATOM     26  C   UNL     1      -3.317 -11.606   1.740  0.00  0.00    -0.078 C 
ATOM     27  H   UNL     1      -4.143 -12.274   0.017  0.00  0.00    -0.082 HD
ENDBRANCH  17  19
ENDBRANCH   5  15
BRANCH   1  28
ATOM     28  C   UNL     1      -1.548  -2.035  -0.237  0.00  0.00    +0.099 C 
BRANCH  28  29
ATOM     29  C   UNL     1      -1.596  -0.510  -0.121  0.00  0.00    -0.006 C 
ATOM     30  C   UNL     1      -2.212  -0.121   1.224  0.00  0.00    +0.008 C 
BRANCH  29  32
ATOM     31  C   UNL     1      -0.235   1.583  -0.223  0.00  0.00    +0.004 C 
ATOM     32  C   UNL     1      -0.177   0.054  -0.214  0.00  0.00    +0.000 C 
ENDBRANCH  29  32
ENDBRANCH  28  29
ENDBRANCH   1  28
TORSDOF 5
