REMARK  Name = ZINC17215964
REMARK  11 active torsions:
REMARK  status: ('A' for Active; 'I' for Inactive)
REMARK    1  A    between atoms: C_1  and  C_2
REMARK    2  A    between atoms: C_2  and  N_62
REMARK    3  A    between atoms: C_3  and  C_4
REMARK    4  A    between atoms: C_3  and  N_62
REMARK    5  A    between atoms: C_5  and  N_62
REMARK    6  A    between atoms: C_13  and  C_23
REMARK    7  A    between atoms: C_25  and  O_32
REMARK    8  A    between atoms: C_26  and  O_31
REMARK    9  A    between atoms: C_27  and  O_29
REMARK   10  A    between atoms: O_29  and  C_30
REMARK   11  A    between atoms: O_32  and  C_33
REMARK                            x       y       z     vdW  Elec       q    Type
REMARK                         _______ _______ _______ _____ _____    ______ ____
ROOT
ATOM      1  C   UNL     1      -2.517   4.127   0.320  0.00  0.00    -0.007 C 
ATOM      2  C   UNL     1      -1.280   3.255   0.385  0.00  0.00    -0.051 A 
ATOM      3  C   UNL     1      -0.054   3.869   0.165  0.00  0.00    +0.052 A 
ATOM      4  C   UNL     1       1.118   3.139   0.223  0.00  0.00    +0.166 A 
ATOM      5  C   UNL     1       1.067   1.776   0.505  0.00  0.00    +0.167 A 
ATOM      6  C   UNL     1      -0.156   1.168   0.720  0.00  0.00    +0.054 A 
ATOM      7  C   UNL     1      -1.333   1.904   0.651  0.00  0.00    -0.034 A 
ATOM      8  C   UNL     1      -2.632   1.162   0.885  0.00  0.00    +0.062 C 
ATOM      9  C   UNL     1      -3.772   2.006   0.341  0.00  0.00    +0.097 C 
ATOM     10  C   UNL     1      -3.651   3.400   1.023  0.00  0.00    +0.121 C 
ATOM     11  O   UNL     1      -4.951   3.956   0.811  0.00  0.00    -0.370 OA
ATOM     12  C   UNL     1      -5.875   2.876   1.081  0.00  0.00    +0.234 C 
ATOM     13  C   UNL     1      -5.142   1.568   0.805  0.00  0.00    +0.165 C 
ATOM     14  O   UNL     1      -5.560   0.442   0.930  0.00  0.00    -0.295 OA
ATOM     15  O   UNL     1       2.340   1.284   0.513  0.00  0.00    -0.453 OA
ATOM     16  C   UNL     1       3.196   2.435   0.635  0.00  0.00    +0.466 C 
ATOM     17  O   UNL     1       2.424   3.499   0.051  0.00  0.00    -0.453 OA
ENDROOT
BRANCH   8  18
ATOM     18  C   UNL     1      -2.595  -0.163   0.168  0.00  0.00    -0.032 A 
ATOM     19  C   UNL     1      -2.516  -0.198  -1.211  0.00  0.00    +0.054 A 
ATOM     20  C   UNL     1      -2.477  -1.415  -1.875  0.00  0.00    +0.165 A 
ATOM     21  C   UNL     1      -2.527  -2.601  -1.151  0.00  0.00    +0.201 A 
ATOM     22  C   UNL     1      -2.612  -2.561   0.235  0.00  0.00    +0.165 A 
ATOM     23  C   UNL     1      -2.646  -1.340   0.891  0.00  0.00    +0.054 A 
BRANCH  22  24
ATOM     24  O   UNL     1      -2.663  -3.719   0.948  0.00  0.00    -0.491 OA
ATOM     25  C   UNL     1      -2.750  -3.602   2.369  0.00  0.00    +0.277 C 
ENDBRANCH  22  24
BRANCH  21  26
ATOM     26  O   UNL     1      -2.494  -3.797  -1.799  0.00  0.00    -0.501 OA
ATOM     27  H   UNL     1      -3.365  -4.139  -2.040  0.00  0.00    +0.292 HD
ENDBRANCH  21  26
BRANCH  20  28
ATOM     28  O   UNL     1      -2.393  -1.449  -3.232  0.00  0.00    -0.491 OA
ATOM     29  C   UNL     1      -2.345  -0.192  -3.910  0.00  0.00    +0.277 C 
ENDBRANCH  20  28
ENDBRANCH   8  18
BRANCH   1  30
ATOM     30  N   UNL     1      -2.892   4.346  -1.093  0.00  0.00    +0.386 N 
ATOM     31  H   UNL     1      -3.346   3.498  -1.452  0.00  0.00    -0.081 HD
BRANCH  30  33
ATOM     32  C   UNL     1      -4.378   5.540  -2.625  0.00  0.00    -0.017 C 
ATOM     33  C   UNL     1      -3.837   5.477  -1.195  0.00  0.00    -0.081 C 
ENDBRANCH  30  33
BRANCH  30  34
ATOM     34  C   UNL     1      -1.683   4.622  -1.898  0.00  0.00    -0.081 C 
ATOM     35  C   UNL     1      -1.100   3.290  -2.375  0.00  0.00    -0.017 C 
ENDBRANCH  30  34
ENDBRANCH   1  30
TORSDOF 7
