REMARK  Name = ZINC12139792
REMARK  7 active torsions:
REMARK  status: ('A' for Active; 'I' for Inactive)
REMARK    1  A    between atoms: C_1  and  O_2
REMARK    2  A    between atoms: O_2  and  C_3
REMARK    3  A    between atoms: C_3  and  C_5
REMARK    4  A    between atoms: C_8  and  C_11
REMARK    5  A    between atoms: C_14  and  C_28
REMARK    6  A    between atoms: C_17  and  C_19
REMARK    7  A    between atoms: C_33  and  O_34
REMARK                            x       y       z     vdW  Elec       q    Type
REMARK                         _______ _______ _______ _____ _____    ______ ____
ROOT
ATOM      1  C   UNL     1      -1.413  -6.381  -0.019  0.00  0.00    +0.081 C 
ATOM      2  N   UNL     1      -2.642  -6.813  -0.694  0.00  0.00    +0.401 N 
ATOM      3  C   UNL     1      -2.613  -8.277  -0.847  0.00  0.00    -0.028 C 
ATOM      4  C   UNL     1      -1.521  -8.633  -1.860  0.00  0.00    +0.044 C 
ATOM      5  C   UNL     1      -0.258  -7.895  -1.512  0.00  0.00    +0.040 C 
ATOM      6  N   UNL     1      -0.236  -6.903  -0.702  0.00  0.00    -0.299 NA
ATOM      7  H   UNL     1      -3.442  -6.546  -0.142  0.00  0.00    -0.081 HD
ATOM      8  H   UNL     1      -2.697  -6.380  -1.604  0.00  0.00    -0.081 HD
ENDROOT
BRANCH   5   9
ATOM      9  C   UNL     1       1.008  -8.331  -2.129  0.00  0.00    -0.001 A 
ATOM     10  C   UNL     1       1.018  -9.405  -3.023  0.00  0.00    +0.013 A 
ATOM     11  C   UNL     1       2.202  -9.811  -3.599  0.00  0.00    +0.050 A 
ATOM     12  C   UNL     1       3.388  -9.155  -3.296  0.00  0.00    +0.166 A 
ATOM     13  C   UNL     1       3.385  -8.082  -2.405  0.00  0.00    +0.167 A 
ATOM     14  C   UNL     1       2.200  -7.667  -1.828  0.00  0.00    +0.059 A 
ATOM     15  O   UNL     1       4.662  -7.617  -2.278  0.00  0.00    -0.453 OA
ATOM     16  C   UNL     1       5.505  -8.671  -2.780  0.00  0.00    +0.466 C 
ATOM     17  O   UNL     1       4.666  -9.360  -3.725  0.00  0.00    -0.453 OA
ENDBRANCH   5   9
BRANCH   1  21
ATOM     18  C   UNL     1      -1.247  -2.108   0.003  0.00  0.00    +0.059 A 
ATOM     19  C   UNL     1      -0.068  -2.856  -0.007  0.00  0.00    +0.015 A 
ATOM     20  C   UNL     1      -0.129  -4.234  -0.014  0.00  0.00    +0.004 A 
ATOM     21  C   UNL     1      -1.354  -4.875  -0.011  0.00  0.00    -0.040 A 
ATOM     22  C   UNL     1      -2.527  -4.141  -0.002  0.00  0.00    +0.004 A 
ATOM     23  C   UNL     1      -2.481  -2.762   0.011  0.00  0.00    +0.015 A 
BRANCH  18  24
ATOM     24  C   UNL     1      -1.190  -0.632   0.010  0.00  0.00    +0.339 C 
ATOM     25  O   UNL     1      -2.217   0.016   0.023  0.00  0.00    -0.245 OA
BRANCH  24  27
ATOM     26  C   UNL     1      -0.017   1.425   0.010  0.00  0.00    +0.280 C 
ATOM     27  O   UNL     1       0.002  -0.004   0.002  0.00  0.00    -0.464 OA
ENDBRANCH  24  27
ENDBRANCH  18  24
ENDBRANCH   1  21
BRANCH   3  28
ATOM     28  C   UNL     1      -3.950  -8.762  -1.348  0.00  0.00    -0.019 A 
ATOM     29  C   UNL     1      -4.767  -7.912  -2.069  0.00  0.00    +0.005 A 
ATOM     30  C   UNL     1      -5.993  -8.356  -2.528  0.00  0.00    +0.000 A 
ATOM     31  C   UNL     1      -6.404  -9.650  -2.267  0.00  0.00    +0.004 A 
ATOM     32  C   UNL     1      -5.591 -10.503  -1.547  0.00  0.00    +0.045 A 
ATOM     33  C   UNL     1      -4.357 -10.062  -1.090  0.00  0.00    +0.118 A 
BRANCH  33  34
ATOM     34  O   UNL     1      -3.553 -10.901  -0.386  0.00  0.00    -0.507 OA
ATOM     35  H   UNL     1      -3.698 -10.876   0.570  0.00  0.00    +0.292 HD
ENDBRANCH  33  34
ENDBRANCH   3  28
TORSDOF 6
