REMARK  Name = ZINC40783459
REMARK  6 active torsions:
REMARK  status: ('A' for Active; 'I' for Inactive)
REMARK    1  A    between atoms: C_1  and  C_2
REMARK    2  A    between atoms: C_5  and  S_8
REMARK    3  A    between atoms: S_8  and  C_9
REMARK    4  A    between atoms: C_10  and  N_26
REMARK    5  A    between atoms: C_11  and  S_15
REMARK    6  A    between atoms: S_15  and  C_16
REMARK                            x       y       z     vdW  Elec       q    Type
REMARK                         _______ _______ _______ _____ _____    ______ ____
ROOT
ATOM      1  C   UNL     1       0.484  -4.935   1.680  0.00  0.00    +0.126 A 
ATOM      2  C   UNL     1       0.549  -6.278   2.058  0.00  0.00    +0.090 A 
ATOM      3  C   UNL     1       0.643  -6.576   3.419  0.00  0.00    +0.127 A 
ATOM      4  N   UNL     1       0.665  -5.576   4.298  0.00  0.00    -0.227 NA
ATOM      5  C   UNL     1       0.601  -4.322   3.900  0.00  0.00    +0.223 A 
ATOM      6  N   UNL     1       0.517  -3.997   2.625  0.00  0.00    -0.227 NA
ENDROOT
BRANCH   2   7
ATOM      7  N   UNL     1       0.522  -7.300   1.096  0.00  0.00    -0.354 N 
ATOM      8  H   UNL     1       0.456  -7.077   0.154  0.00  0.00    +0.142 HD
ATOM      9  H   UNL     1       0.568  -8.228   1.373  0.00  0.00    +0.142 HD
ENDBRANCH   2   7
BRANCH   1  10
ATOM     10  S   UNL     1       0.365  -4.488  -0.020  0.00  0.00    -0.068 S 
BRANCH  10  15
ATOM     11  C   UNL     1       0.706   1.538   0.026  0.00  0.00    +0.044 C 
ATOM     12  C   UNL     1       0.621   0.034   0.014  0.00  0.00    -0.050 A 
ATOM     13  C   UNL     1       1.778  -0.723   0.009  0.00  0.00    +0.004 A 
ATOM     14  C   UNL     1       1.704  -2.102  -0.001  0.00  0.00    +0.015 A 
ATOM     15  C   UNL     1       0.465  -2.729  -0.006  0.00  0.00    +0.014 A 
ATOM     16  C   UNL     1      -0.697  -1.966  -0.002  0.00  0.00    +0.015 A 
ATOM     17  C   UNL     1      -0.615  -0.588   0.014  0.00  0.00    +0.004 A 
ENDBRANCH  10  15
ENDBRANCH   1  10
BRANCH   3  18
ATOM     18  S   UNL     1       0.728  -8.250   3.964  0.00  0.00    -0.066 S 
BRANCH  18  19
ATOM     19  C   UNL     1       0.689  -8.128   5.721  0.00  0.00    +0.040 A 
ATOM     20  C   UNL     1      -0.463  -8.437   6.414  0.00  0.00    +0.017 A 
ATOM     21  C   UNL     1      -0.507  -8.344   7.801  0.00  0.00    +0.002 A 
ATOM     22  C   UNL     1       0.585  -7.947   8.512  0.00  0.00    +0.010 A 
ATOM     23  C   UNL     1       1.777  -7.625   7.844  0.00  0.00    +0.001 A 
ATOM     24  C   UNL     1       1.839  -7.718   6.433  0.00  0.00    +0.085 A 
ATOM     25  N   UNL     1       2.972  -7.416   5.795  0.00  0.00    -0.254 NA
ATOM     26  C   UNL     1       4.043  -7.036   6.449  0.00  0.00    +0.111 A 
ATOM     27  C   UNL     1       4.052  -6.927   7.838  0.00  0.00    +0.020 A 
ATOM     28  C   UNL     1       2.922  -7.211   8.551  0.00  0.00    +0.011 A 
ENDBRANCH  18  19
ENDBRANCH   3  18
TORSDOF 5
