REMARK  Name = ZINC02861607
REMARK  7 active torsions:
REMARK  status: ('A' for Active; 'I' for Inactive)
REMARK    1  A    between atoms: C_1  and  C_2
REMARK    2  A    between atoms: C_6  and  C_21
REMARK    3  A    between atoms: C_7  and  O_8
REMARK    4  A    between atoms: O_8  and  C_9
REMARK    5  A    between atoms: C_9  and  C_10
REMARK    6  A    between atoms: N_12  and  N_13
REMARK    7  A    between atoms: C_14  and  C_16
REMARK                            x       y       z     vdW  Elec       q    Type
REMARK                         _______ _______ _______ _____ _____    ______ ____
ROOT
ATOM      1  C   UNL     1      -1.049   1.011   4.253  0.00  0.00    +0.267 C 
ATOM      2  O   UNL     1       0.072   1.256   4.646  0.00  0.00    -0.271 OA
ATOM      3  N   UNL     1      -2.116   1.402   4.977  0.00  0.00    -0.231 N 
ATOM      4  H   UNL     1      -3.013   1.206   4.663  0.00  0.00    +0.173 HD
ENDROOT
BRANCH   3   5
ATOM      5  N   UNL     1      -1.931   2.091   6.183  0.00  0.00    -0.230 N 
ATOM      6  C   UNL     1      -2.999   2.482   6.907  0.00  0.00    +0.267 C 
ATOM      7  O   UNL     1      -4.124   2.236   6.513  0.00  0.00    -0.268 OA
ATOM      8  H   UNL     1      -1.034   2.287   6.497  0.00  0.00    +0.173 HD
BRANCH   6   9
ATOM      9  C   UNL     1      -2.805   3.203   8.168  0.00  0.00    +0.075 A 
ATOM     10  C   UNL     1      -3.756   3.683   9.055  0.00  0.00    +0.021 A 
ATOM     11  C   UNL     1      -3.266   4.326  10.166  0.00  0.00    +0.008 A 
ATOM     12  C   UNL     1      -1.924   4.446  10.319  0.00  0.00    +0.046 A 
ATOM     13  S   UNL     1      -1.285   3.685   8.965  0.00  0.00    -0.092 S 
ENDBRANCH   6   9
ENDBRANCH   3   5
BRANCH   1  14
ATOM     14  C   UNL     1      -1.248   0.270   2.957  0.00  0.00    +0.326 C 
BRANCH  14  15
ATOM     15  O   UNL     1       0.025  -0.033   2.381  0.00  0.00    -0.482 OA
BRANCH  15  22
ATOM     16  C   UNL     1      -0.018   1.503   0.010  0.00  0.00    +0.047 C 
ATOM     17  C   UNL     1       0.002  -0.004   0.002  0.00  0.00    -0.007 A 
ATOM     18  C   UNL     1       0.006  -0.689  -1.198  0.00  0.00    +0.022 A 
ATOM     19  C   UNL     1       0.025  -2.072  -1.206  0.00  0.00    +0.019 A 
ATOM     20  C   UNL     1       0.040  -2.772  -0.013  0.00  0.00    +0.022 A 
ATOM     21  C   UNL     1       0.036  -2.092   1.189  0.00  0.00    -0.007 A 
ATOM     22  C   UNL     1       0.023  -0.705   1.199  0.00  0.00    +0.127 A 
ATOM     23  C   UNL     1       0.053  -2.855   2.488  0.00  0.00    +0.047 C 
ATOM     24 BR   UNL     1       0.029  -3.006  -2.850  0.00  0.00    -0.050 Br
ENDBRANCH  15  22
ENDBRANCH  14  15
ENDBRANCH   1  14
TORSDOF 5
