REMARK  Name = ZINC39465880
REMARK  7 active torsions:
REMARK  status: ('A' for Active; 'I' for Inactive)
REMARK    1  A    between atoms: C_1  and  O_2
REMARK    2  A    between atoms: O_2  and  C_3
REMARK    3  A    between atoms: C_8  and  C_9
REMARK    4  A    between atoms: C_14  and  O_15
REMARK    5  A    between atoms: P_20  and  S_26
REMARK    6  A    between atoms: S_26  and  O_29
REMARK    7  A    between atoms: O_29  and  C_30
REMARK                            x       y       z     vdW  Elec       q    Type
REMARK                         _______ _______ _______ _____ _____    ______ ____
ROOT
ATOM      1  C   UNL     1       0.606  -0.607  -1.055  0.00  0.00    +0.128 A 
ATOM      2  C   UNL     1       1.173   0.155  -2.062  0.00  0.00    +0.050 A 
ATOM      3  C   UNL     1       1.789  -0.455  -3.143  0.00  0.00    -0.038 A 
ATOM      4  C   UNL     1       1.844  -1.832  -3.225  0.00  0.00    -0.023 A 
ATOM      5  C   UNL     1       1.279  -2.605  -2.223  0.00  0.00    +0.017 A 
ATOM      6  C   UNL     1       0.663  -2.002  -1.132  0.00  0.00    +0.028 A 
ATOM      7  C   UNL     1       2.505  -2.538  -4.379  0.00  0.00    +0.129 C 
ATOM      8  C   UNL     1       1.631  -3.721  -4.807  0.00  0.00    +0.195 C 
ATOM      9  O   UNL     1       2.325  -4.461  -5.831  0.00  0.00    -0.296 OA
ATOM     10  P   UNL     1       2.929  -3.641  -7.099  0.00  0.00    +0.458 P 
ATOM     11  O   UNL     1       1.863  -3.374  -8.091  0.00  0.00    -0.243 OA
ATOM     12  N   UNL     1       3.499  -2.219  -6.478  0.00  0.00    -0.158 NA
ATOM     13  N   UNL     1       2.717  -1.629  -5.505  0.00  0.00    -0.224 NA
ATOM     14  C   UNL     1       3.360  -0.383  -5.060  0.00  0.00    +0.108 C 
ATOM     15  C   UNL     1       2.389   0.420  -4.214  0.00  0.00    +0.052 C 
ATOM     16  H   UNL     1       4.329  -1.823  -6.788  0.00  0.00    +0.152 HD
ENDROOT
BRANCH   6  17
ATOM     17  C   UNL     1       0.066  -2.833  -0.059  0.00  0.00    +0.027 A 
ATOM     18  C   UNL     1       0.880  -3.633   0.741  0.00  0.00    +0.012 A 
ATOM     19  C   UNL     1       0.319  -4.404   1.739  0.00  0.00    +0.001 A 
ATOM     20  C   UNL     1      -1.048  -4.387   1.948  0.00  0.00    +0.004 A 
ATOM     21  C   UNL     1      -1.865  -3.598   1.160  0.00  0.00    +0.046 A 
ATOM     22  C   UNL     1      -1.315  -2.814   0.159  0.00  0.00    +0.125 A 
BRANCH  22  23
ATOM     23  O   UNL     1      -2.115  -2.033  -0.613  0.00  0.00    -0.506 OA
ATOM     24  H   UNL     1      -2.446  -2.474  -1.408  0.00  0.00    +0.292 HD
ENDBRANCH  22  23
ENDBRANCH   6  17
BRANCH  10  25
ATOM     25  S   UNL     1       4.506  -4.737  -7.997  0.00  0.00    +0.211 S 
ATOM     26  O   UNL     1       4.878  -4.027  -9.170  0.00  0.00    -0.126 OA
ATOM     27  O   UNL     1       5.433  -5.037  -6.962  0.00  0.00    -0.126 OA
BRANCH  25  28
ATOM     28  O   UNL     1       3.925  -6.066  -8.458  0.00  0.00    -0.339 OA
BRANCH  28  29
ATOM     29  C   UNL     1       3.158  -5.975  -9.576  0.00  0.00    +0.157 A 
ATOM     30  C   UNL     1       1.796  -5.734  -9.468  0.00  0.00    +0.048 A 
ATOM     31  C   UNL     1       1.019  -5.642 -10.606  0.00  0.00    +0.004 A 
ATOM     32  C   UNL     1       1.598  -5.790 -11.853  0.00  0.00    +0.000 A 
ATOM     33  C   UNL     1       2.955  -6.030 -11.964  0.00  0.00    +0.004 A 
ATOM     34  C   UNL     1       3.737  -6.117 -10.829  0.00  0.00    +0.048 A 
ENDBRANCH  28  29
ENDBRANCH  25  28
ENDBRANCH  10  25
BRANCH   1  36
ATOM     35  C   UNL     1      -0.017   1.425   0.010  0.00  0.00    +0.277 C 
ATOM     36  O   UNL     1       0.002  -0.004   0.002  0.00  0.00    -0.494 OA
ENDBRANCH   1  36
TORSDOF 6
