REMARK  Name = ZINC67029559
REMARK  8 active torsions:
REMARK  status: ('A' for Active; 'I' for Inactive)
REMARK    1  A    between atoms: C_1  and  C_2
REMARK    2  A    between atoms: C_2  and  C_3
REMARK    3  A    between atoms: C_6  and  N_9
REMARK    4  A    between atoms: C_10  and  C_27
REMARK    5  A    between atoms: C_11  and  C_22
REMARK    6  A    between atoms: C_12  and  C_17
REMARK    7  A    between atoms: N_24  and  C_25
REMARK    8  A    between atoms: N_24  and  C_26
REMARK                            x       y       z     vdW  Elec       q    Type
REMARK                         _______ _______ _______ _____ _____    ______ ____
ROOT
ATOM      1  N   UNL     1       2.857  -1.971  -4.550  0.00  0.00    -0.255 N 
ATOM      2  C   UNL     1       4.201  -2.155  -4.723  0.00  0.00    +0.025 C 
ATOM      3  C   UNL     1       4.715  -2.424  -5.941  0.00  0.00    +0.058 C 
ATOM      4  C   UNL     1       3.754  -2.516  -7.109  0.00  0.00    +0.160 C 
ATOM      5  N   UNL     1       2.326  -2.303  -6.816  0.00  0.00    -0.313 N 
ATOM      6  C   UNL     1       1.964  -2.046  -5.544  0.00  0.00    +0.142 C 
ATOM      7  S   UNL     1       0.307  -1.802  -5.189  0.00  0.00    -0.018 S 
ATOM      8  C   UNL     1       5.122  -2.054  -3.535  0.00  0.00    +0.062 C 
ATOM      9  H   UNL     1       1.663  -2.349  -7.522  0.00  0.00    +0.149 HD
ENDROOT
BRANCH   1  13
ATOM     10  C   UNL     1       1.464  -1.147  -0.709  0.00  0.00    -0.048 A 
ATOM     11  C   UNL     1       1.321  -2.417  -1.238  0.00  0.00    +0.005 A 
ATOM     12  C   UNL     1       1.781  -2.693  -2.510  0.00  0.00    +0.024 A 
ATOM     13  C   UNL     1       2.389  -1.694  -3.259  0.00  0.00    +0.040 A 
ATOM     14  C   UNL     1       2.531  -0.420  -2.726  0.00  0.00    +0.024 A 
ATOM     15  C   UNL     1       2.064  -0.149  -1.455  0.00  0.00    +0.005 A 
BRANCH  10  17
ATOM     16  C   UNL     1      -0.494  -0.384   0.606  0.00  0.00    +0.009 C 
ATOM     17  C   UNL     1       0.961  -0.850   0.680  0.00  0.00    +0.032 C 
ENDBRANCH  10  17
ENDBRANCH   1  13
BRANCH   4  18
ATOM     18  C   UNL     1       3.901  -3.884  -7.725  0.00  0.00    +0.097 A 
ATOM     19  C   UNL     1       2.853  -4.734  -7.873  0.00  0.00    +0.094 A 
ATOM     20  S   UNL     1       3.582  -6.064  -8.594  0.00  0.00    +0.028 S 
ATOM     21  N   UNL     1       5.104  -5.521  -8.675  0.00  0.00    -0.110 NA
ATOM     22  N   UNL     1       5.055  -4.340  -8.165  0.00  0.00    -0.144 NA
ENDBRANCH   4  18
BRANCH   3  23
ATOM     23  C   UNL     1       6.108  -2.614  -6.122  0.00  0.00    +0.246 C 
ATOM     24  O   UNL     1       6.786  -1.724  -6.603  0.00  0.00    -0.270 OA
ATOM     25  N   UNL     1       6.681  -3.779  -5.763  0.00  0.00    -0.304 N 
ATOM     26  C   UNL     1       8.135  -3.939  -5.853  0.00  0.00    +0.132 C 
ATOM     27  C   UNL     1       5.851  -4.887  -5.282  0.00  0.00    +0.132 C 
ENDBRANCH   3  23
TORSDOF 4
