REMARK  Name = ZINC49059846
REMARK  5 active torsions:
REMARK  status: ('A' for Active; 'I' for Inactive)
REMARK    1  A    between atoms: C_1  and  C_2
REMARK    2  A    between atoms: C_2  and  C_4
REMARK    3  A    between atoms: C_2  and  N_16
REMARK    4  A    between atoms: N_6  and  C_7
REMARK    5  A    between atoms: C_21  and  C_23
REMARK                            x       y       z     vdW  Elec       q    Type
REMARK                         _______ _______ _______ _____ _____    ______ ____
ROOT
ATOM      1  C   UNL     1      -0.004   1.516  -0.004  0.00  0.00    +0.043 C 
ATOM      2  C   UNL     1       0.006  -0.014  -0.004  0.00  0.00    +0.194 C 
ENDROOT
BRANCH   2   3
ATOM      3  N   UNL     1       0.714  -0.498   1.184  0.00  0.00    -0.217 N 
ATOM      4  C   UNL     1       1.813  -1.259   1.026  0.00  0.00    +0.268 A 
ATOM      5  O   UNL     1       2.211  -1.540  -0.093  0.00  0.00    -0.266 OA
ATOM      6  C   UNL     1       2.503  -1.729   2.166  0.00  0.00    +0.074 A 
ATOM      7  C   UNL     1       2.016  -1.386   3.393  0.00  0.00    +0.035 A 
ATOM      8  C   UNL     1       0.854  -0.583   3.451  0.00  0.00    +0.092 A 
ATOM      9  N   UNL     1       0.272  -0.180   2.346  0.00  0.00    -0.168 NA
BRANCH   8  10
ATOM     10  C   UNL     1       0.294  -0.188   4.767  0.00  0.00    +0.002 A 
ATOM     11  C   UNL     1      -0.854   0.599   4.831  0.00  0.00    +0.013 A 
ATOM     12  C   UNL     1      -1.372   0.963   6.057  0.00  0.00    +0.039 A 
ATOM     13  C   UNL     1      -0.751   0.548   7.224  0.00  0.00    +0.123 A 
ATOM     14  C   UNL     1       0.391  -0.234   7.166  0.00  0.00    +0.039 A 
ATOM     15  C   UNL     1       0.911  -0.609   5.944  0.00  0.00    +0.013 A 
ATOM     16  F   UNL     1      -1.261   0.908   8.422  0.00  0.00    -0.205 F 
ENDBRANCH   8  10
ENDBRANCH   2   3
BRANCH   2  17
ATOM     17  C   UNL     1      -1.412  -0.526   0.013  0.00  0.00    +0.242 C 
ATOM     18  O   UNL     1      -1.793  -1.226   0.927  0.00  0.00    -0.273 OA
ATOM     19  N   UNL     1      -2.256  -0.206  -0.988  0.00  0.00    -0.282 N 
ATOM     20  H   UNL     1      -1.977   0.418  -1.677  0.00  0.00    +0.155 HD
BRANCH  19  21
ATOM     21  C   UNL     1      -3.531  -0.772  -1.034  0.00  0.00    +0.062 A 
ATOM     22  C   UNL     1      -3.766  -1.969  -0.431  0.00  0.00    +0.025 A 
ATOM     23  C   UNL     1      -5.027  -2.561  -0.458  0.00  0.00    +0.004 A 
ATOM     24  C   UNL     1      -6.074  -1.972  -1.085  0.00  0.00    +0.031 A 
ATOM     25  C   UNL     1      -5.905  -0.720  -1.739  0.00  0.00    +0.102 A 
ATOM     26  C   UNL     1      -4.590  -0.093  -1.708  0.00  0.00    +0.121 A 
ATOM     27  N   UNL     1      -4.551   1.077  -2.345  0.00  0.00    -0.189 NA
ATOM     28  S   UNL     1      -6.042   1.319  -2.899  0.00  0.00    +0.117 S 
ATOM     29  N   UNL     1      -6.814  -0.001  -2.400  0.00  0.00    -0.191 NA
ENDBRANCH  19  21
ENDBRANCH   2  17
TORSDOF 4
