REMARK  Name = ZINC08762306
REMARK  8 active torsions:
REMARK  status: ('A' for Active; 'I' for Inactive)
REMARK    1  A    between atoms: C_1  and  C_2
REMARK    2  A    between atoms: C_13  and  O_15
REMARK    3  A    between atoms: O_15  and  C_16
REMARK    4  A    between atoms: C_16  and  C_18
REMARK    5  A    between atoms: C_18  and  C_19
REMARK    6  A    between atoms: C_19  and  C_20
REMARK    7  A    between atoms: C_26  and  C_28
REMARK    8  A    between atoms: C_38  and  C_39
REMARK                            x       y       z     vdW  Elec       q    Type
REMARK                         _______ _______ _______ _____ _____    ______ ____
ROOT
ATOM      1  C   UNL     1      -0.019   1.524   0.010  0.00  0.00    +0.015 C 
ATOM      2  C   UNL     1       0.002  -0.004   0.002  0.00  0.00    +0.008 C 
ATOM      3  C   UNL     1       0.714  -0.537   1.226  0.00  0.00    +0.011 C 
ATOM      4  C   UNL     1       2.124  -1.006   0.821  0.00  0.00    +0.005 C 
ATOM      5  C   UNL     1       2.755   0.026  -0.108  0.00  0.00    +0.002 C 
ATOM      6  C   UNL     1       2.059   0.045  -1.455  0.00  0.00    -0.003 C 
ATOM      7  C   UNL     1       0.672  -0.561  -1.272  0.00  0.00    +0.002 C 
ATOM      8  C   UNL     1      -0.339  -0.181  -2.365  0.00  0.00    +0.008 C 
ATOM      9  C   UNL     1      -1.715  -0.403  -1.682  0.00  0.00    +0.045 C 
ATOM     10  C   UNL     1      -1.445  -0.503  -0.161  0.00  0.00    +0.183 C 
ATOM     11  C   UNL     1       2.775  -0.769  -2.526  0.00  0.00    +0.008 C 
ATOM     12  C   UNL     1       4.238  -0.364  -2.650  0.00  0.00    +0.032 C 
ATOM     13  C   UNL     1       4.894  -0.571  -1.300  0.00  0.00    -0.060 C 
ATOM     14  C   UNL     1       6.024  -1.278  -1.259  0.00  0.00    +0.046 C 
ATOM     15  C   UNL     1       6.734  -1.485   0.006  0.00  0.00    +0.156 C 
ATOM     16  O   UNL     1       7.622  -2.311   0.101  0.00  0.00    -0.293 OA
ATOM     17  C   UNL     1       6.326  -0.638   1.192  0.00  0.00    +0.080 C 
ATOM     18  C   UNL     1       4.801  -0.541   1.210  0.00  0.00    +0.019 C 
ATOM     19  C   UNL     1       4.258   0.030  -0.090  0.00  0.00    -0.007 C 
ATOM     20  C   UNL     1       4.661   1.512  -0.097  0.00  0.00    +0.016 C 
ENDROOT
BRANCH  10  21
ATOM     21  O   UNL     1      -2.351   0.360   0.570  0.00  0.00    -0.461 OA
BRANCH  21  22
ATOM     22  C   UNL     1      -3.469  -0.203   1.056  0.00  0.00    +0.308 C 
ATOM     23  O   UNL     1      -3.682  -1.378   0.876  0.00  0.00    -0.251 OA
BRANCH  22  24
ATOM     24  C   UNL     1      -4.458   0.632   1.827  0.00  0.00    +0.130 C 
BRANCH  24  25
ATOM     25  C   UNL     1      -5.633  -0.244   2.265  0.00  0.00    +0.107 C 
BRANCH  25  26
ATOM     26  C   UNL     1      -6.623   0.591   3.037  0.00  0.00    +0.217 C 
ATOM     27  O   UNL     1      -6.410   1.771   3.218  0.00  0.00    -0.276 OA
ATOM     28  N   UNL     1      -7.745   0.026   3.525  0.00  0.00    -0.288 N 
ATOM     29  C   UNL     1      -8.128  -1.390   3.379  0.00  0.00    +0.109 C 
ATOM     30  C   UNL     1      -9.083  -1.667   4.567  0.00  0.00    +0.021 C 
ATOM     31  C   UNL     1      -9.861  -0.328   4.660  0.00  0.00    +0.035 C 
ATOM     32  C   UNL     1      -8.787   0.719   4.296  0.00  0.00    +0.189 C 
BRANCH  32  33
ATOM     33  C   UNL     1      -9.403   1.811   3.460  0.00  0.00    +0.376 C 
ATOM     34  O   UNL     1      -9.016   1.999   2.331  0.00  0.00    -0.244 OA
ATOM     35  O   UNL     1     -10.382   2.576   3.969  0.00  0.00    -0.244 OA
ENDBRANCH  32  33
ENDBRANCH  25  26
ENDBRANCH  24  25
ENDBRANCH  22  24
ENDBRANCH  21  22
ENDBRANCH  10  21
TORSDOF 6
