REMARK  Name = ZINC49715844
REMARK  6 active torsions:
REMARK  status: ('A' for Active; 'I' for Inactive)
REMARK    1  A    between atoms: C_3  and  N_23
REMARK    2  A    between atoms: C_4  and  N_8
REMARK    3  A    between atoms: C_9  and  C_11
REMARK    4  A    between atoms: C_11  and  C_12
REMARK    5  A    between atoms: C_12  and  C_13
REMARK    6  A    between atoms: C_13  and  N_14
REMARK                            x       y       z     vdW  Elec       q    Type
REMARK                         _______ _______ _______ _____ _____    ______ ____
ROOT
ATOM      1  N   UNL     1       3.632  -0.674  -0.190  0.00  0.00    -0.284 N 
ATOM      2  C   UNL     1       3.651  -2.018  -0.084  0.00  0.00    +0.217 C 
ATOM      3  O   UNL     1       2.613  -2.644  -0.121  0.00  0.00    -0.275 OA
ATOM      4  H   UNL     1       4.465  -0.180  -0.240  0.00  0.00    +0.155 HD
ENDROOT
BRANCH   1   8
ATOM      5  C   UNL     1      -0.012   1.358  -0.307  0.00  0.00    +0.022 A 
ATOM      6  C   UNL     1       1.114   1.935  -0.866  0.00  0.00    +0.026 A 
ATOM      7  C   UNL     1       2.327   1.264  -0.830  0.00  0.00    +0.046 A 
ATOM      8  C   UNL     1       2.408   0.008  -0.229  0.00  0.00    +0.056 A 
ATOM      9  C   UNL     1       1.276  -0.563   0.331  0.00  0.00    +0.045 A 
ATOM     10  C   UNL     1       0.069   0.113   0.290  0.00  0.00    +0.043 A 
ATOM     11 CL   UNL     1      -1.348  -0.605   0.991  0.00  0.00    -0.083 Cl
BRANCH   7  12
ATOM     12  N   UNL     1       3.467   1.846  -1.397  0.00  0.00    -0.357 N 
ATOM     13  H   UNL     1       3.409   2.719  -1.815  0.00  0.00    +0.142 HD
ATOM     14  H   UNL     1       4.315   1.376  -1.371  0.00  0.00    +0.142 HD
ENDBRANCH   7  12
ENDBRANCH   1   8
BRANCH   2  15
ATOM     15  C   UNL     1       4.962  -2.742   0.082  0.00  0.00    +0.094 C 
BRANCH  15  16
ATOM     16  C   UNL     1       4.705  -4.247   0.178  0.00  0.00    -0.009 C 
BRANCH  16  17
ATOM     17  C   UNL     1       6.036  -4.982   0.346  0.00  0.00    -0.078 C 
BRANCH  17  18
ATOM     18  N   UNL     1       5.789  -6.427   0.438  0.00  0.00    +0.382 N 
ATOM     19  C   UNL     1       5.345  -6.951  -0.875  0.00  0.00    -0.075 C 
ATOM     20  C   UNL     1       6.410  -8.022  -1.269  0.00  0.00    -0.029 C 
ATOM     21  C   UNL     1       7.678  -7.182  -1.619  0.00  0.00    -0.000 C 
ATOM     22  C   UNL     1       8.111  -6.569  -0.267  0.00  0.00    -0.015 C 
ATOM     23  C   UNL     1       7.057  -7.143   0.777  0.00  0.00    -0.068 C 
ATOM     24  C   UNL     1       6.780  -8.559   0.160  0.00  0.00    -0.014 C 
ATOM     25  H   UNL     1       5.088  -6.615   1.140  0.00  0.00    -0.081 HD
ENDBRANCH  17  18
ENDBRANCH  16  17
ENDBRANCH  15  16
ENDBRANCH   2  15
TORSDOF 6
