REMARK  Name = ZINC63652880
REMARK  7 active torsions:
REMARK  status: ('A' for Active; 'I' for Inactive)
REMARK    1  A    between atoms: C_1  and  C_2
REMARK    2  A    between atoms: C_3  and  C_19
REMARK    3  A    between atoms: N_10  and  C_13
REMARK    4  A    between atoms: C_13  and  C_14
REMARK    5  A    between atoms: N_21  and  C_22
REMARK    6  A    between atoms: C_22  and  C_23
REMARK    7  A    between atoms: C_23  and  C_24
REMARK                            x       y       z     vdW  Elec       q    Type
REMARK                         _______ _______ _______ _____ _____    ______ ____
ROOT
ATOM      1  C   UNL     1      -0.075   1.501   0.015  0.00  0.00    +0.066 C 
ATOM      2  C   UNL     1      -0.025  -0.005   0.004  0.00  0.00    +0.051 A 
ATOM      3  C   UNL     1      -0.101  -0.684  -1.219  0.00  0.00    +0.058 A 
ATOM      4  C   UNL     1      -0.055  -2.081  -1.231  0.00  0.00    +0.030 A 
ATOM      5  C   UNL     1       0.067  -2.738  -0.009  0.00  0.00    +0.066 A 
ATOM      6  C   UNL     1       0.137  -1.982   1.185  0.00  0.00    +0.078 A 
ATOM      7  N   UNL     1       0.094  -0.651   1.141  0.00  0.00    -0.251 NA
ATOM      8  C   UNL     1       0.261  -2.676   2.416  0.00  0.00    +0.046 A 
ATOM      9  C   UNL     1       0.309  -4.018   2.434  0.00  0.00    +0.092 A 
ATOM     10  N   UNL     1       0.243  -4.771   1.300  0.00  0.00    -0.307 N 
ATOM     11  C   UNL     1       0.124  -4.202   0.082  0.00  0.00    +0.261 A 
ATOM     12  O   UNL     1       0.066  -4.889  -0.922  0.00  0.00    -0.267 OA
ENDROOT
BRANCH   3  13
ATOM     13  C   UNL     1      -0.229   0.068  -2.483  0.00  0.00    +0.246 C 
ATOM     14  O   UNL     1      -0.154   1.282  -2.478  0.00  0.00    -0.270 OA
ATOM     15  N   UNL     1      -0.429  -0.590  -3.642  0.00  0.00    -0.311 N 
ATOM     16  H   UNL     1      -0.489  -1.558  -3.646  0.00  0.00    +0.149 HD
BRANCH  15  17
ATOM     17  C   UNL     1      -0.557   0.156  -4.896  0.00  0.00    +0.109 C 
BRANCH  17  18
ATOM     18  C   UNL     1      -0.776  -0.822  -6.052  0.00  0.00    +0.052 C 
BRANCH  18  19
ATOM     19  C   UNL     1      -0.907  -0.054  -7.342  0.00  0.00    -0.040 C 
ATOM     20  C   UNL     1       0.075   0.210  -8.234  0.00  0.00    -0.001 A 
ATOM     21  C   UNL     1       1.503  -0.126  -8.270  0.00  0.00    +0.010 A 
ATOM     22  C   UNL     1       2.248   0.287  -9.320  0.00  0.00    +0.001 A 
ATOM     23  C   UNL     1       1.692   1.026 -10.373  0.00  0.00    +0.002 A 
ATOM     24  C   UNL     1       0.388   1.373 -10.411  0.00  0.00    +0.026 A 
ATOM     25  C   UNL     1      -0.489   0.991  -9.359  0.00  0.00    +0.043 A 
ATOM     26  N   UNL     1      -1.768   1.202  -9.169  0.00  0.00    -0.380 N 
ATOM     27  C   UNL     1      -2.164   0.572  -7.904  0.00  0.00    +0.144 C 
ATOM     28  H   UNL     1      -2.357   1.689  -9.767  0.00  0.00    +0.160 HD
ENDBRANCH  18  19
ENDBRANCH  17  18
ENDBRANCH  15  17
ENDBRANCH   3  13
BRANCH  10  29
ATOM     29  C   UNL     1       0.302  -6.231   1.405  0.00  0.00    +0.199 C 
BRANCH  29  30
ATOM     30  C   UNL     1      -1.093  -6.781   1.556  0.00  0.00    +0.124 A 
ATOM     31  C   UNL     1      -1.905  -7.155   0.551  0.00  0.00    +0.046 A 
ATOM     32  C   UNL     1      -3.108  -7.606   1.141  0.00  0.00    +0.041 A 
ATOM     33  C   UNL     1      -2.959  -7.481   2.472  0.00  0.00    +0.195 A 
ATOM     34  O   UNL     1      -1.735  -6.986   2.718  0.00  0.00    -0.466 OA
ENDBRANCH  29  30
ENDBRANCH  10  29
TORSDOF 6
