REMARK  Name = ZINC01382057
REMARK  9 active torsions:
REMARK  status: ('A' for Active; 'I' for Inactive)
REMARK    1  A    between atoms: C_1  and  C_2
REMARK    2  A    between atoms: C_5  and  C_43
REMARK    3  A    between atoms: C_9  and  C_14
REMARK    4  A    between atoms: C_14  and  C_16
REMARK    5  A    between atoms: C_14  and  N_27
REMARK    6  A    between atoms: N_20  and  C_21
REMARK    7  A    between atoms: C_21  and  C_22
REMARK    8  A    between atoms: N_30  and  C_33
REMARK    9  A    between atoms: C_33  and  C_34
REMARK                            x       y       z     vdW  Elec       q    Type
REMARK                         _______ _______ _______ _____ _____    ______ ____
ROOT
ATOM      1  C   UNL     1       0.048  -0.071   4.974  0.00  0.00    +0.162 C 
ENDROOT
BRANCH   1  10
ATOM      2  C   UNL     1       0.753   1.912   0.211  0.00  0.00    +0.044 C 
ATOM      3  C   UNL     1       0.748   0.411   0.075  0.00  0.00    -0.041 A 
ATOM      4  C   UNL     1       0.916  -0.167  -1.152  0.00  0.00    +0.004 A 
ATOM      5  C   UNL     1       0.913  -1.548  -1.288  0.00  0.00    +0.005 A 
ATOM      6  C   UNL     1       0.740  -2.363  -0.190  0.00  0.00    -0.026 A 
ATOM      7  C   UNL     1       0.566  -1.797   1.069  0.00  0.00    +0.052 A 
ATOM      8  C   UNL     1       0.575  -0.396   1.204  0.00  0.00    +0.002 A 
ATOM      9  C   UNL     1       0.397   0.191   2.533  0.00  0.00    +0.021 A 
ATOM     10  C   UNL     1       0.234  -0.642   3.591  0.00  0.00    +0.042 A 
ATOM     11  C   UNL     1       0.238  -2.041   3.403  0.00  0.00    +0.254 A 
ATOM     12  O   UNL     1       0.090  -2.770   4.368  0.00  0.00    -0.268 OA
ATOM     13  N   UNL     1       0.391  -2.588   2.184  0.00  0.00    -0.322 N 
ATOM     14  H   UNL     1       0.389  -3.553   2.090  0.00  0.00    +0.169 HD
ATOM     15  C   UNL     1       0.739  -3.861  -0.352  0.00  0.00    +0.046 C 
ENDBRANCH   1  10
BRANCH   1  16
ATOM     16  N   UNL     1      -1.178  -0.620   5.569  0.00  0.00    -0.286 NA
ATOM     17  C   UNL     1      -1.363  -0.128   6.942  0.00  0.00    +0.101 C 
ATOM     18  C   UNL     1      -2.603  -0.784   7.553  0.00  0.00    +0.100 C 
ATOM     19  N   UNL     1      -3.776  -0.475   6.723  0.00  0.00    -0.296 NA
ATOM     20  C   UNL     1      -3.591  -0.967   5.351  0.00  0.00    +0.100 C 
ATOM     21  C   UNL     1      -2.351  -0.312   4.740  0.00  0.00    +0.101 C 
BRANCH  19  22
ATOM     22  C   UNL     1      -5.002  -1.024   7.319  0.00  0.00    +0.119 C 
BRANCH  22  23
ATOM     23  C   UNL     1      -6.202  -0.486   6.584  0.00  0.00    -0.030 A 
ATOM     24  C   UNL     1      -6.796   0.690   7.001  0.00  0.00    +0.009 A 
ATOM     25  C   UNL     1      -7.897   1.188   6.329  0.00  0.00    +0.050 A 
ATOM     26  C   UNL     1      -8.409   0.508   5.236  0.00  0.00    +0.166 A 
ATOM     27  C   UNL     1      -7.811  -0.678   4.816  0.00  0.00    +0.167 A 
ATOM     28  C   UNL     1      -6.704  -1.168   5.490  0.00  0.00    +0.054 A 
ATOM     29  O   UNL     1      -8.492  -1.150   3.732  0.00  0.00    -0.453 OA
ATOM     30  C   UNL     1      -9.757  -0.462   3.743  0.00  0.00    +0.466 C 
ATOM     31  O   UNL     1      -9.466   0.778   4.415  0.00  0.00    -0.453 OA
ENDBRANCH  22  23
ENDBRANCH  19  22
ENDBRANCH   1  16
BRANCH   1  32
ATOM     32  C   UNL     1       1.231  -0.437   5.832  0.00  0.00    +0.173 A 
ATOM     33  N   UNL     1       1.458  -1.597   6.397  0.00  0.00    -0.111 NA
ATOM     34  N   UNL     1       2.569  -1.514   7.045  0.00  0.00    -0.023 NA
ATOM     35  N   UNL     1       3.056  -0.330   6.908  0.00  0.00    -0.043 NA
ATOM     36  N   UNL     1       2.263   0.362   6.162  0.00  0.00    -0.220 N 
BRANCH  36  37
ATOM     37  C   UNL     1       2.448   1.757   5.753  0.00  0.00    +0.221 C 
BRANCH  37  38
ATOM     38  C   UNL     1       1.807   2.667   6.770  0.00  0.00    +0.126 A 
ATOM     39  C   UNL     1       2.412   3.185   7.854  0.00  0.00    +0.046 A 
ATOM     40  C   UNL     1       1.448   3.974   8.522  0.00  0.00    +0.041 A 
ATOM     41  C   UNL     1       0.312   3.892   7.807  0.00  0.00    +0.195 A 
ATOM     42  O   UNL     1       0.537   3.103   6.743  0.00  0.00    -0.466 OA
ENDBRANCH  37  38
ENDBRANCH  36  37
ENDBRANCH   1  32
TORSDOF 7
