REMARK  Name = ZINC65887982
REMARK  2 active torsions:
REMARK  status: ('A' for Active; 'I' for Inactive)
REMARK    1  A    between atoms: C_3  and  O_28
REMARK    2  A    between atoms: C_6  and  C_7
REMARK                            x       y       z     vdW  Elec       q    Type
REMARK                         _______ _______ _______ _____ _____    ______ ____
ROOT
ATOM      1  C   UNL     1      -1.293  -0.774   0.011  0.00  0.00    +0.209 C 
ATOM      2  N   UNL     1      -1.165  -1.959   0.879  0.00  0.00    -0.294 N 
ATOM      3  C   UNL     1      -0.546  -3.084   0.354  0.00  0.00    +0.159 C 
ATOM      4  N   UNL     1      -1.030  -3.546  -0.871  0.00  0.00    -0.259 N 
ATOM      5  C   UNL     1      -1.465  -2.551  -1.746  0.00  0.00    +0.205 A 
ATOM      6  N   UNL     1      -1.602  -1.244  -1.344  0.00  0.00    -0.288 N 
ATOM      7  C   UNL     1      -2.055  -0.522  -2.428  0.00  0.00    +0.076 A 
ATOM      8  C   UNL     1      -2.379   0.812  -2.634  0.00  0.00    +0.077 A 
ATOM      9  C   UNL     1      -2.811   1.229  -3.878  0.00  0.00    +0.164 A 
ATOM     10  C   UNL     1      -2.925   0.320  -4.926  0.00  0.00    +0.164 A 
ATOM     11  C   UNL     1      -2.612  -1.009  -4.737  0.00  0.00    +0.079 A 
ATOM     12  C   UNL     1      -2.173  -1.444  -3.483  0.00  0.00    +0.095 A 
ATOM     13  N   UNL     1      -1.798  -2.665  -2.998  0.00  0.00    -0.214 NA
ATOM     14  O   UNL     1      -3.350   0.754  -6.150  0.00  0.00    -0.488 OA
ATOM     15  C   UNL     1      -4.714   1.172  -6.227  0.00  0.00    +0.232 C 
ATOM     16  C   UNL     1      -4.859   2.621  -5.789  0.00  0.00    +0.082 C 
ATOM     17  C   UNL     1      -4.509   2.821  -4.323  0.00  0.00    +0.232 C 
ATOM     18  O   UNL     1      -3.128   2.541  -4.087  0.00  0.00    -0.488 OA
ATOM     19  N   UNL     1       0.436  -3.678   0.971  0.00  0.00    -0.375 N 
ATOM     20  H   UNL     1      -1.502  -1.952   1.789  0.00  0.00    +0.151 HD
ATOM     21  H   UNL     1       0.752  -3.335   1.822  0.00  0.00    +0.158 HD
ATOM     22  H   UNL     1      -1.060  -4.489  -1.097  0.00  0.00    +0.158 HD
ATOM     23  H   UNL     1       0.851  -4.463   0.581  0.00  0.00    +0.158 HD
ENDROOT
BRANCH   1  29
ATOM     24  C   UNL     1      -0.017   1.378   0.010  0.00  0.00    +0.011 A 
ATOM     25  C   UNL     1       1.170   2.087   0.002  0.00  0.00    +0.047 A 
ATOM     26  C   UNL     1       2.380   1.411  -0.013  0.00  0.00    +0.135 A 
ATOM     27  C   UNL     1       2.397   0.022  -0.021  0.00  0.00    +0.083 A 
ATOM     28  C   UNL     1       1.208  -0.682  -0.013  0.00  0.00    +0.031 A 
ATOM     29  C   UNL     1       0.002  -0.004   0.002  0.00  0.00    -0.005 A 
ATOM     30 CL   UNL     1       3.910  -0.828  -0.040  0.00  0.00    -0.080 Cl
BRANCH  26  31
ATOM     31  O   UNL     1       3.548   2.106  -0.021  0.00  0.00    -0.505 OA
ATOM     32  H   UNL     1       3.895   2.303   0.860  0.00  0.00    +0.292 HD
ENDBRANCH  26  31
ENDBRANCH   1  29
TORSDOF 2
