REMARK  Name = ZINC63698410
REMARK  9 active torsions:
REMARK  status: ('A' for Active; 'I' for Inactive)
REMARK    1  A    between atoms: C_7  and  C_10
REMARK    2  A    between atoms: C_10  and  C_11
REMARK    3  A    between atoms: C_11  and  N_12
REMARK    4  A    between atoms: C_13  and  C_15
REMARK    5  A    between atoms: N_17  and  C_18
REMARK    6  A    between atoms: C_18  and  C_19
REMARK    7  A    between atoms: C_19  and  C_20
REMARK    8  A    between atoms: N_26  and  S_27
REMARK    9  A    between atoms: S_27  and  C_30
REMARK                            x       y       z     vdW  Elec       q    Type
REMARK                         _______ _______ _______ _____ _____    ______ ____
ROOT
ATOM      1  C   UNL     1      -0.597  -7.389  -2.795  0.00  0.00    +0.299 C 
ATOM      2  O   UNL     1      -0.806  -7.978  -1.755  0.00  0.00    -0.265 OA
ATOM      3  N   UNL     1      -1.233  -7.766  -3.922  0.00  0.00    -0.308 N 
ATOM      4  H   UNL     1      -1.065  -7.295  -4.754  0.00  0.00    +0.149 HD
ENDROOT
BRANCH   1   6
ATOM      5  N   UNL     1       1.000  -5.869  -1.698  0.00  0.00    -0.307 N 
ATOM      6  C   UNL     1       0.365  -6.246  -2.826  0.00  0.00    +0.299 C 
ATOM      7  O   UNL     1       0.575  -5.657  -3.866  0.00  0.00    -0.265 OA
ATOM      8  H   UNL     1       0.833  -6.340  -0.867  0.00  0.00    +0.149 HD
BRANCH   5   9
ATOM      9  C   UNL     1       1.944  -4.749  -1.729  0.00  0.00    +0.109 C 
BRANCH   9  10
ATOM     10  C   UNL     1       2.521  -4.530  -0.329  0.00  0.00    +0.052 C 
BRANCH  10  17
ATOM     11  C   UNL     1       2.056  -0.060   0.597  0.00  0.00    +0.001 A 
ATOM     12  C   UNL     1       3.239   0.673   0.436  0.00  0.00    +0.002 A 
ATOM     13  C   UNL     1       4.401   0.107   0.046  0.00  0.00    +0.026 A 
ATOM     14  C   UNL     1       4.466  -1.288  -0.223  0.00  0.00    +0.043 A 
ATOM     15  N   UNL     1       5.455  -2.058  -0.608  0.00  0.00    -0.380 N 
ATOM     16  C   UNL     1       4.956  -3.432  -0.733  0.00  0.00    +0.144 C 
ATOM     17  C   UNL     1       3.492  -3.378  -0.360  0.00  0.00    -0.040 C 
ATOM     18  C   UNL     1       3.229  -2.085  -0.060  0.00  0.00    -0.001 A 
ATOM     19  C   UNL     1       2.008  -1.392   0.368  0.00  0.00    +0.010 A 
ATOM     20  H   UNL     1       6.364  -1.768  -0.781  0.00  0.00    +0.160 HD
ENDBRANCH  10  17
ENDBRANCH   9  10
ENDBRANCH   5   9
ENDBRANCH   1   6
BRANCH   3  21
ATOM     21  C   UNL     1      -2.176  -8.886  -3.892  0.00  0.00    +0.106 C 
BRANCH  21  22
ATOM     22  C   UNL     1      -2.753  -9.104  -5.292  0.00  0.00    +0.039 C 
BRANCH  22  23
ATOM     23  C   UNL     1      -3.834 -10.186  -5.235  0.00  0.00    +0.081 C 
ATOM     24  C   UNL     1      -3.243 -11.472  -4.649  0.00  0.00    +0.021 C 
ATOM     25  C   UNL     1      -4.286 -12.589  -4.723  0.00  0.00    +0.003 C 
ATOM     26  C   UNL     1      -4.655 -12.849  -6.186  0.00  0.00    +0.017 C 
ATOM     27  C   UNL     1      -5.262 -11.578  -6.789  0.00  0.00    +0.110 C 
ATOM     28  N   UNL     1      -4.326 -10.463  -6.591  0.00  0.00    -0.173 NA
BRANCH  28  29
ATOM     29  S   UNL     1      -3.830  -9.540  -7.873  0.00  0.00    +0.067 S 
ATOM     30  O   UNL     1      -4.715  -9.827  -8.947  0.00  0.00    -0.152 OA
ATOM     31  O   UNL     1      -3.640  -8.222  -7.375  0.00  0.00    -0.152 OA
BRANCH  29  32
ATOM     32  C   UNL     1      -2.242 -10.130  -8.358  0.00  0.00    +0.143 A 
ATOM     33  C   UNL     1      -1.927 -11.090  -9.261  0.00  0.00    +0.036 A 
ATOM     34  C   UNL     1      -0.597 -11.391  -9.483  0.00  0.00    +0.010 A 
ATOM     35  C   UNL     1       0.354 -10.717  -8.791  0.00  0.00    +0.047 A 
ATOM     36  S   UNL     1      -0.630  -9.612  -7.792  0.00  0.00    -0.077 S 
ENDBRANCH  29  32
ENDBRANCH  28  29
ENDBRANCH  22  23
ENDBRANCH  21  22
ENDBRANCH   3  21
TORSDOF 9
