REMARK  Name = ZINC08967872
REMARK  8 active torsions:
REMARK  status: ('A' for Active; 'I' for Inactive)
REMARK    1  A    between atoms: C_4  and  C_7
REMARK    2  A    between atoms: C_7  and  C_9
REMARK    3  A    between atoms: C_7  and  S_24
REMARK    4  A    between atoms: C_9  and  N_10
REMARK    5  A    between atoms: C_11  and  C_13
REMARK    6  A    between atoms: N_15  and  N_16
REMARK    7  A    between atoms: C_17  and  C_19
REMARK    8  A    between atoms: S_24  and  C_27
REMARK                            x       y       z     vdW  Elec       q    Type
REMARK                         _______ _______ _______ _____ _____    ______ ____
ROOT
ATOM      1  N   UNL     1      -0.680  -1.995   1.247  0.00  0.00    -0.305 N 
ATOM      2  C   UNL     1      -1.245  -2.683   2.260  0.00  0.00    +0.301 C 
ATOM      3  O   UNL     1      -1.770  -2.088   3.178  0.00  0.00    -0.265 OA
ATOM      4  H   UNL     1      -0.261  -2.471   0.513  0.00  0.00    +0.149 HD
ENDROOT
BRANCH   2   5
ATOM      5  C   UNL     1      -1.225  -4.177   2.252  0.00  0.00    +0.315 C 
ATOM      6  O   UNL     1      -0.700  -4.771   1.333  0.00  0.00    -0.264 OA
ATOM      7  N   UNL     1      -1.790  -4.864   3.264  0.00  0.00    -0.226 N 
ATOM      8  H   UNL     1      -2.209  -4.389   3.998  0.00  0.00    +0.173 HD
BRANCH   7   9
ATOM      9  N   UNL     1      -1.771  -6.265   3.256  0.00  0.00    -0.230 N 
ATOM     10  C   UNL     1      -2.335  -6.952   4.269  0.00  0.00    +0.267 C 
ATOM     11  O   UNL     1      -2.862  -6.356   5.190  0.00  0.00    -0.268 OA
ATOM     12  H   UNL     1      -1.351  -6.740   2.522  0.00  0.00    +0.173 HD
BRANCH  10  13
ATOM     13  C   UNL     1      -2.315  -8.418   4.261  0.00  0.00    +0.075 A 
ATOM     14  C   UNL     1      -2.828  -9.304   5.196  0.00  0.00    +0.021 A 
ATOM     15  C   UNL     1      -2.674 -10.643   4.938  0.00  0.00    +0.008 A 
ATOM     16  C   UNL     1      -2.030 -11.031   3.806  0.00  0.00    +0.046 A 
ATOM     17  S   UNL     1      -1.619  -9.526   3.049  0.00  0.00    -0.092 S 
ENDBRANCH  10  13
ENDBRANCH   7   9
ENDBRANCH   2   5
BRANCH   1  18
ATOM     18  C   UNL     1      -0.700  -0.530   1.255  0.00  0.00    +0.136 C 
BRANCH  18  19
ATOM     19  C   UNL     1       0.002  -0.004   0.002  0.00  0.00    +0.183 C 
BRANCH  19  23
ATOM     20  C   UNL     1      -0.056   4.267   0.025  0.00  0.00    +0.000 A 
ATOM     21  C   UNL     1       1.151   3.592   0.010  0.00  0.00    +0.000 A 
ATOM     22  C   UNL     1       1.169   2.210   0.003  0.00  0.00    +0.005 A 
ATOM     23  C   UNL     1      -0.018   1.503   0.010  0.00  0.00    -0.022 A 
ATOM     24  C   UNL     1      -1.225   2.178   0.020  0.00  0.00    +0.005 A 
ATOM     25  C   UNL     1      -1.244   3.560   0.032  0.00  0.00    +0.000 A 
ENDBRANCH  19  23
BRANCH  19  26
ATOM     26  S   UNL     1      -0.859  -0.612  -1.474  0.00  0.00    +0.011 S 
ATOM     27  O   UNL     1      -0.696  -2.019  -1.591  0.00  0.00    -0.168 OA
ATOM     28  O   UNL     1      -2.148  -0.023  -1.567  0.00  0.00    -0.168 OA
BRANCH  26  29
ATOM     29  C   UNL     1       0.041   0.059  -2.832  0.00  0.00    +0.126 A 
ATOM     30  C   UNL     1       1.100  -0.464  -3.497  0.00  0.00    +0.035 A 
ATOM     31  C   UNL     1       1.650   0.247  -4.547  0.00  0.00    +0.009 A 
ATOM     32  C   UNL     1       1.122   1.451  -4.874  0.00  0.00    +0.047 A 
ATOM     33  S   UNL     1      -0.200   1.609  -3.684  0.00  0.00    -0.078 S 
ENDBRANCH  26  29
ENDBRANCH  19  26
ENDBRANCH  18  19
ENDBRANCH   1  18
TORSDOF 8
