REMARK  Name = ZINC20834878
REMARK  13 active torsions:
REMARK  status: ('A' for Active; 'I' for Inactive)
REMARK    1  A    between atoms: C_1  and  C_2
REMARK    2  A    between atoms: C_2  and  C_37
REMARK    3  A    between atoms: C_4  and  N_10
REMARK    4  A    between atoms: C_6  and  C_8
REMARK    5  A    between atoms: C_6  and  C_9
REMARK    6  A    between atoms: C_11  and  C_13
REMARK    7  A    between atoms: C_13  and  S_14
REMARK    8  A    between atoms: S_14  and  C_15
REMARK    9  A    between atoms: N_20  and  N_21
REMARK   10  A    between atoms: C_22  and  C_23
REMARK   11  A    between atoms: C_28  and  O_29
REMARK   12  A    between atoms: O_29  and  C_30
REMARK   13  A    between atoms: C_30  and  C_31
REMARK                            x       y       z     vdW  Elec       q    Type
REMARK                         _______ _______ _______ _____ _____    ______ ____
ROOT
ATOM      1  C   UNL     1      -0.029   1.357  -5.177  0.00  0.00    +0.211 A 
ATOM      2  N   UNL     1       1.043   0.755  -5.773  0.00  0.00    -0.186 NA
ATOM      3  C   UNL     1       1.873   0.298  -4.787  0.00  0.00    +0.232 A 
ATOM      4  N   UNL     1       1.333   0.599  -3.631  0.00  0.00    -0.245 N 
ATOM      5  N   UNL     1       0.131   1.275  -3.878  0.00  0.00    -0.144 NA
ATOM      6  N   UNL     1       3.072  -0.373  -4.977  0.00  0.00    -0.205 N 
ATOM      7  H   UNL     1       3.432  -0.579  -5.995  0.00  0.00    +0.177 HD
ATOM      8  H   UNL     1       1.838   0.314  -2.697  0.00  0.00    +0.192 HD
ENDROOT
BRANCH   6   9
ATOM      9  N   UNL     1       3.826  -0.787  -3.870  0.00  0.00    -0.187 NA
ATOM     10  C   UNL     1       4.949  -1.415  -4.048  0.00  0.00    +0.142 C 
BRANCH  10  11
ATOM     11  C   UNL     1       5.741  -1.850  -2.884  0.00  0.00    +0.036 A 
ATOM     12  C   UNL     1       6.952  -2.522  -3.071  0.00  0.00    +0.013 A 
ATOM     13  C   UNL     1       7.686  -2.931  -1.978  0.00  0.00    +0.001 A 
ATOM     14  C   UNL     1       7.230  -2.676  -0.695  0.00  0.00    +0.004 A 
ATOM     15  C   UNL     1       6.036  -2.008  -0.498  0.00  0.00    +0.046 A 
ATOM     16  C   UNL     1       5.287  -1.589  -1.585  0.00  0.00    +0.130 A 
BRANCH  16  17
ATOM     17  O   UNL     1       4.113  -0.932  -1.391  0.00  0.00    -0.487 OA
BRANCH  17  18
ATOM     18  C   UNL     1       3.711  -0.707  -0.039  0.00  0.00    +0.264 C 
BRANCH  18  19
ATOM     19  C   UNL     1       2.396   0.029  -0.022  0.00  0.00    -0.010 A 
ATOM     20  C   UNL     1       1.208  -0.679  -0.014  0.00  0.00    +0.007 A 
ATOM     21  C   UNL     1       0.002  -0.004   0.002  0.00  0.00    +0.000 A 
ATOM     22  C   UNL     1      -0.017   1.378   0.010  0.00  0.00    +0.000 A 
ATOM     23  C   UNL     1       1.171   2.086   0.002  0.00  0.00    +0.000 A 
ATOM     24  C   UNL     1       2.377   1.411  -0.014  0.00  0.00    +0.007 A 
ENDBRANCH  18  19
ENDBRANCH  17  18
ENDBRANCH  16  17
ENDBRANCH  10  11
ENDBRANCH   6   9
BRANCH   1  25
ATOM     25  S   UNL     1      -1.388   2.109  -6.009  0.00  0.00    -0.075 S 
BRANCH  25  26
ATOM     26  C   UNL     1      -2.448   2.709  -4.664  0.00  0.00    +0.173 C 
BRANCH  26  28
ATOM     27  N   UNL     1      -4.597   3.909  -4.428  0.00  0.00    -0.312 N 
ATOM     28  C   UNL     1      -3.663   3.383  -5.245  0.00  0.00    +0.224 C 
ATOM     29  O   UNL     1      -3.802   3.453  -6.448  0.00  0.00    -0.275 OA
ATOM     30  H   UNL     1      -4.472   3.846  -3.337  0.00  0.00    +0.149 HD
BRANCH  27  34
ATOM     31  C   UNL     1      -8.828   4.309  -5.583  0.00  0.00    -0.010 C 
ATOM     32  C   UNL     1      -8.163   5.207  -4.533  0.00  0.00    -0.072 C 
ATOM     33  C   UNL     1      -6.923   4.511  -3.978  0.00  0.00    +0.009 C 
ATOM     34  C   UNL     1      -5.782   4.567  -4.994  0.00  0.00    +0.070 C 
ATOM     35  C   UNL     1      -5.457   6.033  -5.279  0.00  0.00    +0.009 C 
ATOM     36  C   UNL     1      -6.679   6.748  -5.848  0.00  0.00    -0.072 C 
ATOM     37  N   UNL     1      -7.880   6.521  -5.071  0.00  0.00    +0.386 N 
ATOM     38  C   UNL     1      -6.879   6.336  -7.311  0.00  0.00    -0.010 C 
ATOM     39  C   UNL     1      -6.378   8.264  -5.837  0.00  0.00    -0.010 C 
ATOM     40  C   UNL     1      -9.166   5.368  -3.369  0.00  0.00    -0.010 C 
ATOM     41  H   UNL     1      -8.693   6.822  -5.749  0.00  0.00    -0.084 HD
ATOM     42  H   UNL     1      -7.802   7.245  -4.248  0.00  0.00    -0.084 HD
ENDBRANCH  27  34
ENDBRANCH  26  28
ENDBRANCH  25  26
ENDBRANCH   1  25
TORSDOF 9
