REMARK  Name = ZINC04537795
REMARK  11 active torsions:
REMARK  status: ('A' for Active; 'I' for Inactive)
REMARK    1  A    between atoms: C_1  and  C_2
REMARK    2  A    between atoms: C_4  and  C_28
REMARK    3  A    between atoms: C_6  and  N_8
REMARK    4  A    between atoms: N_8  and  C_9
REMARK    5  A    between atoms: C_9  and  C_10
REMARK    6  A    between atoms: C_10  and  C_11
REMARK    7  A    between atoms: C_13  and  C_15
REMARK    8  A    between atoms: C_15  and  S_16
REMARK    9  A    between atoms: S_16  and  C_17
REMARK   10  A    between atoms: C_20  and  C_23
REMARK   11  A    between atoms: N_21  and  N_22
REMARK                            x       y       z     vdW  Elec       q    Type
REMARK                         _______ _______ _______ _____ _____    ______ ____
ROOT
ATOM      1  N   UNL     1      -0.242   1.246   2.466  0.00  0.00    -0.270 N 
ATOM      2  C   UNL     1      -0.860   1.359   1.274  0.00  0.00    +0.230 C 
ATOM      3  O   UNL     1      -1.969   1.847   1.210  0.00  0.00    -0.274 OA
ENDROOT
BRANCH   1   9
ATOM      4  C   UNL     1      -1.680   5.176   5.045  0.00  0.00    +0.044 C 
ATOM      5  C   UNL     1      -1.544   3.684   4.891  0.00  0.00    -0.048 A 
ATOM      6  C   UNL     1      -2.004   2.842   5.887  0.00  0.00    +0.006 A 
ATOM      7  C   UNL     1      -1.881   1.471   5.750  0.00  0.00    -0.048 A 
ATOM      8  C   UNL     1      -1.297   0.939   4.617  0.00  0.00    +0.027 A 
ATOM      9  C   UNL     1      -0.833   1.782   3.615  0.00  0.00    +0.037 A 
ATOM     10  C   UNL     1      -0.953   3.158   3.759  0.00  0.00    +0.027 A 
ATOM     11  C   UNL     1      -2.384   0.557   6.837  0.00  0.00    +0.044 C 
ENDBRANCH   1   9
BRANCH   1  12
ATOM     12  C   UNL     1       1.051   0.562   2.558  0.00  0.00    +0.128 C 
BRANCH  12  13
ATOM     13  C   UNL     1       2.179   1.575   2.357  0.00  0.00    +0.138 C 
BRANCH  13  14
ATOM     14  C   UNL     1       3.478   0.887   2.450  0.00  0.00    +0.064 C 
ATOM     15  N   UNL     1       4.480   0.357   2.521  0.00  0.00    -0.197 NA
ENDBRANCH  13  14
ENDBRANCH  12  13
ENDBRANCH   1  12
BRANCH   2  16
ATOM     16  C   UNL     1      -0.175   0.879   0.020  0.00  0.00    +0.173 C 
BRANCH  16  17
ATOM     17  S   UNL     1      -1.253   1.166  -1.405  0.00  0.00    -0.075 S 
BRANCH  17  18
ATOM     18  C   UNL     1      -0.233   0.532  -2.693  0.00  0.00    +0.209 A 
ATOM     19  N   UNL     1       0.966   0.013  -2.554  0.00  0.00    -0.120 NA
ATOM     20  N   UNL     1       1.427  -0.351  -3.696  0.00  0.00    -0.123 NA
ATOM     21  C   UNL     1       0.549  -0.087  -4.639  0.00  0.00    +0.217 A 
ATOM     22  N   UNL     1      -0.544   0.482  -4.023  0.00  0.00    -0.221 N 
BRANCH  21  23
ATOM     23  C   UNL     1       0.702  -0.354  -6.078  0.00  0.00    +0.173 A 
ATOM     24  C   UNL     1       1.641  -1.162  -6.646  0.00  0.00    +0.053 A 
ATOM     25  C   UNL     1       1.418  -1.127  -8.036  0.00  0.00    +0.042 A 
ATOM     26  C   UNL     1       0.373  -0.303  -8.248  0.00  0.00    +0.196 A 
ATOM     27  O   UNL     1      -0.057   0.162  -7.064  0.00  0.00    -0.460 OA
ENDBRANCH  21  23
BRANCH  22  28
ATOM     28  N   UNL     1      -1.697   0.910  -4.618  0.00  0.00    -0.294 N 
ATOM     29  H   UNL     1      -1.623   1.877  -4.896  0.00  0.00    +0.163 HD
ATOM     30  H   UNL     1      -1.937   0.324  -5.404  0.00  0.00    +0.163 HD
ENDBRANCH  22  28
ENDBRANCH  17  18
ENDBRANCH  16  17
ENDBRANCH   2  16
TORSDOF 9
