REMARK  Name = ZINC16192591
REMARK  5 active torsions:
REMARK  status: ('A' for Active; 'I' for Inactive)
REMARK    1  A    between atoms: C_3  and  S_27
REMARK    2  A    between atoms: C_6  and  N_7
REMARK    3  A    between atoms: C_11  and  C_12
REMARK    4  A    between atoms: C_21  and  C_23
REMARK    5  A    between atoms: S_27  and  N_30
REMARK                            x       y       z     vdW  Elec       q    Type
REMARK                         _______ _______ _______ _____ _____    ______ ____
ROOT
ATOM      1  N   UNL     1       6.791  -2.556   3.291  0.00  0.00    -0.156 N 
ATOM      2  C   UNL     1       5.688  -1.967   2.789  0.00  0.00    +0.272 C 
ATOM      3  O   UNL     1       5.564  -0.800   2.460  0.00  0.00    -0.268 OA
ATOM      4  C   UNL     1       4.662  -3.021   2.718  0.00  0.00    +0.071 C 
ATOM      5  C   UNL     1       3.358  -2.901   2.268  0.00  0.00    +0.023 C 
ATOM      6  C   UNL     1       5.324  -4.228   3.237  0.00  0.00    +0.174 C 
ATOM      7  N   UNL     1       6.542  -3.904   3.545  0.00  0.00    -0.167 NA
ENDROOT
BRANCH   5   8
ATOM      8  C   UNL     1       2.918  -1.665   1.623  0.00  0.00    -0.021 A 
ATOM      9  C   UNL     1       1.625  -1.172   1.853  0.00  0.00    +0.012 A 
ATOM     10  C   UNL     1       1.215  -0.009   1.244  0.00  0.00    +0.050 A 
ATOM     11  C   UNL     1       2.077   0.682   0.400  0.00  0.00    +0.166 A 
ATOM     12  C   UNL     1       3.367   0.198   0.165  0.00  0.00    +0.167 A 
ATOM     13  C   UNL     1       3.788  -0.968   0.770  0.00  0.00    +0.057 A 
ATOM     14  O   UNL     1       4.002   1.051  -0.691  0.00  0.00    -0.453 OA
ATOM     15  C   UNL     1       2.957   1.835  -1.296  0.00  0.00    +0.466 C 
ATOM     16  O   UNL     1       1.911   1.835  -0.308  0.00  0.00    -0.453 OA
ENDBRANCH   5   8
BRANCH   1  22
ATOM     17  C   UNL     1       8.149  -0.558   3.231  0.00  0.00    +0.027 A 
ATOM     18  C   UNL     1       9.351   0.080   3.467  0.00  0.00    +0.030 A 
ATOM     19  C   UNL     1      10.419  -0.627   3.988  0.00  0.00    +0.105 A 
ATOM     20  C   UNL     1      10.287  -1.973   4.277  0.00  0.00    +0.030 A 
ATOM     21  C   UNL     1       9.086  -2.615   4.048  0.00  0.00    +0.027 A 
ATOM     22  C   UNL     1       8.011  -1.908   3.525  0.00  0.00    +0.060 A 
BRANCH  19  23
ATOM     23  S   UNL     1      11.953   0.188   4.282  0.00  0.00    +0.056 S 
ATOM     24  O   UNL     1      11.656   1.569   4.439  0.00  0.00    -0.153 OA
ATOM     25  O   UNL     1      12.628  -0.564   5.281  0.00  0.00    -0.153 OA
BRANCH  23  26
ATOM     26  N   UNL     1      12.854   0.052   2.899  0.00  0.00    -0.204 NA
ATOM     27  H   UNL     1      12.493  -0.416   2.130  0.00  0.00    +0.144 HD
ATOM     28  H   UNL     1      13.742   0.441   2.858  0.00  0.00    +0.144 HD
ENDBRANCH  23  26
ENDBRANCH  19  23
ENDBRANCH   1  22
BRANCH   6  29
ATOM     29  C   UNL     1       4.701  -5.592   3.381  0.00  0.00    +0.436 C 
ATOM     30  F   UNL     1       5.643  -6.481   3.910  0.00  0.00    -0.164 F 
ATOM     31  F   UNL     1       3.600  -5.514   4.241  0.00  0.00    -0.164 F 
ATOM     32  F   UNL     1       4.282  -6.049   2.127  0.00  0.00    -0.164 F 
ENDBRANCH   6  29
TORSDOF 5
