REMARK  Name = ZINC14357600
REMARK  11 active torsions:
REMARK  status: ('A' for Active; 'I' for Inactive)
REMARK    1  A    between atoms: C_1  and  S_2
REMARK    2  A    between atoms: S_2  and  C_3
REMARK    3  A    between atoms: C_3  and  C_4
REMARK    4  A    between atoms: C_4  and  C_5
REMARK    5  A    between atoms: C_5  and  C_7
REMARK    6  A    between atoms: C_5  and  N_27
REMARK    7  A    between atoms: C_7  and  O_9
REMARK    8  A    between atoms: O_9  and  C_10
REMARK    9  A    between atoms: C_10  and  C_11
REMARK   10  A    between atoms: C_14  and  C_16
REMARK   11  A    between atoms: C_28  and  C_30
REMARK                            x       y       z     vdW  Elec       q    Type
REMARK                         _______ _______ _______ _____ _____    ______ ____
ROOT
ATOM      1  C   UNL     1      -3.939  12.643   0.038  0.00  0.00    +0.328 C 
ATOM      2  O   UNL     1      -4.957  12.367  -0.551  0.00  0.00    -0.249 OA
ENDROOT
BRANCH   1   3
ATOM      3  C   UNL     1      -3.702  14.053   0.514  0.00  0.00    +0.183 C 
BRANCH   3   4
ATOM      4  N   UNL     1      -4.845  14.892   0.143  0.00  0.00    -0.298 N 
ATOM      5  C   UNL     1      -5.121  16.006   0.851  0.00  0.00    +0.246 C 
ATOM      6  O   UNL     1      -4.422  16.314   1.797  0.00  0.00    -0.270 OA
ATOM      7  H   UNL     1      -5.402  14.646  -0.611  0.00  0.00    +0.150 HD
BRANCH   5   8
ATOM      8  C   UNL     1      -6.273  16.852   0.477  0.00  0.00    +0.055 A 
ATOM      9  C   UNL     1      -7.075  16.504  -0.612  0.00  0.00    +0.014 A 
ATOM     10  C   UNL     1      -8.152  17.295  -0.952  0.00  0.00    +0.001 A 
ATOM     11  C   UNL     1      -8.434  18.437  -0.223  0.00  0.00    +0.001 A 
ATOM     12  C   UNL     1      -7.642  18.792   0.853  0.00  0.00    +0.021 A 
ATOM     13  C   UNL     1      -6.563  18.006   1.208  0.00  0.00    +0.053 A 
ATOM     14 CL   UNL     1      -5.568  18.453   2.560  0.00  0.00    -0.083 Cl
ENDBRANCH   5   8
ENDBRANCH   3   4
BRANCH   3  15
ATOM     15  C   UNL     1      -2.432  14.605  -0.137  0.00  0.00    +0.044 C 
BRANCH  15  16
ATOM     16  C   UNL     1      -2.123  15.988   0.440  0.00  0.00    +0.071 C 
BRANCH  16  18
ATOM     17  C   UNL     1      -0.392  18.264   0.451  0.00  0.00    +0.084 C 
ATOM     18  S   UNL     1      -0.617  16.642  -0.331  0.00  0.00    -0.164 S 
ENDBRANCH  16  18
ENDBRANCH  15  16
ENDBRANCH   3  15
ENDBRANCH   1   3
BRANCH   1  19
ATOM     19  O   UNL     1      -3.018  11.694   0.267  0.00  0.00    -0.454 OA
BRANCH  19  20
ATOM     20  C   UNL     1      -3.313  10.358  -0.220  0.00  0.00    +0.328 C 
BRANCH  20  21
ATOM     21  C   UNL     1      -2.174   9.434   0.127  0.00  0.00    +0.257 C 
ATOM     22  O   UNL     1      -1.209   9.860   0.726  0.00  0.00    -0.272 OA
ATOM     23  N   UNL     1      -2.228   8.135  -0.228  0.00  0.00    -0.250 N 
ATOM     24  C   UNL     1      -1.209   7.309   0.082  0.00  0.00    +0.263 C 
ATOM     25  O   UNL     1      -0.245   7.734   0.681  0.00  0.00    -0.271 OA
ATOM     26  H   UNL     1      -3.000   7.795  -0.707  0.00  0.00    +0.158 HD
BRANCH  24  27
ATOM     27  C   UNL     1      -1.270   5.856  -0.315  0.00  0.00    +0.296 C 
ATOM     28  C   UNL     1      -2.417   5.163   0.432  0.00  0.00    +0.283 C 
ATOM     29  O   UNL     1      -2.437   3.785   0.043  0.00  0.00    -0.484 OA
ATOM     30  C   UNL     1      -1.241   3.136   0.031  0.00  0.00    +0.162 A 
ATOM     31  C   UNL     1      -1.219   1.749   0.017  0.00  0.00    +0.049 A 
ATOM     32  C   UNL     1      -0.013   1.076   0.008  0.00  0.00    +0.004 A 
ATOM     33  C   UNL     1       1.176   1.782   0.000  0.00  0.00    +0.004 A 
ATOM     34  C   UNL     1       1.161   3.164   0.009  0.00  0.00    +0.049 A 
ATOM     35  C   UNL     1      -0.046   3.846   0.026  0.00  0.00    +0.163 A 
ATOM     36  O   UNL     1      -0.045   5.207   0.043  0.00  0.00    -0.473 OA
ENDBRANCH  24  27
ENDBRANCH  20  21
ENDBRANCH  19  20
ENDBRANCH   1  19
TORSDOF 10
