REMARK  Name = ZINC49493321
REMARK  4 active torsions:
REMARK  status: ('A' for Active; 'I' for Inactive)
REMARK    1  A    between atoms: C_6  and  S_7
REMARK    2  A    between atoms: S_7  and  C_8
REMARK    3  A    between atoms: C_8  and  C_9
REMARK    4  A    between atoms: C_11  and  C_14
REMARK                            x       y       z     vdW  Elec       q    Type
REMARK                         _______ _______ _______ _____ _____    ______ ____
ROOT
ATOM      1  C   UNL     1      -2.194  -3.539   0.004  0.00  0.00    +0.182 A 
ATOM      2  N   UNL     1      -2.810  -4.000   1.095  0.00  0.00    -0.191 NA
ATOM      3  C   UNL     1      -3.834  -4.752   0.749  0.00  0.00    +0.259 A 
ATOM      4  O   UNL     1      -3.890  -4.784  -0.594  0.00  0.00    -0.333 OA
ATOM      5  N   UNL     1      -2.813  -3.981  -1.054  0.00  0.00    -0.060 NA
ENDROOT
BRANCH   3   6
ATOM      6  C   UNL     1      -4.756  -5.438   1.672  0.00  0.00    +0.046 A 
ATOM      7  C   UNL     1      -5.846  -6.244   1.183  0.00  0.00    +0.021 A 
ATOM      8  C   UNL     1      -6.618  -6.819   2.130  0.00  0.00    +0.046 A 
ATOM      9  S   UNL     1      -5.865  -6.266   3.645  0.00  0.00    -0.104 S 
ATOM     10  C   UNL     1      -4.610  -5.341   3.026  0.00  0.00    +0.058 A 
ENDBRANCH   3   6
BRANCH   1  11
ATOM     11  C   UNL     1      -0.981  -2.645  -0.003  0.00  0.00    +0.155 C 
BRANCH  11  12
ATOM     12  S   UNL     1      -1.509  -0.910   0.012  0.00  0.00    -0.096 S 
BRANCH  12  18
ATOM     13  C   UNL     1      -0.017   1.391   0.010  0.00  0.00    +0.039 A 
ATOM     14  C   UNL     1       1.198   2.056   0.002  0.00  0.00    +0.044 A 
ATOM     15  C   UNL     1       2.360   1.294  -0.013  0.00  0.00    +0.152 A 
ATOM     16  N   UNL     1       2.285  -0.023  -0.020  0.00  0.00    -0.137 NA
ATOM     17  N   UNL     1       1.162  -0.645  -0.013  0.00  0.00    -0.142 NA
ATOM     18  C   UNL     1       0.002  -0.004   0.002  0.00  0.00    +0.120 A 
ATOM     19 CL   UNL     1       3.910   2.075  -0.025  0.00  0.00    -0.060 Cl
ENDBRANCH  12  18
ENDBRANCH  11  12
ENDBRANCH   1  11
TORSDOF 4
