REMARK  Name = ZINC12042343
REMARK  11 active torsions:
REMARK  status: ('A' for Active; 'I' for Inactive)
REMARK    1  A    between atoms: C_1  and  N_2
REMARK    2  A    between atoms: C_5  and  C_9
REMARK    3  A    between atoms: C_5  and  C_18
REMARK    4  A    between atoms: C_9  and  C_10
REMARK    5  A    between atoms: C_14  and  O_16
REMARK    6  A    between atoms: O_16  and  C_17
REMARK    7  A    between atoms: C_23  and  C_24
REMARK    8  A    between atoms: C_23  and  N_64
REMARK    9  A    between atoms: C_27  and  O_32
REMARK   10  A    between atoms: C_28  and  O_30
REMARK   11  A    between atoms: O_30  and  C_31
REMARK                            x       y       z     vdW  Elec       q    Type
REMARK                         _______ _______ _______ _____ _____    ______ ____
ROOT
ATOM      1  C   UNL     1      -0.639   0.143   4.228  0.00  0.00    +0.143 C 
ATOM      2  N   UNL     1      -0.921   1.180   3.232  0.00  0.00    -0.227 N 
ATOM      3  C   UNL     1      -1.816   1.047   2.234  0.00  0.00    +0.247 C 
ATOM      4  O   UNL     1      -2.514   0.083   1.999  0.00  0.00    -0.273 OA
ATOM      5  C   UNL     1      -1.771   2.353   1.466  0.00  0.00    +0.119 C 
ATOM      6  N   UNL     1      -0.760   3.145   2.189  0.00  0.00    -0.284 N 
ATOM      7  C   UNL     1      -0.323   2.376   3.202  0.00  0.00    +0.309 C 
ATOM      8  O   UNL     1       0.522   2.729   4.002  0.00  0.00    -0.252 OA
ATOM      9  H   UNL     1      -0.468   4.045   1.976  0.00  0.00    +0.151 HD
ENDROOT
BRANCH   5  10
ATOM     10  C   UNL     1      -3.131   3.052   1.505  0.00  0.00    +0.018 C 
ATOM     11  C   UNL     1      -3.034   4.401   0.787  0.00  0.00    -0.013 C 
ATOM     12  C   UNL     1      -4.380   5.123   0.883  0.00  0.00    -0.078 C 
ATOM     13  C   UNL     1      -4.877   4.038   2.992  0.00  0.00    -0.078 C 
ATOM     14  C   UNL     1      -3.545   3.284   2.960  0.00  0.00    -0.013 C 
ATOM     15  N   UNL     1      -4.710   5.338   2.309  0.00  0.00    +0.382 N 
ATOM     16  H   UNL     1      -3.941   5.852   2.755  0.00  0.00    -0.081 HD
BRANCH  15  17
ATOM     17  C   UNL     1      -5.949   6.133   2.425  0.00  0.00    -0.043 C 
BRANCH  17  18
ATOM     18  C   UNL     1      -5.682   7.526   1.917  0.00  0.00    -0.060 A 
ATOM     19  C   UNL     1      -5.901   7.828   0.586  0.00  0.00    +0.005 A 
ATOM     20  C   UNL     1      -5.658   9.105   0.114  0.00  0.00    +0.049 A 
ATOM     21  C   UNL     1      -5.194  10.085   0.977  0.00  0.00    +0.158 A 
ATOM     22  C   UNL     1      -4.974   9.781   2.317  0.00  0.00    +0.161 A 
ATOM     23  C   UNL     1      -5.225   8.501   2.784  0.00  0.00    +0.051 A 
BRANCH  22  24
ATOM     24  O   UNL     1      -4.519  10.739   3.167  0.00  0.00    -0.491 OA
ATOM     25  C   UNL     1      -4.316  10.355   4.529  0.00  0.00    +0.277 C 
ENDBRANCH  22  24
BRANCH  21  26
ATOM     26  O   UNL     1      -4.955  11.342   0.515  0.00  0.00    -0.503 OA
ATOM     27  H   UNL     1      -5.718  11.933   0.571  0.00  0.00    +0.292 HD
ENDBRANCH  21  26
ENDBRANCH  17  18
ENDBRANCH  15  17
ENDBRANCH   5  10
BRANCH   5  28
ATOM     28  C   UNL     1      -1.332   2.112   0.020  0.00  0.00    +0.070 C 
BRANCH  28  29
ATOM     29  C   UNL     1      -0.017   1.377   0.010  0.00  0.00    -0.041 A 
ATOM     30  C   UNL     1       1.171   2.086   0.002  0.00  0.00    +0.004 A 
ATOM     31  C   UNL     1       2.379   1.415  -0.013  0.00  0.00    +0.004 A 
ATOM     32  C   UNL     1       2.403   0.033  -0.021  0.00  0.00    +0.045 A 
ATOM     33  C   UNL     1       1.214  -0.680  -0.013  0.00  0.00    +0.120 A 
ATOM     34  C   UNL     1       0.002  -0.004   0.002  0.00  0.00    +0.049 A 
BRANCH  33  35
ATOM     35  O   UNL     1       1.235  -2.039  -0.020  0.00  0.00    -0.495 OA
ATOM     36  C   UNL     1       2.518  -2.668  -0.036  0.00  0.00    +0.277 C 
ENDBRANCH  33  35
ENDBRANCH  28  29
ENDBRANCH   5  28
TORSDOF 8
