REMARK  Name = ZINC20990096
REMARK  9 active torsions:
REMARK  status: ('A' for Active; 'I' for Inactive)
REMARK    1  A    between atoms: C_1  and  C_2
REMARK    2  A    between atoms: C_6  and  C_7
REMARK    3  A    between atoms: C_7  and  C_8
REMARK    4  A    between atoms: C_8  and  N_9
REMARK    5  A    between atoms: N_9  and  S_10
REMARK    6  A    between atoms: S_10  and  C_13
REMARK    7  A    between atoms: C_18  and  C_19
REMARK    8  A    between atoms: C_25  and  C_29
REMARK    9  A    between atoms: C_25  and  C_30
REMARK                            x       y       z     vdW  Elec       q    Type
REMARK                         _______ _______ _______ _____ _____    ______ ____
ROOT
ATOM      1  C   UNL     1       3.130  -4.146   3.759  0.00  0.00    +0.110 A 
ATOM      2  C   UNL     1       3.012  -5.422   4.267  0.00  0.00    +0.055 A 
ATOM      3  C   UNL     1       1.969  -5.734   5.132  0.00  0.00    +0.049 A 
ATOM      4  C   UNL     1       1.035  -4.738   5.472  0.00  0.00    +0.011 A 
ATOM      5  C   UNL     1       1.165  -3.455   4.947  0.00  0.00    +0.016 A 
ATOM      6  C   UNL     1       2.208  -3.166   4.095  0.00  0.00    -0.023 A 
ATOM      7  C   UNL     1       2.349  -1.777   3.526  0.00  0.00    +0.046 C 
ATOM      8  C   UNL     1       0.084  -5.388   6.377  0.00  0.00    +0.046 A 
ATOM      9  C   UNL     1       0.504  -6.702   6.522  0.00  0.00    +0.028 A 
ATOM     10  N   UNL     1       1.606  -6.897   5.786  0.00  0.00    -0.357 N 
ATOM     11  H   UNL     1       2.205  -7.811   5.657  0.00  0.00    +0.166 HD
ATOM     12  C   UNL     1      -0.233  -7.682   7.404  0.00  0.00    +0.060 C 
ATOM     13  C   UNL     1      -0.955  -6.887   8.498  0.00  0.00    -0.023 C 
ATOM     14  C   UNL     1      -1.873  -5.833   7.878  0.00  0.00    +0.086 C 
ATOM     15  C   UNL     1      -1.064  -4.876   7.030  0.00  0.00    +0.166 C 
ATOM     16  O   UNL     1      -1.387  -3.712   6.913  0.00  0.00    -0.292 OA
ATOM     17  C   UNL     1       0.081  -6.194   9.386  0.00  0.00    +0.011 C 
ATOM     18  C   UNL     1      -1.790  -7.845   9.351  0.00  0.00    +0.011 C 
ENDROOT
BRANCH   1  19
ATOM     19  S   UNL     1       4.458  -3.759   2.669  0.00  0.00    +0.059 S 
ATOM     20  O   UNL     1       3.886  -3.093   1.551  0.00  0.00    -0.153 OA
ATOM     21  O   UNL     1       5.233  -4.943   2.536  0.00  0.00    -0.153 OA
BRANCH  19  22
ATOM     22  N   UNL     1       5.417  -2.650   3.440  0.00  0.00    -0.190 NA
ATOM     23  H   UNL     1       5.390  -1.599   3.116  0.00  0.00    +0.148 HD
BRANCH  22  24
ATOM     24  C   UNL     1       6.121  -3.020   4.670  0.00  0.00    +0.111 C 
BRANCH  24  25
ATOM     25  C   UNL     1       7.214  -1.991   4.962  0.00  0.00    +0.059 C 
BRANCH  25  31
ATOM     26  C   UNL     1       9.698  -3.784   5.185  0.00  0.00    +0.044 C 
ATOM     27  C   UNL     1       9.033  -3.155   6.382  0.00  0.00    -0.040 A 
ATOM     28  C   UNL     1       9.531  -3.369   7.654  0.00  0.00    +0.011 A 
ATOM     29  C   UNL     1       8.909  -2.788   8.709  0.00  0.00    +0.046 A 
ATOM     30  S   UNL     1       7.576  -1.906   7.913  0.00  0.00    -0.101 S 
ATOM     31  C   UNL     1       7.938  -2.371   6.227  0.00  0.00    -0.006 A 
ENDBRANCH  25  31
ENDBRANCH  24  25
ENDBRANCH  22  24
ENDBRANCH  19  22
ENDBRANCH   1  19
TORSDOF 5
