REMARK  Name = ZINC38686464
REMARK  9 active torsions:
REMARK  status: ('A' for Active; 'I' for Inactive)
REMARK    1  A    between atoms: C_6  and  C_7
REMARK    2  A    between atoms: C_7  and  O_8
REMARK    3  A    between atoms: O_8  and  C_9
REMARK    4  A    between atoms: C_12  and  C_15
REMARK    5  A    between atoms: C_20  and  O_29
REMARK    6  A    between atoms: C_24  and  N_28
REMARK    7  A    between atoms: C_25  and  C_26
REMARK    8  A    between atoms: O_29  and  C_30
REMARK    9  A    between atoms: C_30  and  C_32
REMARK                            x       y       z     vdW  Elec       q    Type
REMARK                         _______ _______ _______ _____ _____    ______ ____
ROOT
ATOM      1  C   UNL     1      -6.492  -3.876  -2.097  0.00  0.00    +0.098 C 
ATOM      2  C   UNL     1      -7.481  -3.015  -2.838  0.00  0.00    +0.008 A 
ATOM      3  C   UNL     1      -8.205  -2.061  -2.145  0.00  0.00    +0.012 A 
ATOM      4  C   UNL     1      -9.116  -1.262  -2.807  0.00  0.00    +0.047 A 
ATOM      5  C   UNL     1      -9.309  -1.416  -4.173  0.00  0.00    +0.135 A 
ATOM      6  C   UNL     1      -8.585  -2.370  -4.870  0.00  0.00    +0.093 A 
ATOM      7  C   UNL     1      -7.669  -3.172  -4.202  0.00  0.00    +0.138 A 
ATOM      8  O   UNL     1      -6.969  -4.102  -4.898  0.00  0.00    -0.441 OA
ATOM      9  C   UNL     1      -6.386  -5.125  -4.251  0.00  0.00    +0.199 C 
ATOM     10  C   UNL     1      -6.133  -5.078  -2.925  0.00  0.00    +0.098 C 
ENDROOT
BRANCH   1  14
ATOM     11  C   UNL     1      -2.962  -1.607  -1.292  0.00  0.00    +0.121 A 
ATOM     12  C   UNL     1      -3.702  -2.135  -0.244  0.00  0.00    +0.046 A 
ATOM     13  C   UNL     1      -4.843  -2.868  -0.507  0.00  0.00    +0.008 A 
ATOM     14  C   UNL     1      -5.247  -3.076  -1.813  0.00  0.00    -0.034 A 
ATOM     15  C   UNL     1      -4.511  -2.551  -2.859  0.00  0.00    +0.008 A 
ATOM     16  C   UNL     1      -3.373  -1.812  -2.601  0.00  0.00    +0.046 A 
BRANCH  11  17
ATOM     17  O   UNL     1      -1.839  -0.885  -1.036  0.00  0.00    -0.487 OA
BRANCH  17  18
ATOM     18  C   UNL     1      -1.477  -0.714   0.336  0.00  0.00    +0.264 C 
BRANCH  18  24
ATOM     19  C   UNL     1      -0.293   1.484   0.512  0.00  0.00    +0.010 A 
ATOM     20  C   UNL     1       0.863   2.237   0.593  0.00  0.00    +0.039 A 
ATOM     21  C   UNL     1       2.098   1.612   0.585  0.00  0.00    +0.123 A 
ATOM     22  C   UNL     1       2.174   0.233   0.496  0.00  0.00    +0.039 A 
ATOM     23  C   UNL     1       1.017  -0.519   0.415  0.00  0.00    +0.010 A 
ATOM     24  C   UNL     1      -0.216   0.106   0.423  0.00  0.00    -0.010 A 
ATOM     25  F   UNL     1       3.229   2.348   0.663  0.00  0.00    -0.205 F 
ENDBRANCH  18  24
ENDBRANCH  17  18
ENDBRANCH  11  17
ENDBRANCH   1  14
BRANCH   9  26
ATOM     26  N   UNL     1      -6.037  -6.248  -4.958  0.00  0.00    -0.328 N 
ATOM     27  H   UNL     1      -6.212  -6.295  -5.911  0.00  0.00    +0.145 HD
ATOM     28  H   UNL     1      -5.616  -6.995  -4.505  0.00  0.00    +0.145 HD
ENDBRANCH   9  26
BRANCH  10  29
ATOM     29  C   UNL     1      -5.508  -6.202  -2.295  0.00  0.00    +0.101 C 
ATOM     30  N   UNL     1      -5.011  -7.094  -1.795  0.00  0.00    -0.191 NA
ENDBRANCH  10  29
BRANCH   5  31
ATOM     31  O   UNL     1     -10.205  -0.631  -4.827  0.00  0.00    -0.422 OA
BRANCH  31  32
ATOM     32  C   UNL     1     -11.329  -1.209  -5.295  0.00  0.00    +0.344 C 
ATOM     33  O   UNL     1     -11.566  -2.372  -5.039  0.00  0.00    -0.245 OA
BRANCH  32  34
ATOM     34  C   UNL     1     -12.272  -0.428  -6.120  0.00  0.00    +0.060 A 
ATOM     35  C   UNL     1     -11.999   0.909  -6.421  0.00  0.00    +0.018 A 
ATOM     36  C   UNL     1     -12.883   1.633  -7.192  0.00  0.00    +0.039 A 
ATOM     37  C   UNL     1     -14.041   1.037  -7.668  0.00  0.00    +0.123 A 
ATOM     38  C   UNL     1     -14.317  -0.289  -7.372  0.00  0.00    +0.039 A 
ATOM     39  C   UNL     1     -13.437  -1.025  -6.607  0.00  0.00    +0.018 A 
ATOM     40  F   UNL     1     -14.904   1.752  -8.423  0.00  0.00    -0.205 F 
ENDBRANCH  32  34
ENDBRANCH  31  32
ENDBRANCH   5  31
TORSDOF 9
