REMARK  Name = ZINC37360626
REMARK  6 active torsions:
REMARK  status: ('A' for Active; 'I' for Inactive)
REMARK    1  A    between atoms: C_1  and  C_2
REMARK    2  A    between atoms: C_6  and  C_8
REMARK    3  A    between atoms: C_10  and  N_32
REMARK    4  A    between atoms: N_11  and  C_25
REMARK    5  A    between atoms: N_17  and  C_18
REMARK    6  A    between atoms: C_18  and  C_19
REMARK                            x       y       z     vdW  Elec       q    Type
REMARK                         _______ _______ _______ _____ _____    ______ ____
ROOT
ATOM      1  C   UNL     1      -0.155  -2.717   2.544  0.00  0.00    +0.089 A 
ATOM      2  C   UNL     1      -0.799  -3.970   2.651  0.00  0.00    +0.086 A 
ATOM      3  C   UNL     1      -1.566  -4.770   1.813  0.00  0.00    +0.131 A 
ATOM      4  N   UNL     1      -1.902  -5.877   2.504  0.00  0.00    -0.216 N 
ATOM      5  N   UNL     1      -1.363  -5.814   3.794  0.00  0.00    -0.144 NA
ATOM      6  C   UNL     1      -0.693  -4.691   3.933  0.00  0.00    +0.189 A 
ATOM      7  N   UNL     1       0.012  -4.113   4.924  0.00  0.00    -0.193 NA
ATOM      8  C   UNL     1       0.582  -2.940   4.738  0.00  0.00    +0.218 A 
ATOM      9  N   UNL     1       0.512  -2.261   3.596  0.00  0.00    -0.214 NA
ATOM     10  N   UNL     1       1.296  -2.386   5.785  0.00  0.00    -0.311 N 
ATOM     11  H   UNL     1       1.726  -1.523   5.676  0.00  0.00    +0.149 HD
ENDROOT
BRANCH   1  17
ATOM     12  C   UNL     1       2.124  -0.015  -0.980  0.00  0.00    +0.044 C 
ATOM     13  C   UNL     1       0.875  -0.635  -0.409  0.00  0.00    -0.050 A 
ATOM     14  C   UNL     1      -0.336  -0.474  -1.061  0.00  0.00    +0.003 A 
ATOM     15  C   UNL     1      -1.487  -1.040  -0.543  0.00  0.00    +0.001 A 
ATOM     16  C   UNL     1      -1.435  -1.770   0.627  0.00  0.00    +0.010 A 
ATOM     17  C   UNL     1      -0.218  -1.936   1.288  0.00  0.00    +0.002 A 
ATOM     18  C   UNL     1       0.941  -1.367   0.758  0.00  0.00    +0.013 A 
ENDBRANCH   1  17
BRANCH   4  19
ATOM     19  C   UNL     1      -2.675  -6.932   2.006  0.00  0.00    +0.070 A 
ATOM     20  C   UNL     1      -3.710  -6.676   1.115  0.00  0.00    +0.028 A 
ATOM     21  C   UNL     1      -4.472  -7.718   0.625  0.00  0.00    +0.005 A 
ATOM     22  C   UNL     1      -4.207  -9.017   1.021  0.00  0.00    +0.038 A 
ATOM     23  C   UNL     1      -3.177  -9.276   1.909  0.00  0.00    +0.125 A 
ATOM     24  C   UNL     1      -2.406  -8.237   2.398  0.00  0.00    +0.066 A 
ATOM     25  F   UNL     1      -2.921 -10.546   2.294  0.00  0.00    -0.205 F 
ENDBRANCH   4  19
BRANCH   3  26
ATOM     26  N   UNL     1      -1.919  -4.483   0.508  0.00  0.00    -0.342 N 
ATOM     27  H   UNL     1      -1.502  -3.740   0.045  0.00  0.00    +0.144 HD
ATOM     28  H   UNL     1      -2.584  -5.025   0.055  0.00  0.00    +0.144 HD
ENDBRANCH   3  26
BRANCH  10  29
ATOM     29  C   UNL     1       1.402  -3.102   7.059  0.00  0.00    +0.136 C 
BRANCH  29  30
ATOM     30  C   UNL     1       2.238  -2.276   8.040  0.00  0.00    +0.135 C 
ATOM     31  C   UNL     1       2.392  -3.032   9.383  0.00  0.00    +0.035 C 
ATOM     32  C   UNL     1       3.706  -2.407   9.924  0.00  0.00    +0.031 C 
ATOM     33  C   UNL     1       4.509  -2.160   8.629  0.00  0.00    +0.160 C 
ATOM     34  O   UNL     1       3.575  -2.116   7.542  0.00  0.00    -0.375 OA
ENDBRANCH  29  30
ENDBRANCH  10  29
TORSDOF 5
