REMARK  Name = ZINC36692805
REMARK  15 active torsions:
REMARK  status: ('A' for Active; 'I' for Inactive)
REMARK    1  A    between atoms: C_1  and  C_2
REMARK    2  A    between atoms: C_2  and  N_3
REMARK    3  A    between atoms: N_3  and  C_4
REMARK    4  A    between atoms: N_3  and  C_6
REMARK    5  A    between atoms: C_4  and  C_5
REMARK    6  A    between atoms: C_6  and  C_8
REMARK    7  A    between atoms: C_6  and  C_30
REMARK    8  A    between atoms: C_8  and  N_9
REMARK    9  A    between atoms: C_10  and  C_12
REMARK   10  A    between atoms: C_12  and  C_14
REMARK   11  A    between atoms: C_12  and  S_15
REMARK   12  A    between atoms: S_15  and  C_16
REMARK   13  A    between atoms: C_16  and  C_17
REMARK   14  A    between atoms: C_23  and  C_29
REMARK   15  A    between atoms: C_24  and  C_28
REMARK                            x       y       z     vdW  Elec       q    Type
REMARK                         _______ _______ _______ _____ _____    ______ ____
ROOT
ATOM      1  N   UNL     1       1.481   0.853  -1.023  0.00  0.00    -0.316 N 
ATOM      2  C   UNL     1       2.368   1.866  -1.084  0.00  0.00    +0.226 C 
ATOM      3  O   UNL     1       3.063   2.005  -2.068  0.00  0.00    -0.275 OA
ATOM      4  H   UNL     1       0.876   0.783  -0.268  0.00  0.00    +0.149 HD
ENDROOT
BRANCH   2   5
ATOM      5  C   UNL     1       2.495   2.826   0.070  0.00  0.00    +0.129 C 
ATOM      6  C   UNL     1       3.461   2.251   1.108  0.00  0.00    +0.029 C 
BRANCH   5   7
ATOM      7  S   UNL     1       3.132   4.415  -0.532  0.00  0.00    -0.141 S 
BRANCH   7   8
ATOM      8  C   UNL     1       3.082   5.489   0.928  0.00  0.00    +0.144 C 
BRANCH   8   9
ATOM      9  C   UNL     1       3.592   6.859   0.562  0.00  0.00    +0.121 A 
ATOM     10  N   UNL     1       3.647   7.827   1.512  0.00  0.00    -0.310 N 
ATOM     11  H   UNL     1       3.357   7.623   2.415  0.00  0.00    +0.170 HD
ATOM     12  C   UNL     1       4.096   9.064   1.228  0.00  0.00    +0.260 A 
ATOM     13  O   UNL     1       4.139   9.921   2.093  0.00  0.00    -0.267 OA
ATOM     14  C   UNL     1       4.522   9.356  -0.109  0.00  0.00    +0.075 A 
ATOM     15  C   UNL     1       5.039  10.595  -0.660  0.00  0.00    -0.026 A 
ATOM     16  C   UNL     1       5.381  10.643  -1.958  0.00  0.00    -0.008 A 
ATOM     17  S   UNL     1       5.025   8.995  -2.539  0.00  0.00    -0.073 S 
ATOM     18  C   UNL     1       4.428   8.292  -1.024  0.00  0.00    +0.116 A 
ATOM     19  N   UNL     1       3.978   7.093  -0.664  0.00  0.00    -0.226 NA
ATOM     20  C   UNL     1       5.933  11.809  -2.736  0.00  0.00    +0.052 C 
ATOM     21  C   UNL     1       5.190  11.814   0.213  0.00  0.00    +0.045 C 
ENDBRANCH   8   9
ENDBRANCH   7   8
ENDBRANCH   5   7
ENDBRANCH   2   5
BRANCH   1  22
ATOM     22  C   UNL     1       1.431  -0.142  -2.097  0.00  0.00    +0.093 C 
BRANCH  22  23
ATOM     23  C   UNL     1       0.265  -1.101  -1.850  0.00  0.00    -0.020 C 
BRANCH  23  24
ATOM     24  C   UNL     1       0.307  -2.216  -2.863  0.00  0.00    -0.059 A 
ATOM     25  C   UNL     1       1.506  -2.567  -3.454  0.00  0.00    +0.002 A 
ATOM     26  C   UNL     1       1.545  -3.589  -4.384  0.00  0.00    +0.000 A 
ATOM     27  C   UNL     1       0.385  -4.261  -4.722  0.00  0.00    +0.000 A 
ATOM     28  C   UNL     1      -0.814  -3.910  -4.130  0.00  0.00    +0.000 A 
ATOM     29  C   UNL     1      -0.852  -2.890  -3.197  0.00  0.00    +0.002 A 
ENDBRANCH  23  24
BRANCH  23  30
ATOM     30  N   UNL     1       0.372  -1.665  -0.497  0.00  0.00    +0.385 N 
ATOM     31  H   UNL     1       0.425  -0.915   0.176  0.00  0.00    -0.081 HD
BRANCH  30  33
ATOM     32  C   UNL     1      -2.054  -1.607  -0.172  0.00  0.00    -0.017 C 
ATOM     33  C   UNL     1      -0.808  -2.493  -0.217  0.00  0.00    -0.081 C 
ENDBRANCH  30  33
BRANCH  30  34
ATOM     34  C   UNL     1       1.583  -2.491  -0.406  0.00  0.00    -0.081 C 
ATOM     35  C   UNL     1       2.766  -1.618   0.018  0.00  0.00    -0.017 C 
ENDBRANCH  30  34
ENDBRANCH  23  30
ENDBRANCH  22  23
ENDBRANCH   1  22
TORSDOF 10
