REMARK  Name = ZINC08636074
REMARK  10 active torsions:
REMARK  status: ('A' for Active; 'I' for Inactive)
REMARK    1  A    between atoms: C_1  and  C_2
REMARK    2  A    between atoms: C_3  and  C_17
REMARK    3  A    between atoms: C_4  and  C_16
REMARK    4  A    between atoms: N_5  and  C_7
REMARK    5  A    between atoms: C_10  and  C_13
REMARK    6  A    between atoms: C_13  and  C_14
REMARK    7  A    between atoms: C_13  and  C_15
REMARK    8  A    between atoms: C_20  and  N_24
REMARK    9  A    between atoms: N_27  and  C_28
REMARK   10  A    between atoms: C_28  and  C_29
REMARK                            x       y       z     vdW  Elec       q    Type
REMARK                         _______ _______ _______ _____ _____    ______ ____
ROOT
ATOM      1  C   UNL     1      -6.409   5.341  -5.363  0.00  0.00    +0.047 C 
ATOM      2  C   UNL     1      -5.880   6.421  -4.390  0.00  0.00    +0.039 C 
ATOM      3  C   UNL     1      -5.894   5.656  -3.047  0.00  0.00    +0.098 C 
ATOM      4  C   UNL     1      -6.934   4.575  -3.232  0.00  0.00    -0.009 C 
ATOM      5  C   UNL     1      -7.214   4.403  -4.495  0.00  0.00    -0.021 C 
ENDROOT
BRANCH   1   8
ATOM      6  C   UNL     1      -9.077   6.968  -4.840  0.00  0.00    +0.068 C 
ATOM      7  C   UNL     1      -8.463   6.687  -6.187  0.00  0.00    +0.064 A 
ATOM      8  C   UNL     1      -7.285   5.968  -6.417  0.00  0.00    +0.003 A 
ATOM      9  C   UNL     1      -7.068   5.939  -7.752  0.00  0.00    +0.046 A 
ATOM     10  N   UNL     1      -8.080   6.611  -8.348  0.00  0.00    -0.236 N 
ATOM     11  N   UNL     1      -8.940   7.072  -7.343  0.00  0.00    -0.171 NA
ATOM     12  C   UNL     1      -5.909   5.276  -8.451  0.00  0.00    +0.066 C 
BRANCH  10  13
ATOM     13  C   UNL     1      -8.237   6.814  -9.726  0.00  0.00    +0.066 A 
ATOM     14  C   UNL     1      -8.649   8.050 -10.204  0.00  0.00    +0.028 A 
ATOM     15  C   UNL     1      -8.798   8.248 -11.563  0.00  0.00    +0.006 A 
ATOM     16  C   UNL     1      -8.547   7.214 -12.446  0.00  0.00    -0.045 A 
ATOM     17  C   UNL     1      -8.142   5.980 -11.972  0.00  0.00    +0.006 A 
ATOM     18  C   UNL     1      -7.986   5.777 -10.615  0.00  0.00    +0.028 A 
BRANCH  16  19
ATOM     19  C   UNL     1      -8.716   7.432 -13.928  0.00  0.00    +0.013 C 
ATOM     20  C   UNL     1     -10.164   7.828 -14.223  0.00  0.00    +0.012 C 
ATOM     21  C   UNL     1      -7.778   8.548 -14.389  0.00  0.00    +0.012 C 
ENDBRANCH  16  19
ENDBRANCH  10  13
ENDBRANCH   1   8
BRANCH   3  22
ATOM     22  N   UNL     1      -4.581   5.061  -2.784  0.00  0.00    -0.293 N 
ATOM     23  C   UNL     1      -4.201   4.800  -1.518  0.00  0.00    +0.300 C 
ATOM     24  O   UNL     1      -4.948   5.057  -0.594  0.00  0.00    -0.253 OA
ATOM     25  N   UNL     1      -2.993   4.253  -1.276  0.00  0.00    -0.295 N 
ATOM     26  H   UNL     1      -3.986   4.856  -3.522  0.00  0.00    +0.151 HD
ATOM     27  H   UNL     1      -2.397   4.048  -2.014  0.00  0.00    +0.151 HD
BRANCH  25  28
ATOM     28  C   UNL     1      -2.580   3.969   0.100  0.00  0.00    +0.141 C 
BRANCH  28  29
ATOM     29  C   UNL     1      -1.199   3.365   0.096  0.00  0.00    -0.030 A 
ATOM     30  C   UNL     1      -1.045   1.994   0.007  0.00  0.00    +0.005 A 
ATOM     31  C   UNL     1       0.222   1.440   0.008  0.00  0.00    +0.000 A 
ATOM     32  C   UNL     1       1.334   2.257   0.088  0.00  0.00    +0.000 A 
ATOM     33  C   UNL     1       1.179   3.628   0.172  0.00  0.00    +0.000 A 
ATOM     34  C   UNL     1      -0.087   4.182   0.176  0.00  0.00    +0.005 A 
ENDBRANCH  28  29
ENDBRANCH  25  28
ENDBRANCH   3  22
TORSDOF 6
