REMARK  Name = ZINC43213185
REMARK  9 active torsions:
REMARK  status: ('A' for Active; 'I' for Inactive)
REMARK    1  A    between atoms: C_1  and  C_2
REMARK    2  A    between atoms: C_2  and  C_31
REMARK    3  A    between atoms: C_7  and  C_12
REMARK    4  A    between atoms: C_12  and  N_13
REMARK    5  A    between atoms: C_14  and  C_16
REMARK    6  A    between atoms: C_19  and  C_21
REMARK    7  A    between atoms: C_21  and  C_23
REMARK    8  A    between atoms: C_21  and  N_30
REMARK    9  A    between atoms: C_23  and  C_24
REMARK                            x       y       z     vdW  Elec       q    Type
REMARK                         _______ _______ _______ _____ _____    ______ ____
ROOT
ATOM      1  C   UNL     1       2.421   2.695   6.108  0.00  0.00    +0.163 A 
ATOM      2  C   UNL     1       3.246   3.589   6.719  0.00  0.00    +0.230 A 
ATOM      3  O   UNL     1       2.852   3.673   8.000  0.00  0.00    -0.449 OA
ATOM      4  C   UNL     1       1.808   2.849   8.172  0.00  0.00    +0.182 A 
ATOM      5  N   UNL     1       1.536   2.261   7.046  0.00  0.00    -0.210 NA
ENDROOT
BRANCH   1   7
ATOM      6  N   UNL     1       1.583   1.385   4.222  0.00  0.00    -0.310 N 
ATOM      7  C   UNL     1       2.473   2.280   4.695  0.00  0.00    +0.266 C 
ATOM      8  O   UNL     1       3.318   2.745   3.955  0.00  0.00    -0.268 OA
ATOM      9  H   UNL     1       0.909   1.013   4.812  0.00  0.00    +0.149 HD
BRANCH   6  10
ATOM     10  C   UNL     1       1.634   0.972   2.817  0.00  0.00    +0.108 C 
BRANCH  10  16
ATOM     11  C   UNL     1      -0.019   1.521   0.010  0.00  0.00    +0.011 C 
ATOM     12  C   UNL     1       0.002  -0.004   0.002  0.00  0.00    -0.029 C 
ATOM     13  C   UNL     1      -1.270  -0.677   0.545  0.00  0.00    -0.005 C 
ATOM     14  C   UNL     1      -1.889   0.089   1.715  0.00  0.00    +0.004 C 
ATOM     15  C   UNL     1      -0.848   0.593   2.707  0.00  0.00    +0.005 C 
ATOM     16  C   UNL     1       0.522  -0.044   2.543  0.00  0.00    +0.010 C 
ATOM     17  C   UNL     1       0.704  -0.695   1.172  0.00  0.00    -0.000 C 
ATOM     18  C   UNL     1      -0.350  -1.820   1.010  0.00  0.00    +0.008 C 
ATOM     19  C   UNL     1       0.428  -0.548  -1.374  0.00  0.00    +0.011 C 
ENDBRANCH  10  16
ENDBRANCH   6  10
ENDBRANCH   1   7
BRANCH   4  20
ATOM     20  C   UNL     1       1.065   2.643   9.467  0.00  0.00    +0.017 C 
BRANCH  20  21
ATOM     21  N   UNL     1       2.028   2.491  10.566  0.00  0.00    +0.386 N 
ATOM     22  H   UNL     1       2.595   3.323  10.633  0.00  0.00    -0.089 HD
ATOM     23  H   UNL     1       1.530   2.353  11.432  0.00  0.00    -0.089 HD
ATOM     24  H   UNL     1       2.620   1.694  10.387  0.00  0.00    -0.089 HD
ENDBRANCH  20  21
BRANCH  20  25
ATOM     25  C   UNL     1       0.167   3.851   9.738  0.00  0.00    +0.028 C 
BRANCH  25  26
ATOM     26  C   UNL     1      -0.667   3.592  10.966  0.00  0.00    -0.048 A 
ATOM     27  C   UNL     1      -1.903   2.985  10.847  0.00  0.00    +0.003 A 
ATOM     28  C   UNL     1      -2.668   2.747  11.973  0.00  0.00    +0.000 A 
ATOM     29  C   UNL     1      -2.197   3.116  13.219  0.00  0.00    +0.000 A 
ATOM     30  C   UNL     1      -0.960   3.722  13.339  0.00  0.00    +0.000 A 
ATOM     31  C   UNL     1      -0.193   3.956  12.213  0.00  0.00    +0.003 A 
ENDBRANCH  25  26
ENDBRANCH  20  25
ENDBRANCH   4  20
TORSDOF 7
