REMARK  Name = ZINC12499737
REMARK  9 active torsions:
REMARK  status: ('A' for Active; 'I' for Inactive)
REMARK    1  A    between atoms: C_1  and  C_2
REMARK    2  A    between atoms: C_7  and  O_8
REMARK    3  A    between atoms: O_8  and  C_9
REMARK    4  A    between atoms: C_9  and  C_10
REMARK    5  A    between atoms: N_12  and  C_13
REMARK    6  A    between atoms: C_13  and  N_15
REMARK    7  A    between atoms: N_15  and  C_16
REMARK    8  A    between atoms: C_19  and  N_23
REMARK    9  A    between atoms: C_21  and  O_22
REMARK                            x       y       z     vdW  Elec       q    Type
REMARK                         _______ _______ _______ _____ _____    ______ ____
ROOT
ATOM      1  C   UNL     1      -4.958   5.324   0.157  0.00  0.00    +0.141 C 
ATOM      2  S   UNL     1      -3.488   6.202   0.155  0.00  0.00    -0.018 S 
ENDROOT
BRANCH   1   5
ATOM      3  C   UNL     1      -6.149   7.320   0.377  0.00  0.00    +0.256 C 
ATOM      4  O   UNL     1      -5.107   7.941   0.375  0.00  0.00    -0.272 OA
ATOM      5  N   UNL     1      -6.132   5.977   0.267  0.00  0.00    -0.265 N 
ATOM      6  H   UNL     1      -6.965   5.480   0.269  0.00  0.00    +0.157 HD
BRANCH   3   7
ATOM      7  C   UNL     1      -7.461   8.050   0.500  0.00  0.00    +0.325 C 
BRANCH   7   8
ATOM      8  O   UNL     1      -7.218   9.455   0.601  0.00  0.00    -0.482 OA
BRANCH   8  15
ATOM      9  C   UNL     1      -6.757  12.233   0.815  0.00  0.00    +0.047 C 
ATOM     10  C   UNL     1      -8.140  11.635   0.829  0.00  0.00    -0.008 A 
ATOM     11  C   UNL     1      -9.247  12.455   0.944  0.00  0.00    +0.022 A 
ATOM     12  C   UNL     1     -10.516  11.907   0.963  0.00  0.00    +0.018 A 
ATOM     13  C   UNL     1     -10.682  10.537   0.860  0.00  0.00    +0.019 A 
ATOM     14  C   UNL     1      -9.579   9.714   0.739  0.00  0.00    +0.047 A 
ATOM     15  C   UNL     1      -8.304  10.262   0.720  0.00  0.00    +0.124 A 
ATOM     16 BR   UNL     1     -12.028  13.030   1.128  0.00  0.00    -0.050 Br
ENDBRANCH   8  15
ENDBRANCH   7   8
ENDBRANCH   3   7
ENDBRANCH   1   5
BRANCH   1  17
ATOM     17  N   UNL     1      -4.942   3.981   0.048  0.00  0.00    -0.294 N 
ATOM     18  H   UNL     1      -5.775   3.489  -0.014  0.00  0.00    +0.154 HD
BRANCH  17  19
ATOM     19  C   UNL     1      -3.720   3.295   0.024  0.00  0.00    +0.075 A 
ATOM     20  C   UNL     1      -2.693   3.733  -0.799  0.00  0.00    +0.029 A 
ATOM     21  C   UNL     1      -1.487   3.058  -0.817  0.00  0.00    +0.035 A 
ATOM     22  C   UNL     1      -1.305   1.940  -0.025  0.00  0.00    +0.130 A 
ATOM     23  C   UNL     1      -2.325   1.497   0.797  0.00  0.00    +0.080 A 
ATOM     24  C   UNL     1      -3.535   2.171   0.825  0.00  0.00    +0.140 A 
BRANCH  22  25
ATOM     25  N   UNL     1      -0.013   1.217  -0.053  0.00  0.00    +0.057 N 
ATOM     26  O   UNL     1       0.150   0.234   0.648  0.00  0.00    -0.126 OA
ATOM     27  O   UNL     1       0.884   1.603  -0.780  0.00  0.00    -0.126 OA
ENDBRANCH  22  25
BRANCH  24  28
ATOM     28  O   UNL     1      -4.539   1.737   1.633  0.00  0.00    -0.505 OA
ATOM     29  H   UNL     1      -4.527   2.125   2.518  0.00  0.00    +0.292 HD
ENDBRANCH  24  28
ENDBRANCH  17  19
ENDBRANCH   1  17
TORSDOF 8
