REMARK  Name = ZINC05746373
REMARK  6 active torsions:
REMARK  status: ('A' for Active; 'I' for Inactive)
REMARK    1  A    between atoms: C_3  and  O_28
REMARK    2  A    between atoms: C_4  and  C_8
REMARK    3  A    between atoms: C_8  and  O_10
REMARK    4  A    between atoms: O_10  and  C_11
REMARK    5  A    between atoms: C_11  and  C_12
REMARK    6  A    between atoms: N_17  and  C_18
REMARK                            x       y       z     vdW  Elec       q    Type
REMARK                         _______ _______ _______ _____ _____    ______ ____
ROOT
ATOM      1  C   UNL     1       3.438   7.473   0.009  0.00  0.00    +0.258 C 
ATOM      2  O   UNL     1       2.309   7.912   0.021  0.00  0.00    -0.272 OA
ATOM      3  N   UNL     1       4.490   8.316   0.004  0.00  0.00    -0.237 N 
ATOM      4  C   UNL     1       4.285   9.648   0.012  0.00  0.00    +0.306 C 
ATOM      5  O   UNL     1       3.153  10.089   0.025  0.00  0.00    -0.252 OA
ATOM      6  N   UNL     1       5.337  10.491   0.007  0.00  0.00    -0.294 N 
ATOM      7  H   UNL     1       5.394   7.964  -0.006  0.00  0.00    +0.159 HD
ATOM      8  H   UNL     1       6.240  10.139  -0.003  0.00  0.00    +0.151 HD
ENDROOT
BRANCH   6   9
ATOM      9  C   UNL     1       5.114  11.939   0.016  0.00  0.00    +0.037 C 
ATOM     10  C   UNL     1       4.313  12.340  -1.224  0.00  0.00    +0.029 C 
ATOM     11  C   UNL     1       4.081  13.852  -1.214  0.00  0.00    -0.008 C 
ATOM     12  C   UNL     1       5.429  14.575  -1.222  0.00  0.00    +0.007 C 
ATOM     13  C   UNL     1       6.231  14.175   0.018  0.00  0.00    -0.008 C 
ATOM     14  C   UNL     1       6.463  12.662   0.008  0.00  0.00    +0.029 C 
ATOM     15  C   UNL     1       5.452  14.563   1.276  0.00  0.00    +0.007 C 
ATOM     16  C   UNL     1       4.103  13.840   1.284  0.00  0.00    -0.008 C 
ATOM     17  C   UNL     1       3.302  14.241   0.044  0.00  0.00    +0.007 C 
ATOM     18  C   UNL     1       4.335  12.328   1.275  0.00  0.00    +0.029 C 
ENDBRANCH   6   9
BRANCH   1  19
ATOM     19  C   UNL     1       3.667   5.983  -0.001  0.00  0.00    +0.328 C 
BRANCH  19  20
ATOM     20  O   UNL     1       2.387   5.297   0.007  0.00  0.00    -0.452 OA
BRANCH  20  21
ATOM     21  C   UNL     1       2.416   3.950   0.000  0.00  0.00    +0.343 C 
ATOM     22  O   UNL     1       3.480   3.365  -0.012  0.00  0.00    -0.245 OA
BRANCH  21  26
ATOM     23  C   UNL     1      -1.218   1.749   0.017  0.00  0.00    +0.023 A 
ATOM     24  C   UNL     1      -0.013   1.076   0.008  0.00  0.00    +0.047 A 
ATOM     25  C   UNL     1       1.179   1.784   0.000  0.00  0.00    +0.131 A 
ATOM     26  C   UNL     1       1.155   3.186   0.008  0.00  0.00    +0.102 A 
ATOM     27  C   UNL     1      -0.072   3.855   0.022  0.00  0.00    +0.038 A 
ATOM     28  C   UNL     1      -1.248   3.135   0.030  0.00  0.00    +0.042 A 
ATOM     29 CL   UNL     1      -2.771   3.967   0.048  0.00  0.00    -0.084 Cl
BRANCH  25  30
ATOM     30  O   UNL     1       2.364   1.124  -0.015  0.00  0.00    -0.506 OA
ATOM     31  H   UNL     1       2.699   0.937  -0.902  0.00  0.00    +0.292 HD
ENDBRANCH  25  30
ENDBRANCH  21  26
ENDBRANCH  20  21
ENDBRANCH  19  20
ENDBRANCH   1  19
TORSDOF 6
