REMARK  Name = ZINC64886729
REMARK  8 active torsions:
REMARK  status: ('A' for Active; 'I' for Inactive)
REMARK    1  A    between atoms: C_4  and  C_7
REMARK    2  A    between atoms: C_10  and  C_12
REMARK    3  A    between atoms: C_13  and  C_14
REMARK    4  A    between atoms: N_16  and  N_17
REMARK    5  A    between atoms: N_20  and  C_21
REMARK    6  A    between atoms: C_21  and  C_22
REMARK    7  A    between atoms: C_22  and  C_23
REMARK    8  A    between atoms: C_23  and  N_24
REMARK                            x       y       z     vdW  Elec       q    Type
REMARK                         _______ _______ _______ _____ _____    ______ ____
ROOT
ATOM      1  C   UNL     1       9.894  -0.920  -0.087  0.00  0.00    +0.253 C 
ATOM      2  O   UNL     1      10.337  -2.054  -0.102  0.00  0.00    -0.269 OA
ATOM      3  N   UNL     1      10.735   0.133  -0.084  0.00  0.00    -0.230 N 
ATOM      4  H   UNL     1      10.382   1.036  -0.072  0.00  0.00    +0.173 HD
ENDROOT
BRANCH   3   5
ATOM      5  N   UNL     1      12.120  -0.078  -0.096  0.00  0.00    -0.218 N 
ATOM      6  C   UNL     1      12.962   0.974  -0.092  0.00  0.00    +0.316 C 
ATOM      7  O   UNL     1      14.164   0.791  -0.103  0.00  0.00    -0.251 OA
ATOM      8  N   UNL     1      12.472   2.230  -0.076  0.00  0.00    -0.298 N 
ATOM      9  H   UNL     1      12.473  -0.982  -0.108  0.00  0.00    +0.174 HD
ATOM     10  H   UNL     1      11.513   2.375  -0.067  0.00  0.00    +0.150 HD
BRANCH   8  11
ATOM     11  C   UNL     1      13.387   3.374  -0.072  0.00  0.00    +0.107 C 
BRANCH  11  12
ATOM     12  C   UNL     1      12.579   4.673  -0.053  0.00  0.00    +0.040 C 
BRANCH  12  13
ATOM     13  C   UNL     1      13.534   5.868  -0.049  0.00  0.00    +0.124 C 
BRANCH  13  14
ATOM     14  N   UNL     1      12.761   7.112  -0.030  0.00  0.00    -0.338 N 
ATOM     15  C   UNL     1      12.318   7.809  -1.122  0.00  0.00    +0.104 A 
ATOM     16  C   UNL     1      11.653   8.883  -0.655  0.00  0.00    +0.101 A 
ATOM     17  N   UNL     1      11.688   8.842   0.685  0.00  0.00    -0.352 N 
ATOM     18  C   UNL     1      12.346   7.781   1.067  0.00  0.00    +0.173 A 
ATOM     19  H   UNL     1      11.286   9.496   1.278  0.00  0.00    +0.166 HD
ENDBRANCH  13  14
ENDBRANCH  12  13
ENDBRANCH  11  12
ENDBRANCH   8  11
ENDBRANCH   3   5
BRANCH   1  21
ATOM     20  C   UNL     1       7.648  -1.768  -0.078  0.00  0.00    +0.020 C 
ATOM     21  C   UNL     1       8.496  -0.707  -0.074  0.00  0.00    +0.070 C 
BRANCH  20  25
ATOM     22  C   UNL     1       3.695  -0.683  -0.037  0.00  0.00    +0.020 A 
ATOM     23  C   UNL     1       3.931  -2.050  -0.052  0.00  0.00    +0.017 A 
ATOM     24  C   UNL     1       5.222  -2.494  -0.067  0.00  0.00    +0.016 A 
ATOM     25  C   UNL     1       6.250  -1.555  -0.066  0.00  0.00    +0.013 A 
ATOM     26  S   UNL     1       5.349  -0.013  -0.051  0.00  0.00    -0.089 S 
BRANCH  22  30
ATOM     27  C   UNL     1      -0.017   1.379   0.010  0.00  0.00    +0.000 A 
ATOM     28  C   UNL     1       1.168   2.094   0.002  0.00  0.00    +0.001 A 
ATOM     29  C   UNL     1       2.377   1.430  -0.013  0.00  0.00    +0.009 A 
ATOM     30  C   UNL     1       2.404   0.034  -0.021  0.00  0.00    -0.011 A 
ATOM     31  C   UNL     1       1.204  -0.681  -0.013  0.00  0.00    +0.009 A 
ATOM     32  C   UNL     1       0.002  -0.004   0.002  0.00  0.00    +0.001 A 
ENDBRANCH  22  30
ENDBRANCH  20  25
ENDBRANCH   1  21
TORSDOF 8
