REMARK  Name = ZINC19299946
REMARK  7 active torsions:
REMARK  status: ('A' for Active; 'I' for Inactive)
REMARK    1  A    between atoms: N_8  and  C_18
REMARK    2  A    between atoms: C_10  and  C_13
REMARK    3  A    between atoms: C_18  and  C_19
REMARK    4  A    between atoms: N_21  and  C_22
REMARK    5  A    between atoms: C_22  and  C_23
REMARK    6  A    between atoms: C_23  and  C_24
REMARK    7  A    between atoms: C_28  and  C_30
REMARK                            x       y       z     vdW  Elec       q    Type
REMARK                         _______ _______ _______ _____ _____    ______ ____
ROOT
ATOM      1  C   UNL     1       2.460   0.895  -0.010  0.00  0.00    +0.019 C 
ENDROOT
BRANCH   1   9
ATOM      2  C   UNL     1       3.948   6.367   0.801  0.00  0.00    +0.000 A 
ATOM      3  C   UNL     1       5.285   6.484   0.468  0.00  0.00    +0.004 A 
ATOM      4  C   UNL     1       6.078   5.356   0.368  0.00  0.00    +0.046 A 
ATOM      5  C   UNL     1       5.526   4.105   0.602  0.00  0.00    +0.123 A 
ATOM      6  C   UNL     1       4.193   3.995   0.950  0.00  0.00    -0.022 A 
ATOM      7  C   UNL     1       3.400   5.119   1.044  0.00  0.00    +0.005 A 
ATOM      8  C   UNL     1       3.609   2.624   1.233  0.00  0.00    -0.038 C 
ATOM      9  N   UNL     1       3.567   1.861  -0.019  0.00  0.00    +0.391 N 
ATOM     10  C   UNL     1       4.835   1.200  -0.316  0.00  0.00    -0.028 C 
ATOM     11  C   UNL     1       5.952   2.159  -0.667  0.00  0.00    +0.188 C 
ATOM     12  O   UNL     1       6.285   2.984   0.457  0.00  0.00    -0.486 OA
ATOM     13  H   UNL     1       3.397   2.585  -0.829  0.00  0.00    -0.080 HD
BRANCH  11  14
ATOM     14  C   UNL     1       7.168   1.373  -1.083  0.00  0.00    -0.002 A 
ATOM     15  C   UNL     1       7.456   1.182  -2.421  0.00  0.00    +0.015 A 
ATOM     16  C   UNL     1       8.558   0.470  -2.762  0.00  0.00    +0.045 A 
ATOM     17  S   UNL     1       9.230   0.043  -1.164  0.00  0.00    -0.105 S 
ATOM     18  C   UNL     1       8.000   0.848  -0.150  0.00  0.00    +0.052 A 
ENDBRANCH  11  14
ENDBRANCH   1   9
BRANCH   1  19
ATOM     19  C   UNL     1       1.148   1.636   0.002  0.00  0.00    +0.196 C 
ATOM     20  O   UNL     1       1.136   2.849   0.004  0.00  0.00    -0.278 OA
ATOM     21  N   UNL     1      -0.013   0.951   0.012  0.00  0.00    -0.316 N 
ATOM     22  H   UNL     1      -0.002  -0.149   0.015  0.00  0.00    +0.149 HD
BRANCH  21  23
ATOM     23  C   UNL     1      -1.288   1.671   0.018  0.00  0.00    +0.112 C 
BRANCH  23  24
ATOM     24  C   UNL     1      -2.442   0.666   0.021  0.00  0.00    +0.097 C 
BRANCH  24  25
ATOM     25  C   UNL     1      -3.754   1.407   0.028  0.00  0.00    +0.153 A 
ATOM     26  N   UNL     1      -4.749   1.255  -0.866  0.00  0.00    -0.157 NA
ATOM     27  H   UNL     1      -6.709   2.178  -1.052  0.00  0.00    +0.191 HD
ATOM     28  N   UNL     1      -5.776   2.128  -0.472  0.00  0.00    -0.259 N 
ATOM     29  C   UNL     1      -5.350   2.751   0.606  0.00  0.00    +0.156 A 
ATOM     30  N   UNL     1      -4.121   2.306   0.901  0.00  0.00    -0.211 NA
BRANCH  29  31
ATOM     31  C   UNL     1      -6.106   3.775   1.368  0.00  0.00    +0.022 A 
ATOM     32  C   UNL     1      -5.558   4.370   2.508  0.00  0.00    +0.031 A 
ATOM     33  C   UNL     1      -6.293   5.322   3.185  0.00  0.00    +0.111 A 
ATOM     34  N   UNL     1      -7.500   5.663   2.775  0.00  0.00    -0.263 NA
ATOM     35  C   UNL     1      -8.055   5.122   1.708  0.00  0.00    +0.111 A 
ATOM     36  C   UNL     1      -7.387   4.166   0.970  0.00  0.00    +0.031 A 
ENDBRANCH  29  31
ENDBRANCH  24  25
ENDBRANCH  23  24
ENDBRANCH  21  23
ENDBRANCH   1  19
TORSDOF 7
