REMARK  Name = ZINC40004261
REMARK  5 active torsions:
REMARK  status: ('A' for Active; 'I' for Inactive)
REMARK    1  A    between atoms: N_11  and  N_15
REMARK    2  A    between atoms: C_16  and  C_18
REMARK    3  A    between atoms: C_23  and  O_24
REMARK    4  A    between atoms: N_27  and  C_28
REMARK    5  A    between atoms: C_28  and  C_29
REMARK                            x       y       z     vdW  Elec       q    Type
REMARK                         _______ _______ _______ _____ _____    ______ ____
ROOT
ATOM      1  C   UNL     1      -0.017   1.376   0.010  0.00  0.00    +0.001 A 
ATOM      2  C   UNL     1       1.172   2.087   0.002  0.00  0.00    +0.002 A 
ATOM      3  C   UNL     1       2.386   1.428  -0.013  0.00  0.00    +0.024 A 
ATOM      4  C   UNL     1       2.426   0.039  -0.021  0.00  0.00    +0.045 A 
ATOM      5  C   UNL     1       1.221  -0.678  -0.013  0.00  0.00    +0.010 A 
ATOM      6  C   UNL     1       0.002  -0.004   0.002  0.00  0.00    +0.010 A 
ATOM      7  C   UNL     1       1.585  -2.110  -0.024  0.00  0.00    +0.065 C 
ATOM      8  C   UNL     1       0.731  -3.195  -0.022  0.00  0.00    +0.091 C 
ATOM      9  C   UNL     1       1.044  -4.650  -0.027  0.00  0.00    +0.276 C 
ATOM     10  O   UNL     1       2.188  -5.060  -0.034  0.00  0.00    -0.267 OA
ATOM     11  N   UNL     1       0.008  -5.472  -0.023  0.00  0.00    -0.169 N 
ATOM     12  C   UNL     1      -1.259  -5.013  -0.015  0.00  0.00    +0.138 C 
ATOM     13  S   UNL     1      -2.714  -5.914  -0.009  0.00  0.00    -0.026 S 
ATOM     14  S   UNL     1      -1.056  -3.239  -0.005  0.00  0.00    -0.059 S 
ATOM     15  C   UNL     1       3.062  -2.128  -0.039  0.00  0.00    +0.253 C 
ATOM     16  O   UNL     1       3.766  -3.121  -0.051  0.00  0.00    -0.270 OA
ATOM     17  N   UNL     1       3.491  -0.855  -0.037  0.00  0.00    -0.262 N 
ENDROOT
BRANCH  11  18
ATOM     18  N   UNL     1       0.233  -6.855  -0.028  0.00  0.00    -0.222 N 
ATOM     19  C   UNL     1       0.050  -7.572   1.099  0.00  0.00    +0.264 C 
ATOM     20  O   UNL     1      -0.311  -7.018   2.119  0.00  0.00    -0.269 OA
ATOM     21  H   UNL     1       0.521  -7.297  -0.842  0.00  0.00    +0.174 HD
BRANCH  19  22
ATOM     22  C   UNL     1       0.287  -9.028   1.094  0.00  0.00    +0.079 A 
ATOM     23  C   UNL     1       0.708  -9.667  -0.075  0.00  0.00    +0.017 A 
ATOM     24  C   UNL     1       0.927 -11.027  -0.073  0.00  0.00    +0.001 A 
ATOM     25  C   UNL     1       0.733 -11.765   1.084  0.00  0.00    +0.004 A 
ATOM     26  C   UNL     1       0.318 -11.146   2.246  0.00  0.00    +0.046 A 
ATOM     27  C   UNL     1       0.098  -9.777   2.264  0.00  0.00    +0.129 A 
BRANCH  27  28
ATOM     28  O   UNL     1      -0.305  -9.166   3.406  0.00  0.00    -0.506 OA
ATOM     29  H   UNL     1      -1.265  -9.125   3.513  0.00  0.00    +0.292 HD
ENDBRANCH  27  28
ENDBRANCH  19  22
ENDBRANCH  11  18
BRANCH  17  30
ATOM     30  C   UNL     1       4.902  -0.458  -0.049  0.00  0.00    +0.149 C 
BRANCH  30  31
ATOM     31  C   UNL     1       5.399  -0.330   1.368  0.00  0.00    -0.030 A 
ATOM     32  C   UNL     1       5.299   0.881   2.028  0.00  0.00    +0.008 A 
ATOM     33  C   UNL     1       5.755   1.000   3.327  0.00  0.00    +0.038 A 
ATOM     34  C   UNL     1       6.313  -0.094   3.967  0.00  0.00    +0.123 A 
ATOM     35  C   UNL     1       6.413  -1.305   3.305  0.00  0.00    +0.038 A 
ATOM     36  C   UNL     1       5.952  -1.424   2.008  0.00  0.00    +0.008 A 
ATOM     37  F   UNL     1       6.759   0.022   5.237  0.00  0.00    -0.205 F 
ENDBRANCH  30  31
ENDBRANCH  17  30
TORSDOF 5
