REMARK  Name = ZINC04140764
REMARK  7 active torsions:
REMARK  status: ('A' for Active; 'I' for Inactive)
REMARK    1  A    between atoms: C_1  and  C_2
REMARK    2  A    between atoms: C_4  and  O_9
REMARK    3  A    between atoms: O_9  and  C_10
REMARK    4  A    between atoms: C_10  and  C_11
REMARK    5  A    between atoms: C_11  and  N_12
REMARK    6  A    between atoms: C_14  and  C_21
REMARK    7  A    between atoms: N_22  and  O_23
REMARK                            x       y       z     vdW  Elec       q    Type
REMARK                         _______ _______ _______ _____ _____    ______ ____
ROOT
ATOM      1  N   UNL     1       0.068  -6.218  -3.663  0.00  0.00    -0.343 N 
ATOM      2  C   UNL     1       1.191  -6.984  -3.723  0.00  0.00    +0.098 A 
ATOM      3  C   UNL     1       0.857  -8.298  -3.628  0.00  0.00    +0.043 A 
ATOM      4  C   UNL     1      -0.609  -8.351  -3.498  0.00  0.00    +0.010 A 
ATOM      5  C   UNL     1      -1.047  -7.016  -3.521  0.00  0.00    +0.050 A 
ATOM      6  C   UNL     1      -2.406  -6.742  -3.410  0.00  0.00    +0.026 A 
ATOM      7  C   UNL     1      -3.308  -7.775  -3.276  0.00  0.00    +0.002 A 
ATOM      8  C   UNL     1      -2.873  -9.093  -3.250  0.00  0.00    +0.001 A 
ATOM      9  C   UNL     1      -1.532  -9.386  -3.366  0.00  0.00    +0.011 A 
ENDROOT
BRANCH   3  10
ATOM     10  C   UNL     1       1.782  -9.448  -3.652  0.00  0.00    +0.164 C 
ATOM     11  N   UNL     1       1.317 -10.661  -3.552  0.00  0.00    -0.071 NA
ATOM     12  N   UNL     1       3.145  -9.237  -3.781  0.00  0.00    -0.340 N 
ATOM     13  H   UNL     1       3.491  -8.334  -3.856  0.00  0.00    +0.144 HD
ATOM     14  H   UNL     1       3.753  -9.993  -3.797  0.00  0.00    +0.144 HD
BRANCH  11  15
ATOM     15  O   UNL     1       2.204 -11.764  -3.575  0.00  0.00    -0.408 OA
ATOM     16  H   UNL     1       1.767 -12.623  -3.494  0.00  0.00    +0.328 HD
ENDBRANCH  11  15
ENDBRANCH   3  10
BRANCH   1  17
ATOM     17  C   UNL     1       0.048  -4.755  -3.734  0.00  0.00    +0.163 C 
BRANCH  17  18
ATOM     18  C   UNL     1       0.047  -4.176  -2.317  0.00  0.00    +0.250 C 
BRANCH  18  19
ATOM     19  O   UNL     1       0.028  -2.749  -2.386  0.00  0.00    -0.490 OA
BRANCH  19  23
ATOM     20  C   UNL     1      -0.018   1.503   0.010  0.00  0.00    +0.045 C 
ATOM     21  C   UNL     1       0.002  -0.004   0.002  0.00  0.00    -0.029 A 
ATOM     22  C   UNL     1       0.006  -0.688  -1.199  0.00  0.00    +0.050 A 
ATOM     23  C   UNL     1       0.025  -2.075  -1.206  0.00  0.00    +0.121 A 
ATOM     24  C   UNL     1       0.040  -2.773  -0.007  0.00  0.00    +0.047 A 
ATOM     25  C   UNL     1       0.036  -2.086   1.192  0.00  0.00    +0.024 A 
ATOM     26  C   UNL     1       0.023  -0.702   1.196  0.00  0.00    +0.044 A 
ATOM     27 CL   UNL     1       0.025   0.160   2.704  0.00  0.00    -0.083 Cl
ENDBRANCH  19  23
ENDBRANCH  18  19
ENDBRANCH  17  18
ENDBRANCH   1  17
TORSDOF 6
