REMARK  Name = ZINC02210140
REMARK  7 active torsions:
REMARK  status: ('A' for Active; 'I' for Inactive)
REMARK    1  A    between atoms: C_1  and  C_2
REMARK    2  A    between atoms: C_5  and  S_8
REMARK    3  A    between atoms: S_8  and  N_11
REMARK    4  A    between atoms: N_11  and  C_12
REMARK    5  A    between atoms: C_24  and  S_26
REMARK    6  A    between atoms: S_26  and  C_27
REMARK    7  A    between atoms: N_31  and  N_32
REMARK                            x       y       z     vdW  Elec       q    Type
REMARK                         _______ _______ _______ _____ _____    ______ ____
ROOT
ATOM      1  C   UNL     1      -1.290   1.681   0.017  0.00  0.00    +0.125 C 
ATOM      2  C   UNL     1      -1.832   1.763   1.423  0.00  0.00    -0.019 A 
ATOM      3  C   UNL     1      -1.391   2.313   2.588  0.00  0.00    +0.006 A 
ATOM      4  C   UNL     1      -2.156   2.209   3.752  0.00  0.00    +0.001 A 
ATOM      5  C   UNL     1      -3.363   1.559   3.777  0.00  0.00    +0.008 A 
ATOM      6  C   UNL     1      -3.847   0.982   2.591  0.00  0.00    -0.017 A 
ATOM      7  C   UNL     1      -3.058   1.101   1.433  0.00  0.00    -0.009 A 
ATOM      8  C   UNL     1      -3.439   0.569   0.206  0.00  0.00    -0.024 A 
ATOM      9  C   UNL     1      -4.628  -0.092   0.138  0.00  0.00    +0.005 A 
ATOM     10  C   UNL     1      -5.428  -0.223   1.275  0.00  0.00    +0.001 A 
ATOM     11  C   UNL     1      -5.067   0.294   2.486  0.00  0.00    +0.008 A 
ATOM     12  C   UNL     1      -2.349   0.895  -0.786  0.00  0.00    +0.108 C 
ENDROOT
BRANCH   1  13
ATOM     13  N   UNL     1      -0.011   0.966   0.007  0.00  0.00    -0.181 NA
ATOM     14  H   UNL     1       0.002  -0.004   0.002  0.00  0.00    +0.149 HD
BRANCH  13  15
ATOM     15  S   UNL     1       1.412   1.813  -0.002  0.00  0.00    +0.059 S 
ATOM     16  O   UNL     1       2.457   0.851   0.010  0.00  0.00    -0.153 OA
ATOM     17  O   UNL     1       1.292   2.796  -1.021  0.00  0.00    -0.153 OA
BRANCH  15  22
ATOM     18  C   UNL     1       1.748   4.791   5.235  0.00  0.00    +0.044 C 
ATOM     19  C   UNL     1       1.664   4.047   3.927  0.00  0.00    -0.050 A 
ATOM     20  C   UNL     1       2.186   2.771   3.823  0.00  0.00    +0.005 A 
ATOM     21  C   UNL     1       2.108   2.089   2.623  0.00  0.00    +0.029 A 
ATOM     22  C   UNL     1       1.510   2.683   1.528  0.00  0.00    +0.105 A 
ATOM     23  C   UNL     1       0.993   3.961   1.630  0.00  0.00    +0.029 A 
ATOM     24  C   UNL     1       1.066   4.641   2.832  0.00  0.00    +0.005 A 
ENDBRANCH  15  22
ENDBRANCH  13  15
ENDBRANCH   1  13
BRANCH  12  25
ATOM     25  S   UNL     1      -1.630  -0.627  -1.450  0.00  0.00    -0.074 S 
BRANCH  25  26
ATOM     26  C   UNL     1      -2.986  -1.212  -2.412  0.00  0.00    +0.209 A 
ATOM     27  N   UNL     1      -4.155  -0.631  -2.546  0.00  0.00    -0.121 NA
ATOM     28  N   UNL     1      -4.905  -1.332  -3.320  0.00  0.00    -0.135 NA
ATOM     29  C   UNL     1      -4.264  -2.393  -3.722  0.00  0.00    +0.244 A 
ATOM     30  N   UNL     1      -3.017  -2.352  -3.163  0.00  0.00    -0.231 N 
BRANCH  30  31
ATOM     31  N   UNL     1      -2.012  -3.263  -3.321  0.00  0.00    -0.295 N 
ATOM     32  H   UNL     1      -2.065  -3.986  -2.619  0.00  0.00    +0.163 HD
ATOM     33  H   UNL     1      -2.025  -3.659  -4.249  0.00  0.00    +0.163 HD
ENDBRANCH  30  31
ENDBRANCH  25  26
ENDBRANCH  12  25
TORSDOF 6
