REMARK  Name = ZINC64452279
REMARK  6 active torsions:
REMARK  status: ('A' for Active; 'I' for Inactive)
REMARK    1  A    between atoms: C_1  and  C_2
REMARK    2  A    between atoms: N_5  and  S_8
REMARK    3  A    between atoms: S_8  and  C_11
REMARK    4  A    between atoms: N_13  and  C_16
REMARK    5  A    between atoms: C_16  and  C_17
REMARK    6  A    between atoms: C_20  and  C_23
REMARK                            x       y       z     vdW  Elec       q    Type
REMARK                         _______ _______ _______ _____ _____    ______ ____
ROOT
ATOM      1  C   UNL     1      -0.884  -8.035  -1.832  0.00  0.00    +0.157 C 
ATOM      2  N   UNL     1      -0.179  -7.030  -2.205  0.00  0.00    -0.070 NA
ATOM      3  O   UNL     1       0.113  -7.100  -3.588  0.00  0.00    -0.367 OA
ATOM      4  C   UNL     1      -0.506  -8.303  -4.071  0.00  0.00    +0.318 C 
ATOM      5  N   UNL     1      -1.144  -8.886  -2.880  0.00  0.00    -0.290 N 
ATOM      6  H   UNL     1      -1.653  -9.712  -2.842  0.00  0.00    +0.151 HD
ENDROOT
BRANCH   4   7
ATOM      7  C   UNL     1       0.549  -9.259  -4.633  0.00  0.00    +0.165 C 
ATOM      8  C   UNL     1      -0.112 -10.512  -5.160  0.00  0.00    +0.012 C 
ATOM      9  C   UNL     1       0.185 -10.566  -6.479  0.00  0.00    -0.002 A 
ATOM     10  C   UNL     1      -0.156 -11.525  -7.536  0.00  0.00    +0.029 A 
ATOM     11  C   UNL     1       0.298 -11.306  -8.792  0.00  0.00    +0.042 A 
ATOM     12  C   UNL     1       1.085 -10.188  -9.107  0.00  0.00    +0.022 A 
ATOM     13  C   UNL     1       1.439  -9.265  -8.189  0.00  0.00    +0.027 A 
ATOM     14  C   UNL     1       1.017  -9.395  -6.837  0.00  0.00    +0.043 A 
ATOM     15  N   UNL     1       1.226  -8.646  -5.780  0.00  0.00    -0.373 N 
ATOM     16 CL   UNL     1      -0.102 -12.439 -10.046  0.00  0.00    -0.084 Cl
ATOM     17  H   UNL     1       1.742  -7.824  -5.761  0.00  0.00    +0.160 HD
ENDBRANCH   4   7
BRANCH   1  18
ATOM     18  C   UNL     1      -1.361  -8.259  -0.420  0.00  0.00    +0.197 C 
BRANCH  18  21
ATOM     19  C   UNL     1      -0.795  -5.265   1.507  0.00  0.00    +0.211 A 
ATOM     20  C   UNL     1      -1.571  -5.990   0.679  0.00  0.00    +0.136 A 
ATOM     21  N   UNL     1      -0.902  -7.158   0.431  0.00  0.00    -0.328 N 
ATOM     22  C   UNL     1       0.260  -7.107   1.117  0.00  0.00    +0.202 A 
ATOM     23  N   UNL     1       0.320  -5.970   1.754  0.00  0.00    -0.216 NA
BRANCH  19  24
ATOM     24  S   UNL     1      -1.173  -3.668   2.148  0.00  0.00    +0.080 S 
ATOM     25  O   UNL     1      -0.421  -3.521   3.344  0.00  0.00    -0.151 OA
ATOM     26  O   UNL     1      -2.589  -3.544   2.119  0.00  0.00    -0.151 OA
BRANCH  24  31
ATOM     27  C   UNL     1      -0.019   1.526   0.010  0.00  0.00    +0.007 C 
ATOM     28  C   UNL     1       0.002  -0.004   0.002  0.00  0.00    -0.012 C 
ATOM     29  C   UNL     1      -1.434  -0.533   0.011  0.00  0.00    +0.020 C 
ATOM     30  C   UNL     1      -1.409  -2.065  -0.032  0.00  0.00    +0.110 C 
ATOM     31  N   UNL     1      -0.578  -2.556   1.075  0.00  0.00    -0.175 NA
ATOM     32  C   UNL     1       0.791  -2.042   1.212  0.00  0.00    +0.110 C 
ATOM     33  C   UNL     1       0.742  -0.511   1.242  0.00  0.00    +0.020 C 
ENDBRANCH  24  31
ENDBRANCH  19  24
ENDBRANCH  18  21
ENDBRANCH   1  18
TORSDOF 5
