REMARK  Name = ZINC63161506
REMARK  5 active torsions:
REMARK  status: ('A' for Active; 'I' for Inactive)
REMARK    1  A    between atoms: C_4  and  C_7
REMARK    2  A    between atoms: C_10  and  C_12
REMARK    3  A    between atoms: C_12  and  N_13
REMARK    4  A    between atoms: N_16  and  C_17
REMARK    5  A    between atoms: C_19  and  C_25
REMARK                            x       y       z     vdW  Elec       q    Type
REMARK                         _______ _______ _______ _____ _____    ______ ____
ROOT
ATOM      1  N   UNL     1       7.801   0.218   1.313  0.00  0.00    -0.293 N 
ATOM      2  C   UNL     1       9.026   0.718   1.569  0.00  0.00    +0.304 C 
ATOM      3  O   UNL     1       9.699   1.171   0.664  0.00  0.00    -0.252 OA
ATOM      4  N   UNL     1       9.505   0.714   2.829  0.00  0.00    -0.265 N 
ATOM      5  H   UNL     1       7.264  -0.144   2.035  0.00  0.00    +0.151 HD
ATOM      6  H   UNL     1       8.941   0.420   3.562  0.00  0.00    +0.157 HD
ENDROOT
BRANCH   4   7
ATOM      7  C   UNL     1      10.819   1.133   3.081  0.00  0.00    +0.100 A 
ATOM      8  C   UNL     1      11.061   2.174   3.935  0.00  0.00    +0.042 A 
ATOM      9  C   UNL     1      12.385   2.574   4.169  0.00  0.00    +0.073 A 
ATOM     10  C   UNL     1      13.405   1.933   3.554  0.00  0.00    +0.098 A 
ATOM     11  N   UNL     1      13.166   0.898   2.704  0.00  0.00    -0.327 N 
ATOM     12  H   UNL     1      13.910   0.451   2.273  0.00  0.00    +0.168 HD
ATOM     13  C   UNL     1      11.908   0.484   2.460  0.00  0.00    +0.270 A 
ATOM     14  O   UNL     1      11.709  -0.450   1.699  0.00  0.00    -0.266 OA
BRANCH   9  15
ATOM     15  C   UNL     1      12.671   3.718   5.107  0.00  0.00    +0.419 C 
ATOM     16  F   UNL     1      14.052   3.928   5.178  0.00  0.00    -0.166 F 
ATOM     17  F   UNL     1      12.047   4.877   4.633  0.00  0.00    -0.166 F 
ATOM     18  F   UNL     1      12.180   3.412   6.380  0.00  0.00    -0.166 F 
ENDBRANCH   9  15
ENDBRANCH   4   7
BRANCH   1  19
ATOM     19  C   UNL     1       7.280   0.223  -0.057  0.00  0.00    +0.168 C 
BRANCH  19  23
ATOM     20  C   UNL     1       3.610  -0.461   0.043  0.00  0.00    +0.078 A 
ATOM     21  C   UNL     1       3.706  -1.812  -0.162  0.00  0.00    +0.075 A 
ATOM     22  S   UNL     1       5.477  -2.000  -0.286  0.00  0.00    -0.078 S 
ATOM     23  C   UNL     1       5.901  -0.386  -0.072  0.00  0.00    +0.096 A 
ATOM     24  N   UNL     1       4.750   0.215   0.075  0.00  0.00    -0.242 NA
BRANCH  20  28
ATOM     25  C   UNL     1      -0.149   1.466   0.530  0.00  0.00    +0.000 A 
ATOM     26  C   UNL     1       1.017   2.209   0.571  0.00  0.00    +0.001 A 
ATOM     27  C   UNL     1       2.240   1.589   0.414  0.00  0.00    +0.010 A 
ATOM     28  C   UNL     1       2.298   0.211   0.213  0.00  0.00    +0.001 A 
ATOM     29  C   UNL     1       1.121  -0.533   0.172  0.00  0.00    +0.010 A 
ATOM     30  C   UNL     1      -0.097   0.098   0.331  0.00  0.00    +0.001 A 
ENDBRANCH  20  28
ENDBRANCH  19  23
ENDBRANCH   1  19
TORSDOF 5
