REMARK  Name = ZINC61639499
REMARK  4 active torsions:
REMARK  status: ('A' for Active; 'I' for Inactive)
REMARK    1  A    between atoms: C_1  and  C_2
REMARK    2  A    between atoms: N_6  and  C_14
REMARK    3  A    between atoms: C_14  and  C_15
REMARK    4  A    between atoms: C_19  and  N_21
REMARK                            x       y       z     vdW  Elec       q    Type
REMARK                         _______ _______ _______ _____ _____    ______ ____
ROOT
ATOM      1  C   UNL     1      -0.019   1.526   0.010  0.00  0.00    +0.062 C 
ATOM      2  C   UNL     1       0.002  -0.004   0.002  0.00  0.00    +0.256 C 
ATOM      3  C   UNL     1       0.706  -0.490  -1.239  0.00  0.00    +0.261 C 
ATOM      4  O   UNL     1       0.074  -0.718  -2.249  0.00  0.00    -0.271 OA
ATOM      5  N   UNL     1       2.045  -0.669  -1.223  0.00  0.00    -0.259 N 
ATOM      6  C   UNL     1       2.748  -0.433  -0.033  0.00  0.00    +0.079 A 
ATOM      7  C   UNL     1       4.126  -0.291  -0.041  0.00  0.00    +0.027 A 
ATOM      8  C   UNL     1       4.800  -0.060   1.144  0.00  0.00    +0.002 A 
ATOM      9  C   UNL     1       4.102   0.031   2.335  0.00  0.00    +0.004 A 
ATOM     10  C   UNL     1       2.726  -0.109   2.349  0.00  0.00    +0.047 A 
ATOM     11  C   UNL     1       2.045  -0.340   1.167  0.00  0.00    +0.143 A 
ATOM     12  O   UNL     1       0.692  -0.477   1.161  0.00  0.00    -0.478 OA
ENDROOT
BRANCH   5  13
ATOM     13  C   UNL     1       2.752  -1.105  -2.430  0.00  0.00    +0.170 C 
BRANCH  13  14
ATOM     14  C   UNL     1       3.181   0.102  -3.224  0.00  0.00    +0.079 A 
ATOM     15  C   UNL     1       2.332   0.626  -4.180  0.00  0.00    +0.064 A 
ATOM     16  C   UNL     1       2.734   1.739  -4.909  0.00  0.00    +0.025 A 
ATOM     17  C   UNL     1       3.978   2.284  -4.648  0.00  0.00    +0.045 A 
ATOM     18  C   UNL     1       4.780   1.704  -3.671  0.00  0.00    +0.117 A 
ATOM     19  N   UNL     1       4.360   0.647  -2.994  0.00  0.00    -0.234 NA
ATOM     20 CL   UNL     1       0.781  -0.098  -4.468  0.00  0.00    -0.082 Cl
BRANCH  18  21
ATOM     21  N   UNL     1       6.034   2.243  -3.400  0.00  0.00    -0.343 N 
ATOM     22  H   UNL     1       6.344   3.019  -3.891  0.00  0.00    +0.144 HD
ATOM     23  H   UNL     1       6.597   1.842  -2.720  0.00  0.00    +0.144 HD
ENDBRANCH  18  21
ENDBRANCH  13  14
ENDBRANCH   5  13
TORSDOF 3
