REMARK  Name = ZINC09647577
REMARK  7 active torsions:
REMARK  status: ('A' for Active; 'I' for Inactive)
REMARK    1  A    between atoms: C_1  and  C_2
REMARK    2  A    between atoms: C_2  and  C_3
REMARK    3  A    between atoms: C_3  and  C_5
REMARK    4  A    between atoms: C_3  and  N_12
REMARK    5  A    between atoms: C_13  and  C_15
REMARK    6  A    between atoms: C_15  and  N_16
REMARK    7  A    between atoms: C_24  and  C_26
REMARK                            x       y       z     vdW  Elec       q    Type
REMARK                         _______ _______ _______ _____ _____    ______ ____
ROOT
ATOM      1  C   UNL     1      -3.956   0.343   4.435  0.00  0.00    +0.213 C 
ENDROOT
BRANCH   1   2
ATOM      2  N   UNL     1      -3.233   0.381   3.161  0.00  0.00    -0.215 N 
ATOM      3  C   UNL     1      -2.885   1.517   2.521  0.00  0.00    +0.247 C 
ATOM      4  O   UNL     1      -3.102   2.655   2.875  0.00  0.00    -0.273 OA
ATOM      5  C   UNL     1      -2.167   1.069   1.268  0.00  0.00    +0.115 C 
ATOM      6  C   UNL     1      -2.911   1.550   0.027  0.00  0.00    +0.035 C 
ATOM      7  C   UNL     1      -2.186   1.056  -1.227  0.00  0.00    +0.003 C 
ATOM      8  C   UNL     1      -0.753   1.593  -1.231  0.00  0.00    +0.000 C 
ATOM      9  C   UNL     1      -0.013   1.086   0.008  0.00  0.00    +0.006 C 
ATOM     10  C   UNL     1      -0.730   1.580   1.267  0.00  0.00    +0.018 C 
ATOM     11  C   UNL     1      -0.002   1.056   2.507  0.00  0.00    +0.010 C 
ATOM     12  N   UNL     1      -2.191  -0.397   1.347  0.00  0.00    -0.285 N 
ATOM     13  C   UNL     1      -2.836  -0.706   2.489  0.00  0.00    +0.310 C 
ATOM     14  O   UNL     1      -3.035  -1.844   2.866  0.00  0.00    -0.252 OA
ATOM     15  H   UNL     1      -1.817  -1.020   0.705  0.00  0.00    +0.151 HD
ENDBRANCH   1   2
BRANCH   1  17
ATOM     16  N   UNL     1      -3.409   0.315   6.847  0.00  0.00    -0.307 N 
ATOM     17  C   UNL     1      -2.969   0.347   5.573  0.00  0.00    +0.231 C 
ATOM     18  O   UNL     1      -1.778   0.378   5.343  0.00  0.00    -0.274 OA
ATOM     19  H   UNL     1      -4.361   0.290   7.030  0.00  0.00    +0.149 HD
BRANCH  16  20
ATOM     20  C   UNL     1      -2.449   0.319   7.953  0.00  0.00    +0.103 C 
BRANCH  20  21
ATOM     21  C   UNL     1      -3.106   0.883   9.186  0.00  0.00    -0.027 A 
ATOM     22  C   UNL     1      -4.417   0.560   9.480  0.00  0.00    +0.006 A 
ATOM     23  C   UNL     1      -5.019   1.073  10.614  0.00  0.00    +0.015 A 
ATOM     24  C   UNL     1      -4.311   1.920  11.448  0.00  0.00    +0.018 A 
ATOM     25  C   UNL     1      -3.001   2.248  11.151  0.00  0.00    +0.015 A 
ATOM     26  C   UNL     1      -2.399   1.730  10.020  0.00  0.00    +0.006 A 
ATOM     27 BR   UNL     1      -5.136   2.630  12.995  0.00  0.00    -0.050 Br
ENDBRANCH  20  21
BRANCH  20  29
ATOM     28  C   UNL     1      -1.210  -1.642   7.025  0.00  0.00    +0.006 C 
ATOM     29  C   UNL     1      -1.986  -1.113   8.232  0.00  0.00    +0.024 C 
ENDBRANCH  20  29
ENDBRANCH  16  20
ENDBRANCH   1  17
TORSDOF 5
