REMARK  Name = ZINC19910414
REMARK  6 active torsions:
REMARK  status: ('A' for Active; 'I' for Inactive)
REMARK    1  A    between atoms: C_1  and  C_2
REMARK    2  A    between atoms: C_13  and  O_15
REMARK    3  A    between atoms: N_21  and  N_22
REMARK    4  A    between atoms: N_22  and  C_23
REMARK    5  A    between atoms: C_23  and  N_25
REMARK    6  A    between atoms: C_28  and  C_29
REMARK                            x       y       z     vdW  Elec       q    Type
REMARK                         _______ _______ _______ _____ _____    ______ ____
ROOT
ATOM      1  C   UNL     1       0.312   2.781   4.565  0.00  0.00    +0.014 C 
ATOM      2  C   UNL     1      -1.085   2.971   3.981  0.00  0.00    -0.003 C 
ATOM      3  C   UNL     1      -1.648   1.636   3.554  0.00  0.00    +0.010 C 
ATOM      4  C   UNL     1      -0.775   1.091   2.404  0.00  0.00    +0.005 C 
ATOM      5  C   UNL     1      -0.748   2.056   1.236  0.00  0.00    +0.002 C 
ATOM      6  C   UNL     1      -0.332   3.473   1.605  0.00  0.00    -0.003 C 
ATOM      7  C   UNL     1      -1.133   3.946   2.788  0.00  0.00    +0.001 C 
ATOM      8  C   UNL     1      -0.718   5.265   3.454  0.00  0.00    +0.007 C 
ATOM      9  C   UNL     1      -1.517   5.227   4.788  0.00  0.00    +0.032 C 
ATOM     10  C   UNL     1      -1.913   3.746   5.021  0.00  0.00    +0.121 C 
ATOM     11  C   UNL     1       1.155   3.713   1.751  0.00  0.00    +0.008 C 
ATOM     12  C   UNL     1       1.985   2.509   1.308  0.00  0.00    +0.031 C 
ATOM     13  C   UNL     1       1.402   2.033  -0.000  0.00  0.00    -0.062 C 
ATOM     14  C   UNL     1       2.099   2.097  -1.123  0.00  0.00    +0.024 C 
ATOM     15  C   UNL     1       1.473   1.804  -2.415  0.00  0.00    +0.059 C 
ATOM     16  N   UNL     1       2.197   1.810  -3.497  0.00  0.00    -0.186 NA
ATOM     17  C   UNL     1      -0.001   1.508  -2.502  0.00  0.00    +0.058 C 
ATOM     18  C   UNL     1      -0.723   2.022  -1.258  0.00  0.00    +0.017 C 
ATOM     19  C   UNL     1      -0.019   1.526   0.010  0.00  0.00    -0.007 C 
ATOM     20  C   UNL     1       0.002  -0.004   0.002  0.00  0.00    +0.016 C 
ENDROOT
BRANCH  10  21
ATOM     21  O   UNL     1      -1.549   3.331   6.336  0.00  0.00    -0.391 OA
ATOM     22  H   UNL     1      -2.041   3.781   7.211  0.00  0.00    +0.210 HD
ENDBRANCH  10  21
BRANCH  16  23
ATOM     23  N   UNL     1       1.607   1.531  -4.737  0.00  0.00    -0.218 N 
ATOM     24  H   UNL     1       0.531   1.308  -4.796  0.00  0.00    +0.176 HD
BRANCH  23  25
ATOM     25  C   UNL     1       2.357   1.536  -5.857  0.00  0.00    +0.147 C 
ATOM     26  S   UNL     1       1.635   1.195  -7.371  0.00  0.00    -0.017 S 
BRANCH  25  27
ATOM     27  N   UNL     1       3.674   1.810  -5.784  0.00  0.00    -0.339 N 
ATOM     28  H   UNL     1       4.286   1.814  -6.698  0.00  0.00    +0.144 HD
ATOM     29  H   UNL     1       4.138   2.029  -4.811  0.00  0.00    +0.144 HD
ENDBRANCH  25  27
ENDBRANCH  23  25
ENDBRANCH  16  23
TORSDOF 4
