REMARK  Name = ZINC46772662
REMARK  11 active torsions:
REMARK  status: ('A' for Active; 'I' for Inactive)
REMARK    1  A    between atoms: C_1  and  C_2
REMARK    2  A    between atoms: C_7  and  N_8
REMARK    3  A    between atoms: N_8  and  C_9
REMARK    4  A    between atoms: C_9  and  N_11
REMARK    5  A    between atoms: N_11  and  N_12
REMARK    6  A    between atoms: C_13  and  C_15
REMARK    7  A    between atoms: C_15  and  N_16
REMARK    8  A    between atoms: C_22  and  C_25
REMARK    9  A    between atoms: C_25  and  C_26
REMARK   10  A    between atoms: C_25  and  C_27
REMARK   11  A    between atoms: C_25  and  C_28
REMARK                            x       y       z     vdW  Elec       q    Type
REMARK                         _______ _______ _______ _____ _____    ______ ____
ROOT
ATOM      1  C   UNL     1      -0.295   3.549   5.922  0.00  0.00    +0.215 C 
ENDROOT
BRANCH   1   2
ATOM      2  N   UNL     1      -0.408   4.030   7.301  0.00  0.00    -0.215 N 
ATOM      3  C   UNL     1      -1.580   4.259   7.930  0.00  0.00    +0.247 C 
ATOM      4  O   UNL     1      -2.696   4.112   7.480  0.00  0.00    -0.273 OA
ATOM      5  C   UNL     1      -1.207   4.738   9.315  0.00  0.00    +0.113 C 
ATOM      6  C   UNL     1      -1.751   3.781  10.371  0.00  0.00    +0.035 C 
ATOM      7  C   UNL     1      -3.281   3.784  10.324  0.00  0.00    +0.006 C 
ATOM      8  C   UNL     1      -3.796   5.201  10.581  0.00  0.00    -0.005 C 
ATOM      9  C   UNL     1      -3.260   6.145   9.503  0.00  0.00    +0.006 C 
ATOM     10  C   UNL     1      -1.729   6.151   9.547  0.00  0.00    +0.035 C 
ATOM     11  N   UNL     1       0.261   4.724   9.314  0.00  0.00    -0.285 N 
ATOM     12  C   UNL     1       0.637   4.291   8.096  0.00  0.00    +0.310 C 
ATOM     13  O   UNL     1       1.796   4.156   7.754  0.00  0.00    -0.252 OA
ATOM     14  H   UNL     1       0.844   4.974  10.048  0.00  0.00    +0.151 HD
BRANCH   8  15
ATOM     15  C   UNL     1      -5.325   5.202  10.544  0.00  0.00    -0.035 C 
ATOM     16  C   UNL     1      -5.862   4.261  11.624  0.00  0.00    +0.011 C 
ATOM     17  C   UNL     1      -5.841   6.620  10.802  0.00  0.00    +0.011 C 
ATOM     18  C   UNL     1      -5.803   4.728   9.171  0.00  0.00    +0.011 C 
ENDBRANCH   8  15
ENDBRANCH   1   2
BRANCH   1  20
ATOM     19  N   UNL     1      -0.175   1.374   4.750  0.00  0.00    -0.234 N 
ATOM     20  C   UNL     1      -0.274   2.042   5.916  0.00  0.00    +0.247 C 
ATOM     21  O   UNL     1      -0.348   1.430   6.961  0.00  0.00    -0.273 OA
ATOM     22  H   UNL     1      -0.116   1.863   3.914  0.00  0.00    +0.173 HD
BRANCH  19  23
ATOM     23  N   UNL     1      -0.156  -0.027   4.744  0.00  0.00    -0.246 N 
ATOM     24  H   UNL     1      -0.215  -0.516   5.580  0.00  0.00    +0.172 HD
BRANCH  23  25
ATOM     25  C   UNL     1      -0.056  -0.695   3.578  0.00  0.00    +0.151 C 
ATOM     26  S   UNL     1      -0.033  -2.406   3.571  0.00  0.00    -0.017 S 
BRANCH  25  27
ATOM     27  N   UNL     1       0.025  -0.015   2.417  0.00  0.00    -0.296 N 
ATOM     28  H   UNL     1       0.075   0.954   2.425  0.00  0.00    +0.154 HD
BRANCH  27  35
ATOM     29  C   UNL     1      -1.705   0.882   0.344  0.00  0.00    +0.045 C 
ATOM     30  C   UNL     1      -0.792  -0.302   0.162  0.00  0.00    -0.029 A 
ATOM     31  C   UNL     1      -0.773  -0.984  -1.039  0.00  0.00    +0.005 A 
ATOM     32  C   UNL     1       0.064  -2.071  -1.206  0.00  0.00    +0.000 A 
ATOM     33  C   UNL     1       0.886  -2.480  -0.172  0.00  0.00    +0.002 A 
ATOM     34  C   UNL     1       0.873  -1.803   1.032  0.00  0.00    +0.023 A 
ATOM     35  C   UNL     1       0.037  -0.706   1.201  0.00  0.00    +0.036 A 
ENDBRANCH  27  35
ENDBRANCH  25  27
ENDBRANCH  23  25
ENDBRANCH  19  23
ENDBRANCH   1  20
TORSDOF 7
