REMARK  Name = ZINC36899482
REMARK  1 active torsions:
REMARK  status: ('A' for Active; 'I' for Inactive)
REMARK    1  A    between atoms: C_5  and  N_7
REMARK                            x       y       z     vdW  Elec       q    Type
REMARK                         _______ _______ _______ _____ _____    ______ ____
ROOT
ATOM      1  N   UNL     1       1.236  -2.082  -0.021  0.00  0.00    -0.279 N 
ATOM      2  C   UNL     1       1.255  -2.912   1.090  0.00  0.00    +0.075 A 
ATOM      3  C   UNL     1       1.258  -2.686   2.458  0.00  0.00    +0.029 A 
ATOM      4  C   UNL     1       1.279  -3.754   3.331  0.00  0.00    +0.017 A 
ATOM      5  C   UNL     1       1.298  -5.055   2.848  0.00  0.00    +0.020 A 
ATOM      6  C   UNL     1       1.296  -5.298   1.492  0.00  0.00    +0.045 A 
ATOM      7  C   UNL     1       1.273  -4.226   0.596  0.00  0.00    +0.092 A 
ATOM      8  N   UNL     1       1.266  -4.145  -0.761  0.00  0.00    -0.214 NA
ATOM      9  C   UNL     1       1.238  -2.888  -1.127  0.00  0.00    +0.199 A 
ATOM     10  N   UNL     1       1.218  -2.442  -2.432  0.00  0.00    -0.329 N 
ATOM     11 BR   UNL     1       1.328  -6.506   4.061  0.00  0.00    -0.050 Br
ATOM     12  H   UNL     1       1.201  -1.491  -2.619  0.00  0.00    +0.145 HD
ATOM     13  H   UNL     1       1.220  -3.080  -3.162  0.00  0.00    +0.145 HD
ENDROOT
BRANCH   1  18
ATOM     14  C   UNL     1      -0.017   1.377   0.010  0.00  0.00    +0.002 A 
ATOM     15  C   UNL     1       1.170   2.087   0.002  0.00  0.00    +0.002 A 
ATOM     16  C   UNL     1       2.380   1.417  -0.013  0.00  0.00    +0.022 A 
ATOM     17  C   UNL     1       2.405   0.035  -0.021  0.00  0.00    +0.065 A 
ATOM     18  C   UNL     1       1.214  -0.681  -0.013  0.00  0.00    +0.068 A 
ATOM     19  C   UNL     1       0.002  -0.004   0.002  0.00  0.00    +0.028 A 
ATOM     20 CL   UNL     1       3.924  -0.807  -0.040  0.00  0.00    -0.081 Cl
ENDBRANCH   1  18
TORSDOF 1
