REMARK  Name = ZINC46728409
REMARK  7 active torsions:
REMARK  status: ('A' for Active; 'I' for Inactive)
REMARK    1  A    between atoms: C_1  and  C_2
REMARK    2  A    between atoms: C_5  and  C_7
REMARK    3  A    between atoms: C_7  and  C_9
REMARK    4  A    between atoms: C_7  and  N_26
REMARK    5  A    between atoms: C_9  and  N_10
REMARK    6  A    between atoms: N_13  and  C_14
REMARK    7  A    between atoms: C_14  and  C_15
REMARK                            x       y       z     vdW  Elec       q    Type
REMARK                         _______ _______ _______ _____ _____    ______ ____
ROOT
ATOM      1  N   UNL     1       3.312  -4.457   1.343  0.00  0.00    -0.297 N 
ATOM      2  C   UNL     1       3.990  -4.769   2.465  0.00  0.00    +0.300 C 
ATOM      3  O   UNL     1       3.761  -4.173   3.499  0.00  0.00    -0.253 OA
ATOM      4  N   UNL     1       4.921  -5.743   2.440  0.00  0.00    -0.296 N 
ATOM      5  H   UNL     1       3.494  -4.932   0.517  0.00  0.00    +0.150 HD
ATOM      6  H   UNL     1       5.104  -6.219   1.614  0.00  0.00    +0.150 HD
ENDROOT
BRANCH   1   7
ATOM      7  C   UNL     1       2.299  -3.398   1.370  0.00  0.00    +0.132 C 
BRANCH   7   8
ATOM      8  C   UNL     1       1.684  -3.245  -0.023  0.00  0.00    +0.140 C 
BRANCH   8  13
ATOM      9  C   UNL     1      -0.061   1.487   0.043  0.00  0.00    +0.086 C 
ATOM     10  C   UNL     1      -0.026  -0.019   0.003  0.00  0.00    +0.102 A 
ATOM     11  C   UNL     1      -1.099  -0.829  -0.057  0.00  0.00    +0.045 A 
ATOM     12  C   UNL     1      -0.610  -2.155  -0.076  0.00  0.00    +0.046 A 
ATOM     13  C   UNL     1       0.732  -2.077  -0.025  0.00  0.00    +0.124 A 
ATOM     14  O   UNL     1       1.080  -0.780   0.016  0.00  0.00    -0.463 OA
ENDBRANCH   8  13
BRANCH   8  15
ATOM     15  N   UNL     1       2.750  -3.011  -1.006  0.00  0.00    -0.287 NA
ATOM     16  C   UNL     1       3.568  -1.848  -0.629  0.00  0.00    +0.113 C 
ATOM     17  C   UNL     1       4.700  -1.677  -1.646  0.00  0.00    +0.175 C 
ATOM     18  O   UNL     1       4.141  -1.544  -2.956  0.00  0.00    -0.377 OA
ATOM     19  C   UNL     1       3.339  -2.659  -3.355  0.00  0.00    +0.175 C 
ATOM     20  C   UNL     1       2.194  -2.841  -2.356  0.00  0.00    +0.113 C 
ENDBRANCH   8  15
ENDBRANCH   7   8
ENDBRANCH   1   7
BRANCH   4  21
ATOM     21  C   UNL     1       5.659  -6.083   3.659  0.00  0.00    +0.153 C 
BRANCH  21  22
ATOM     22  C   UNL     1       6.648  -7.211   3.359  0.00  0.00    +0.228 C 
ATOM     23  C   UNL     1       7.413  -7.582   4.637  0.00  0.00    +0.275 C 
ATOM     24  O   UNL     1       8.317  -8.647   4.325  0.00  0.00    -0.485 OA
ATOM     25  C   UNL     1       7.815  -9.681   3.597  0.00  0.00    +0.162 A 
ATOM     26  C   UNL     1       8.499 -10.888   3.566  0.00  0.00    +0.049 A 
ATOM     27  C   UNL     1       8.004 -11.946   2.829  0.00  0.00    +0.004 A 
ATOM     28  C   UNL     1       6.825 -11.806   2.120  0.00  0.00    +0.004 A 
ATOM     29  C   UNL     1       6.138 -10.607   2.147  0.00  0.00    +0.049 A 
ATOM     30  C   UNL     1       6.629  -9.542   2.886  0.00  0.00    +0.163 A 
ATOM     31  O   UNL     1       5.936  -8.370   2.910  0.00  0.00    -0.480 OA
ENDBRANCH  21  22
ENDBRANCH   4  21
TORSDOF 6
