REMARK  Name = ZINC10933055
REMARK  8 active torsions:
REMARK  status: ('A' for Active; 'I' for Inactive)
REMARK    1  A    between atoms: C_1  and  C_2
REMARK    2  A    between atoms: C_2  and  C_4
REMARK    3  A    between atoms: C_2  and  O_11
REMARK    4  A    between atoms: N_9  and  C_10
REMARK    5  A    between atoms: O_11  and  C_12
REMARK    6  A    between atoms: C_12  and  C_14
REMARK    7  A    between atoms: C_18  and  N_19
REMARK    8  A    between atoms: C_20  and  C_22
REMARK                            x       y       z     vdW  Elec       q    Type
REMARK                         _______ _______ _______ _____ _____    ______ ____
ROOT
ATOM      1  C   UNL     1       3.278   2.753  -1.293  0.00  0.00    +0.091 A 
ATOM      2  C   UNL     1       3.555   4.189  -1.328  0.00  0.00    -0.021 A 
ATOM      3  C   UNL     1       4.856   4.518  -1.410  0.00  0.00    -0.004 A 
ATOM      4  S   UNL     1       5.715   2.963  -1.440  0.00  0.00    -0.077 S 
ATOM      5  C   UNL     1       4.361   1.890  -1.340  0.00  0.00    +0.086 A 
ATOM      6  C   UNL     1       5.061   6.008  -1.445  0.00  0.00    +0.043 C 
ATOM      7  C   UNL     1       3.674   6.583  -1.806  0.00  0.00    +0.010 C 
ATOM      8  C   UNL     1       2.731   5.477  -1.291  0.00  0.00    +0.037 C 
ENDROOT
BRANCH   5   9
ATOM      9  N   UNL     1       4.359   0.505  -1.314  0.00  0.00    -0.279 N 
ATOM     10  C   UNL     1       5.524  -0.171  -1.369  0.00  0.00    +0.221 C 
ATOM     11  O   UNL     1       6.573   0.433  -1.441  0.00  0.00    -0.275 OA
ATOM     12  H   UNL     1       3.520   0.021  -1.257  0.00  0.00    +0.155 HD
BRANCH  10  13
ATOM     13  C   UNL     1       5.523  -1.678  -1.342  0.00  0.00    +0.075 C 
ATOM     14  C   UNL     1       4.875  -2.164  -0.044  0.00  0.00    +0.013 C 
ATOM     15  C   UNL     1       4.873  -3.694  -0.016  0.00  0.00    +0.001 C 
ATOM     16  C   UNL     1       6.313  -4.206  -0.090  0.00  0.00    +0.000 C 
ATOM     17  C   UNL     1       6.961  -3.720  -1.387  0.00  0.00    +0.001 C 
ATOM     18  C   UNL     1       6.963  -2.191  -1.415  0.00  0.00    +0.013 C 
ENDBRANCH  10  13
ENDBRANCH   5   9
BRANCH   1  19
ATOM     19  C   UNL     1       1.907   2.247  -1.206  0.00  0.00    +0.343 C 
ATOM     20  O   UNL     1       1.275   2.023  -2.221  0.00  0.00    -0.245 OA
BRANCH  19  21
ATOM     21  O   UNL     1       1.343   2.028   0.000  0.00  0.00    -0.449 OA
BRANCH  21  23
ATOM     22  C   UNL     1       0.002  -0.004   0.002  0.00  0.00    +0.062 C 
ATOM     23  C   UNL     1      -0.019   1.526   0.010  0.00  0.00    +0.259 C 
BRANCH  23  24
ATOM     24  C   UNL     1      -0.724   2.012   1.250  0.00  0.00    +0.261 C 
ATOM     25  O   UNL     1      -0.112   2.636   2.091  0.00  0.00    -0.271 OA
ATOM     26  N   UNL     1      -2.035   1.753   1.425  0.00  0.00    -0.237 N 
ATOM     27  C   UNL     1      -2.666   2.187   2.534  0.00  0.00    +0.306 C 
ATOM     28  O   UNL     1      -2.053   2.813   3.376  0.00  0.00    -0.252 OA
ATOM     29  N   UNL     1      -3.977   1.928   2.709  0.00  0.00    -0.302 N 
ATOM     30  C   UNL     1      -4.663   2.401   3.914  0.00  0.00    +0.129 C 
ATOM     31  H   UNL     1      -2.525   1.253   0.753  0.00  0.00    +0.159 HD
ATOM     32  H   UNL     1      -4.466   1.429   2.037  0.00  0.00    +0.150 HD
ENDBRANCH  23  24
ENDBRANCH  21  23
ENDBRANCH  19  21
ENDBRANCH   1  19
TORSDOF 6
