REMARK  Name = ZINC66696551
REMARK  5 active torsions:
REMARK  status: ('A' for Active; 'I' for Inactive)
REMARK    1  A    between atoms: C_1  and  C_2
REMARK    2  A    between atoms: C_2  and  C_4
REMARK    3  A    between atoms: C_2  and  N_19
REMARK    4  A    between atoms: C_12  and  C_14
REMARK    5  A    between atoms: N_19  and  C_20
REMARK                            x       y       z     vdW  Elec       q    Type
REMARK                         _______ _______ _______ _____ _____    ______ ____
ROOT
ATOM      1  C   UNL     1       0.856  -0.474   1.166  0.00  0.00    +0.236 C 
ATOM      2  O   UNL     1       1.883  -1.081   0.945  0.00  0.00    -0.274 OA
ATOM      3  N   UNL     1       0.445  -0.285   2.436  0.00  0.00    -0.297 N 
ATOM      4  C   UNL     1      -0.850   0.350   2.716  0.00  0.00    +0.127 C 
ATOM      5  C   UNL     1      -1.672  -0.585   3.611  0.00  0.00    +0.127 C 
ATOM      6  N   UNL     1      -0.834  -1.012   4.740  0.00  0.00    -0.292 N 
ATOM      7  C   UNL     1       0.462  -1.647   4.460  0.00  0.00    +0.127 C 
ATOM      8  C   UNL     1       1.281  -0.717   3.565  0.00  0.00    +0.127 C 
ATOM      9  C   UNL     1      -1.245  -0.823   6.010  0.00  0.00    +0.282 C 
ATOM     10  O   UNL     1      -0.590  -1.268   6.934  0.00  0.00    -0.267 OA
ENDROOT
BRANCH   9  11
ATOM     11  C   UNL     1      -2.481  -0.081   6.277  0.00  0.00    +0.189 A 
ATOM     12  C   UNL     1      -2.947   0.285   7.508  0.00  0.00    +0.054 A 
ATOM     13  C   UNL     1      -4.152   0.973   7.295  0.00  0.00    +0.042 A 
ATOM     14  C   UNL     1      -4.365   0.997   5.961  0.00  0.00    +0.196 A 
ATOM     15  O   UNL     1      -3.354   0.366   5.351  0.00  0.00    -0.458 OA
ENDBRANCH   9  11
BRANCH   1  17
ATOM     16  C   UNL     1       0.409   1.534  -0.219  0.00  0.00    +0.038 C 
ATOM     17  C   UNL     1       0.040   0.068   0.021  0.00  0.00    +0.154 C 
BRANCH  17  18
ATOM     18  N   UNL     1       0.318  -0.710  -1.188  0.00  0.00    -0.333 N 
ATOM     19  H   UNL     1       1.162  -1.179  -1.280  0.00  0.00    +0.147 HD
BRANCH  18  20
ATOM     20  C   UNL     1      -0.634  -0.777  -2.211  0.00  0.00    +0.031 A 
ATOM     21  C   UNL     1      -1.841  -0.102  -2.083  0.00  0.00    +0.027 A 
ATOM     22  C   UNL     1      -2.782  -0.169  -3.092  0.00  0.00    +0.051 A 
ATOM     23  C   UNL     1      -2.525  -0.910  -4.236  0.00  0.00    +0.162 A 
ATOM     24  C   UNL     1      -1.317  -1.585  -4.369  0.00  0.00    +0.164 A 
ATOM     25  C   UNL     1      -0.372  -1.514  -3.357  0.00  0.00    +0.072 A 
ATOM     26  O   UNL     1      -1.044  -2.310  -5.488  0.00  0.00    -0.485 OA
ATOM     27  C   UNL     1      -2.158  -2.658  -6.317  0.00  0.00    +0.270 C 
ATOM     28  C   UNL     1      -3.025  -1.407  -6.508  0.00  0.00    +0.270 C 
ATOM     29  O   UNL     1      -3.467  -0.967  -5.219  0.00  0.00    -0.485 OA
ENDBRANCH  18  20
ENDBRANCH  17  18
ENDBRANCH   1  17
TORSDOF 4
