REMARK  Name = ZINC64887778
REMARK  6 active torsions:
REMARK  status: ('A' for Active; 'I' for Inactive)
REMARK    1  A    between atoms: C_1  and  O_2
REMARK    2  A    between atoms: O_2  and  C_3
REMARK    3  A    between atoms: C_3  and  C_5
REMARK    4  A    between atoms: C_7  and  N_18
REMARK    5  A    between atoms: N_18  and  C_19
REMARK    6  A    between atoms: C_19  and  C_20
REMARK                            x       y       z     vdW  Elec       q    Type
REMARK                         _______ _______ _______ _____ _____    ______ ____
ROOT
ATOM      1  C   UNL     1       0.605  -1.895   1.257  0.00  0.00    +0.228 C 
ATOM      2  C   UNL     1       1.605  -2.484   2.233  0.00  0.00    +0.036 C 
ATOM      3  C   UNL     1       1.132  -3.464   3.115  0.00  0.00    +0.014 A 
ATOM      4  C   UNL     1       1.995  -4.061   4.053  0.00  0.00    +0.014 A 
ATOM      5  C   UNL     1       1.517  -5.011   4.902  0.00  0.00    +0.039 A 
ATOM      6  C   UNL     1       0.182  -5.409   4.863  0.00  0.00    +0.125 A 
ATOM      7  C   UNL     1      -0.707  -4.859   3.967  0.00  0.00    +0.062 A 
ATOM      8  C   UNL     1      -0.272  -3.875   3.067  0.00  0.00    +0.045 A 
ATOM      9  N   UNL     1      -1.140  -3.340   2.195  0.00  0.00    -0.284 N 
ATOM     10  C   UNL     1      -0.813  -2.413   1.320  0.00  0.00    +0.237 C 
ATOM     11  O   UNL     1      -1.655  -1.973   0.559  0.00  0.00    -0.274 OA
ATOM     12  F   UNL     1      -0.250  -6.356   5.724  0.00  0.00    -0.205 F 
ATOM     13  H   UNL     1      -2.058  -3.653   2.210  0.00  0.00    +0.155 HD
ENDROOT
BRANCH   1  14
ATOM     14  C   UNL     1       0.563  -0.405   1.481  0.00  0.00    +0.325 C 
ATOM     15  O   UNL     1       0.557   0.037   2.605  0.00  0.00    -0.250 OA
BRANCH  14  17
ATOM     16  C   UNL     1       0.494   1.830   0.717  0.00  0.00    +0.280 C 
ATOM     17  O   UNL     1       0.533   0.431   0.431  0.00  0.00    -0.467 OA
ENDBRANCH  14  17
ENDBRANCH   1  14
BRANCH   2  18
ATOM     18  N   UNL     1       2.885  -2.085   2.251  0.00  0.00    -0.341 N 
ATOM     19  H   UNL     1       3.486  -2.413   2.938  0.00  0.00    +0.146 HD
BRANCH  18  20
ATOM     20  C   UNL     1       3.377  -1.154   1.232  0.00  0.00    +0.136 C 
BRANCH  20  21
ATOM     21  C   UNL     1       4.858  -0.945   1.415  0.00  0.00    -0.027 A 
ATOM     22  C   UNL     1       5.315   0.067   2.238  0.00  0.00    +0.009 A 
ATOM     23  C   UNL     1       6.673   0.263   2.409  0.00  0.00    +0.050 A 
ATOM     24  C   UNL     1       7.579  -0.556   1.755  0.00  0.00    +0.166 A 
ATOM     25  C   UNL     1       7.119  -1.576   0.926  0.00  0.00    +0.167 A 
ATOM     26  C   UNL     1       5.756  -1.769   0.764  0.00  0.00    +0.054 A 
ATOM     27  O   UNL     1       8.195  -2.233   0.404  0.00  0.00    -0.453 OA
ATOM     28  C   UNL     1       9.316  -1.351   0.599  0.00  0.00    +0.466 C 
ATOM     29  O   UNL     1       8.944  -0.575   1.753  0.00  0.00    -0.453 OA
ENDBRANCH  20  21
ENDBRANCH  18  20
ENDBRANCH   2  18
TORSDOF 5
