REMARK  Name = ZINC13444575
REMARK  10 active torsions:
REMARK  status: ('A' for Active; 'I' for Inactive)
REMARK    1  A    between atoms: C_1  and  C_2
REMARK    2  A    between atoms: C_2  and  C_3
REMARK    3  A    between atoms: C_2  and  C_4
REMARK    4  A    between atoms: C_4  and  C_6
REMARK    5  A    between atoms: C_4  and  N_13
REMARK    6  A    between atoms: C_14  and  C_16
REMARK    7  A    between atoms: C_16  and  S_17
REMARK    8  A    between atoms: S_17  and  C_18
REMARK    9  A    between atoms: C_22  and  C_30
REMARK   10  A    between atoms: N_28  and  C_29
REMARK                            x       y       z     vdW  Elec       q    Type
REMARK                         _______ _______ _______ _____ _____    ______ ____
ROOT
ATOM      1  C   UNL     1      -0.013   1.086   0.008  0.00  0.00    +0.173 C 
ENDROOT
BRANCH   1   3
ATOM      2  N   UNL     1      -0.242   1.246   2.466  0.00  0.00    -0.308 N 
ATOM      3  C   UNL     1      -0.718   1.572   1.248  0.00  0.00    +0.224 C 
ATOM      4  O   UNL     1      -1.714   2.256   1.150  0.00  0.00    -0.275 OA
ATOM      5  H   UNL     1       0.555   0.699   2.544  0.00  0.00    +0.149 HD
BRANCH   2   6
ATOM      6  C   UNL     1      -0.927   1.718   3.671  0.00  0.00    +0.106 C 
BRANCH   6   7
ATOM      7  C   UNL     1       0.051   1.776   4.816  0.00  0.00    -0.027 A 
ATOM      8  C   UNL     1       0.988   0.772   4.975  0.00  0.00    +0.008 A 
ATOM      9  C   UNL     1       1.889   0.827   6.021  0.00  0.00    +0.038 A 
ATOM     10  C   UNL     1       1.847   1.882   6.917  0.00  0.00    +0.123 A 
ATOM     11  C   UNL     1       0.904   2.884   6.759  0.00  0.00    +0.038 A 
ATOM     12  C   UNL     1       0.008   2.830   5.709  0.00  0.00    +0.008 A 
ATOM     13  F   UNL     1       2.723   1.933   7.943  0.00  0.00    -0.205 F 
ENDBRANCH   6   7
BRANCH   6  15
ATOM     14  C   UNL     1      -2.781   1.250   5.279  0.00  0.00    +0.009 C 
ATOM     15  C   UNL     1      -2.065   0.757   4.021  0.00  0.00    +0.008 C 
ATOM     16  C   UNL     1      -3.058   0.698   2.858  0.00  0.00    +0.009 C 
ENDBRANCH   6  15
ENDBRANCH   2   6
ENDBRANCH   1   3
BRANCH   1  17
ATOM     17  S   UNL     1      -0.888   1.685  -1.458  0.00  0.00    -0.078 S 
BRANCH  17  18
ATOM     18  C   UNL     1       0.122   0.990  -2.724  0.00  0.00    +0.172 A 
ATOM     19  N   UNL     1       1.162   0.276  -2.370  0.00  0.00    -0.223 NA
ATOM     20  C   UNL     1       1.980  -0.288  -3.290  0.00  0.00    +0.080 A 
ATOM     21  C   UNL     1       3.089  -1.050  -2.911  0.00  0.00    +0.043 A 
ATOM     22  C   UNL     1       3.900  -1.609  -3.890  0.00  0.00    +0.065 A 
ATOM     23  C   UNL     1       3.613  -1.414  -5.247  0.00  0.00    +0.016 A 
ATOM     24  C   UNL     1       2.533  -0.672  -5.630  0.00  0.00    +0.016 A 
ATOM     25  C   UNL     1       1.705  -0.101  -4.663  0.00  0.00    +0.065 A 
ATOM     26  C   UNL     1       0.530   0.706  -5.031  0.00  0.00    +0.262 A 
ATOM     27  O   UNL     1       0.241   0.903  -6.197  0.00  0.00    -0.267 OA
ATOM     28  N   UNL     1      -0.219   1.216  -4.026  0.00  0.00    -0.290 N 
ATOM     29  C   UNL     1      -1.402   2.021  -4.339  0.00  0.00    +0.154 C 
BRANCH  22  30
ATOM     30  C   UNL     1       5.076  -2.417  -3.497  0.00  0.00    +0.387 C 
ATOM     31  O   UNL     1       5.328  -2.589  -2.321  0.00  0.00    -0.241 OA
ATOM     32  O   UNL     1       5.865  -2.962  -4.442  0.00  0.00    -0.241 OA
ENDBRANCH  22  30
ENDBRANCH  17  18
ENDBRANCH   1  17
TORSDOF 7
