REMARK  Name = ZINC39453375
REMARK  7 active torsions:
REMARK  status: ('A' for Active; 'I' for Inactive)
REMARK    1  A    between atoms: C_1  and  C_2
REMARK    2  A    between atoms: C_2  and  C_3
REMARK    3  A    between atoms: C_2  and  S_4
REMARK    4  A    between atoms: S_4  and  C_7
REMARK    5  A    between atoms: N_19  and  S_22
REMARK    6  A    between atoms: S_22  and  C_23
REMARK    7  A    between atoms: C_27  and  O_30
REMARK                            x       y       z     vdW  Elec       q    Type
REMARK                         _______ _______ _______ _____ _____    ______ ____
ROOT
ATOM      1  C   UNL     1      -1.536  -2.381   0.152  0.00  0.00    +0.098 A 
ATOM      2  C   UNL     1      -1.994  -3.029   1.259  0.00  0.00    +0.028 A 
ATOM      3  C   UNL     1      -1.878  -4.410   1.394  0.00  0.00    +0.004 A 
ATOM      4  C   UNL     1      -1.303  -5.179   0.431  0.00  0.00    +0.028 A 
ATOM      5  C   UNL     1      -0.808  -4.572  -0.739  0.00  0.00    +0.074 A 
ATOM      6  C   UNL     1      -0.937  -3.120  -0.881  0.00  0.00    +0.026 A 
ATOM      7  C   UNL     1      -0.453  -2.506  -2.047  0.00  0.00    +0.027 A 
ATOM      8  C   UNL     1       0.126  -3.317  -3.011  0.00  0.00    +0.068 A 
ATOM      9  C   UNL     1       0.216  -4.720  -2.808  0.00  0.00    +0.100 A 
ATOM     10  N   UNL     1      -0.236  -5.289  -1.706  0.00  0.00    -0.245 NA
ATOM     11  C   UNL     1       0.846  -5.531  -3.865  0.00  0.00    +0.084 A 
ATOM     12  C   UNL     1       1.320  -4.923  -5.009  0.00  0.00    +0.122 A 
ATOM     13  N   UNL     1       1.219  -3.546  -5.183  0.00  0.00    -0.245 N 
ATOM     14  C   UNL     1       0.658  -2.746  -4.259  0.00  0.00    +0.271 A 
ATOM     15  O   UNL     1       0.590  -1.547  -4.455  0.00  0.00    -0.266 OA
ATOM     16  C   UNL     1       1.916  -5.704  -6.026  0.00  0.00    +0.186 C 
ATOM     17  O   UNL     1       2.377  -5.161  -7.010  0.00  0.00    -0.290 OA
ATOM     18  C   UNL     1       1.985  -7.204  -5.900  0.00  0.00    +0.132 C 
ATOM     19  C   UNL     1       2.057  -7.587  -4.418  0.00  0.00    +0.207 C 
ATOM     20  N   UNL     1       0.965  -6.899  -3.711  0.00  0.00    -0.316 N 
ATOM     21  H   UNL     1       0.346  -7.393  -3.151  0.00  0.00    +0.149 HD
ENDROOT
BRANCH   1  22
ATOM     22  S   UNL     1      -1.700  -0.632   0.015  0.00  0.00    -0.000 S 
ATOM     23  O   UNL     1      -2.359  -0.234   1.209  0.00  0.00    -0.169 OA
ATOM     24  O   UNL     1      -2.308  -0.423  -1.252  0.00  0.00    -0.169 OA
BRANCH  22  26
ATOM     25  C   UNL     1      -0.019   1.526   0.010  0.00  0.00    +0.032 C 
ATOM     26  C   UNL     1       0.002  -0.004   0.002  0.00  0.00    +0.130 C 
ATOM     27  C   UNL     1       0.742  -0.511   1.242  0.00  0.00    +0.032 C 
ENDBRANCH  22  26
ENDBRANCH   1  22
BRANCH  13  28
ATOM     28  S   UNL     1       1.810  -2.870  -6.574  0.00  0.00    -0.044 S 
ATOM     29  C   UNL     1       0.397  -2.903  -7.712  0.00  0.00    +0.110 C 
ENDBRANCH  13  28
BRANCH  19  30
ATOM     30  O   UNL     1       3.315  -7.180  -3.876  0.00  0.00    -0.374 OA
ATOM     31  H   UNL     1       3.427  -7.393  -2.939  0.00  0.00    +0.212 HD
ENDBRANCH  19  30
TORSDOF 4
