REMARK  Name = ZINC14884203
REMARK  13 active torsions:
REMARK  status: ('A' for Active; 'I' for Inactive)
REMARK    1  A    between atoms: C_1  and  C_2
REMARK    2  A    between atoms: C_2  and  C_4
REMARK    3  A    between atoms: C_2  and  O_21
REMARK    4  A    between atoms: C_4  and  N_5
REMARK    5  A    between atoms: C_6  and  C_8
REMARK    6  A    between atoms: C_8  and  C_9
REMARK    7  A    between atoms: C_12  and  N_15
REMARK    8  A    between atoms: O_21  and  C_22
REMARK    9  A    between atoms: C_26  and  C_28
REMARK   10  A    between atoms: C_28  and  N_67
REMARK   11  A    between atoms: C_29  and  N_67
REMARK   12  A    between atoms: C_30  and  C_31
REMARK   13  A    between atoms: C_30  and  N_67
REMARK                            x       y       z     vdW  Elec       q    Type
REMARK                         _______ _______ _______ _____ _____    ______ ____
ROOT
ATOM      1  C   UNL     1       3.620   1.516   0.261  0.00  0.00    +0.053 C 
ATOM      2  C   UNL     1       2.323   0.738   0.030  0.00  0.00    +0.187 C 
ENDROOT
BRANCH   2   3
ATOM      3  C   UNL     1       1.150   1.717  -0.058  0.00  0.00    +0.148 C 
BRANCH   3   4
ATOM      4  N   UNL     1      -0.104   0.967  -0.159  0.00  0.00    -0.312 N 
ATOM      5  C   UNL     1      -1.277   1.625  -0.254  0.00  0.00    +0.217 C 
ATOM      6  O   UNL     1      -1.293   2.838  -0.249  0.00  0.00    -0.275 OA
ATOM      7  H   UNL     1      -0.091  -0.003  -0.162  0.00  0.00    +0.149 HD
BRANCH   5   8
ATOM      8  C   UNL     1      -2.567   0.854  -0.364  0.00  0.00    +0.130 C 
BRANCH   8   9
ATOM      9  C   UNL     1      -3.722   1.818  -0.456  0.00  0.00    -0.039 A 
ATOM     10  C   UNL     1      -4.353   2.250   0.696  0.00  0.00    +0.006 A 
ATOM     11  C   UNL     1      -5.409   3.137   0.616  0.00  0.00    +0.024 A 
ATOM     12  C   UNL     1      -5.842   3.587  -0.624  0.00  0.00    +0.038 A 
ATOM     13  C   UNL     1      -5.209   3.148  -1.779  0.00  0.00    +0.024 A 
ATOM     14  C   UNL     1      -4.151   2.265  -1.692  0.00  0.00    +0.006 A 
BRANCH  12  15
ATOM     15  N   UNL     1      -6.914   4.483  -0.709  0.00  0.00    -0.254 N 
ATOM     16  C   UNL     1      -7.543   4.944  -1.956  0.00  0.00    +0.134 C 
ATOM     17  C   UNL     1      -8.652   5.901  -1.479  0.00  0.00    +0.125 C 
ATOM     18  N   UNL     1      -8.531   5.877  -0.013  0.00  0.00    -0.297 N 
ATOM     19  C   UNL     1      -7.535   5.052   0.333  0.00  0.00    +0.307 C 
ATOM     20  O   UNL     1      -7.220   4.841   1.488  0.00  0.00    -0.252 OA
ATOM     21  H   UNL     1      -9.088   6.377   0.605  0.00  0.00    +0.150 HD
ENDBRANCH  12  15
ENDBRANCH   8   9
ENDBRANCH   5   8
ENDBRANCH   3   4
ENDBRANCH   2   3
BRANCH   2  22
ATOM     22  O   UNL     1       2.421   0.001  -1.191  0.00  0.00    -0.488 OA
BRANCH  22  23
ATOM     23  C   UNL     1       3.052  -1.201  -1.137  0.00  0.00    +0.121 A 
ATOM     24  C   UNL     1       3.503  -1.695   0.079  0.00  0.00    +0.045 A 
ATOM     25  C   UNL     1       4.144  -2.917   0.131  0.00  0.00    +0.004 A 
ATOM     26  C   UNL     1       4.336  -3.649  -1.026  0.00  0.00    +0.002 A 
ATOM     27  C   UNL     1       3.887  -3.159  -2.239  0.00  0.00    -0.060 A 
ATOM     28  C   UNL     1       3.241  -1.940  -2.296  0.00  0.00    +0.047 A 
BRANCH  27  29
ATOM     29  C   UNL     1       4.097  -3.960  -3.498  0.00  0.00    -0.043 C 
BRANCH  29  31
ATOM     30  C   UNL     1       1.728  -4.078  -3.986  0.00  0.00    -0.095 C 
ATOM     31  N   UNL     1       2.943  -4.864  -3.686  0.00  0.00    +0.383 N 
ATOM     32  H   UNL     1       2.791  -5.396  -2.821  0.00  0.00    -0.081 HD
BRANCH  31  33
ATOM     33  C   UNL     1       3.217  -5.810  -4.789  0.00  0.00    -0.042 C 
BRANCH  33  34
ATOM     34  C   UNL     1       2.131  -6.854  -4.815  0.00  0.00    -0.057 A 
ATOM     35  C   UNL     1       2.255  -8.015  -4.075  0.00  0.00    +0.009 A 
ATOM     36  C   UNL     1       1.257  -8.931  -4.117  0.00  0.00    +0.045 A 
ATOM     37  S   UNL     1       0.098  -8.164  -5.238  0.00  0.00    -0.105 S 
ATOM     38  C   UNL     1       1.019  -6.671  -5.569  0.00  0.00    +0.047 A 
ENDBRANCH  33  34
ENDBRANCH  31  33
ENDBRANCH  29  31
ENDBRANCH  27  29
ENDBRANCH  22  23
ENDBRANCH   2  22
TORSDOF 11
