REMARK  Name = ZINC04729404
REMARK  9 active torsions:
REMARK  status: ('A' for Active; 'I' for Inactive)
REMARK    1  A    between atoms: C_1  and  C_2
REMARK    2  A    between atoms: C_2  and  O_3
REMARK    3  A    between atoms: O_3  and  C_4
REMARK    4  A    between atoms: C_7  and  C_10
REMARK    5  A    between atoms: C_12  and  C_24
REMARK    6  A    between atoms: C_14  and  C_17
REMARK    7  A    between atoms: C_22  and  O_23
REMARK    8  A    between atoms: C_27  and  O_30
REMARK    9  A    between atoms: O_30  and  C_31
REMARK                            x       y       z     vdW  Elec       q    Type
REMARK                         _______ _______ _______ _____ _____    ______ ____
ROOT
ATOM      1  C   UNL     1      -0.716   1.571   1.245  0.00  0.00    +0.040 C 
ATOM      2  N   UNL     1      -1.580   2.516   1.233  0.00  0.00    -0.299 NA
ATOM      3  C   UNL     1      -1.996   3.229   0.032  0.00  0.00    +0.081 C 
ATOM      4  C   UNL     1      -0.753   1.593  -1.233  0.00  0.00    -0.028 C 
ATOM      5  C   UNL     1      -0.013   1.086   0.008  0.00  0.00    +0.044 C 
ATOM      6  N   UNL     1      -1.023   3.033  -1.054  0.00  0.00    +0.401 N 
ATOM      7  H   UNL     1      -0.148   3.517  -0.819  0.00  0.00    -0.081 HD
ATOM      8  H   UNL     1      -1.404   3.420  -1.926  0.00  0.00    -0.081 HD
ENDROOT
BRANCH   1  12
ATOM      9  C   UNL     1       0.204  -0.281   4.953  0.00  0.00    +0.121 A 
ATOM     10  C   UNL     1      -0.729   0.748   4.905  0.00  0.00    +0.046 A 
ATOM     11  C   UNL     1      -1.030   1.351   3.704  0.00  0.00    +0.013 A 
ATOM     12  C   UNL     1      -0.397   0.927   2.533  0.00  0.00    -0.004 A 
ATOM     13  C   UNL     1       0.537  -0.112   2.584  0.00  0.00    +0.013 A 
ATOM     14  C   UNL     1       0.836  -0.706   3.790  0.00  0.00    +0.046 A 
BRANCH   9  15
ATOM     15  O   UNL     1       0.499  -0.873   6.138  0.00  0.00    -0.492 OA
BRANCH  15  17
ATOM     16  C   UNL     1       1.666  -2.464   7.534  0.00  0.00    +0.048 C 
ATOM     17  C   UNL     1       1.467  -1.924   6.116  0.00  0.00    +0.225 C 
ENDBRANCH  15  17
ENDBRANCH   9  15
ENDBRANCH   1  12
BRANCH   4  18
ATOM     18  C   UNL     1       0.103   1.389  -2.456  0.00  0.00    -0.019 A 
ATOM     19  C   UNL     1       0.901   2.416  -2.921  0.00  0.00    +0.005 A 
ATOM     20  C   UNL     1       1.688   2.229  -4.042  0.00  0.00    +0.000 A 
ATOM     21  C   UNL     1       1.679   1.013  -4.701  0.00  0.00    +0.004 A 
ATOM     22  C   UNL     1       0.883  -0.018  -4.240  0.00  0.00    +0.045 A 
ATOM     23  C   UNL     1       0.096   0.166  -3.112  0.00  0.00    +0.118 A 
BRANCH  23  24
ATOM     24  O   UNL     1      -0.684  -0.848  -2.653  0.00  0.00    -0.507 OA
ATOM     25  H   UNL     1      -1.573  -0.863  -3.032  0.00  0.00    +0.292 HD
ENDBRANCH  23  24
ENDBRANCH   4  18
BRANCH   3  26
ATOM     26  C   UNL     1      -2.101   4.700   0.339  0.00  0.00    -0.040 A 
ATOM     27  C   UNL     1      -1.883   5.631  -0.659  0.00  0.00    +0.007 A 
ATOM     28  C   UNL     1      -1.984   6.981  -0.382  0.00  0.00    +0.046 A 
ATOM     29  C   UNL     1      -2.296   7.402   0.903  0.00  0.00    +0.120 A 
ATOM     30  C   UNL     1      -2.510   6.465   1.904  0.00  0.00    +0.046 A 
ATOM     31  C   UNL     1      -2.412   5.117   1.620  0.00  0.00    +0.007 A 
BRANCH  29  32
ATOM     32  O   UNL     1      -2.391   8.729   1.180  0.00  0.00    -0.495 OA
ATOM     33  C   UNL     1      -2.159   9.635   0.100  0.00  0.00    +0.277 C 
ENDBRANCH  29  32
ENDBRANCH   3  26
TORSDOF 7
