REMARK  Name = ZINC04294646
REMARK  5 active torsions:
REMARK  status: ('A' for Active; 'I' for Inactive)
REMARK    1  A    between atoms: C_2  and  C_19
REMARK    2  A    between atoms: C_6  and  S_7
REMARK    3  A    between atoms: S_7  and  N_10
REMARK    4  A    between atoms: N_10  and  C_11
REMARK    5  A    between atoms: C_11  and  C_12
REMARK                            x       y       z     vdW  Elec       q    Type
REMARK                         _______ _______ _______ _____ _____    ______ ____
ROOT
ATOM      1  S   UNL     1      -1.138   4.359  -2.592  0.00  0.00    +0.059 S 
ATOM      2  O   UNL     1      -1.093   5.738  -2.251  0.00  0.00    -0.153 OA
ATOM      3  O   UNL     1      -0.348   3.807  -3.636  0.00  0.00    -0.153 OA
ENDROOT
BRANCH   1   9
ATOM      4  C   UNL     1      -3.829   4.775  -2.469  0.00  0.00    +0.043 A 
ATOM      5  C   UNL     1      -5.160   4.483  -2.779  0.00  0.00    +0.066 A 
ATOM      6  C   UNL     1      -5.455   3.398  -3.606  0.00  0.00    +0.030 A 
ATOM      7  C   UNL     1      -4.432   2.622  -4.113  0.00  0.00    +0.021 A 
ATOM      8  C   UNL     1      -3.115   2.921  -3.805  0.00  0.00    +0.043 A 
ATOM      9  C   UNL     1      -2.817   3.991  -2.981  0.00  0.00    +0.107 A 
ATOM     10 BR   UNL     1      -4.828   1.152  -5.234  0.00  0.00    -0.050 Br
BRANCH   5  11
ATOM     11  C   UNL     1      -6.249   5.318  -2.233  0.00  0.00    +0.387 C 
ATOM     12  O   UNL     1      -5.989   6.261  -1.514  0.00  0.00    -0.241 OA
ATOM     13  O   UNL     1      -7.531   5.033  -2.534  0.00  0.00    -0.241 OA
ENDBRANCH   5  11
ENDBRANCH   1   9
BRANCH   1  14
ATOM     14  N   UNL     1      -0.759   3.519  -1.216  0.00  0.00    -0.187 NA
ATOM     15  H   UNL     1      -0.547   3.997  -0.399  0.00  0.00    +0.148 HD
BRANCH  14  16
ATOM     16  C   UNL     1      -0.745   2.054  -1.233  0.00  0.00    +0.137 C 
BRANCH  16  17
ATOM     17  C   UNL     1      -0.019   1.537   0.011  0.00  0.00    +0.134 C 
ATOM     18  C   UNL     1       0.002  -0.004   0.002  0.00  0.00    +0.035 C 
ATOM     19  C   UNL     1       1.508  -0.363   0.039  0.00  0.00    +0.031 C 
ATOM     20  C   UNL     1       2.138   0.935   0.603  0.00  0.00    +0.160 C 
ATOM     21  O   UNL     1       1.348   1.983  -0.000  0.00  0.00    -0.375 OA
ENDBRANCH  16  17
ENDBRANCH  14  16
ENDBRANCH   1  14
TORSDOF 5
