REMARK  Name = ZINC09608330
REMARK  11 active torsions:
REMARK  status: ('A' for Active; 'I' for Inactive)
REMARK    1  A    between atoms: C_1  and  N_71
REMARK    2  A    between atoms: C_2  and  C_3
REMARK    3  A    between atoms: C_2  and  N_71
REMARK    4  A    between atoms: C_3  and  C_4
REMARK    5  A    between atoms: C_4  and  N_5
REMARK    6  A    between atoms: C_6  and  C_8
REMARK    7  A    between atoms: C_11  and  C_14
REMARK    8  A    between atoms: C_14  and  N_15
REMARK    9  A    between atoms: N_15  and  S_16
REMARK   10  A    between atoms: S_16  and  C_19
REMARK   11  A    between atoms: C_28  and  N_71
REMARK                            x       y       z     vdW  Elec       q    Type
REMARK                         _______ _______ _______ _____ _____    ______ ____
ROOT
ATOM      1  C   UNL     1       0.256   0.907   4.905  0.00  0.00    +0.075 C 
ATOM      2  C   UNL     1       0.276  -0.622   4.896  0.00  0.00    +0.013 C 
ATOM      3  C   UNL     1       1.016  -1.129   6.136  0.00  0.00    +0.005 C 
ATOM      4  C   UNL     1       0.300  -0.636   7.395  0.00  0.00    +0.005 C 
ATOM      5  C   UNL     1       0.279   0.894   7.403  0.00  0.00    +0.005 C 
ATOM      6  C   UNL     1      -0.461   1.401   6.164  0.00  0.00    +0.013 C 
ENDROOT
BRANCH   1   8
ATOM      7  N   UNL     1      -0.020   1.094   2.454  0.00  0.00    -0.315 N 
ATOM      8  C   UNL     1      -0.473   1.407   3.684  0.00  0.00    +0.216 C 
ATOM      9  O   UNL     1      -1.468   2.090   3.808  0.00  0.00    -0.276 OA
ATOM     10  H   UNL     1       0.775   0.547   2.354  0.00  0.00    +0.149 HD
BRANCH   7  11
ATOM     11  C   UNL     1      -0.729   1.579   1.267  0.00  0.00    +0.102 C 
BRANCH  11  12
ATOM     12  C   UNL     1      -0.013   1.086   0.008  0.00  0.00    +0.000 C 
BRANCH  12  13
ATOM     13  C   UNL     1      -0.753   1.593  -1.232  0.00  0.00    -0.077 C 
BRANCH  13  15
ATOM     14  C   UNL     1       1.269   1.723  -2.558  0.00  0.00    -0.096 C 
ATOM     15  N   UNL     1      -0.062   1.091  -2.438  0.00  0.00    +0.380 N 
ATOM     16  H   UNL     1       0.059   0.074  -2.354  0.00  0.00    -0.082 HD
BRANCH  15  17
ATOM     17  C   UNL     1      -0.870   1.381  -3.641  0.00  0.00    -0.069 C 
ATOM     18  C   UNL     1      -2.212   0.656  -3.524  0.00  0.00    -0.015 C 
ATOM     19  C   UNL     1      -3.050   0.929  -4.774  0.00  0.00    -0.002 C 
ATOM     20  C   UNL     1      -2.303   0.423  -6.010  0.00  0.00    -0.000 C 
ATOM     21  C   UNL     1      -0.961   1.149  -6.127  0.00  0.00    -0.002 C 
ATOM     22  C   UNL     1      -0.123   0.875  -4.876  0.00  0.00    -0.015 C 
ENDBRANCH  15  17
ENDBRANCH  13  15
ENDBRANCH  12  13
ENDBRANCH  11  12
ENDBRANCH   7  11
ENDBRANCH   1   8
BRANCH   4  23
ATOM     23  C   UNL     1       1.040  -1.143   8.634  0.00  0.00    +0.109 C 
BRANCH  23  24
ATOM     24  N   UNL     1       0.957  -2.604   8.689  0.00  0.00    -0.190 NA
ATOM     25  H   UNL     1       0.314  -3.075   8.136  0.00  0.00    +0.148 HD
BRANCH  24  26
ATOM     26  S   UNL     1       1.962  -3.454   9.694  0.00  0.00    +0.061 S 
ATOM     27  O   UNL     1       1.624  -4.825   9.542  0.00  0.00    -0.153 OA
ATOM     28  O   UNL     1       3.276  -2.963   9.465  0.00  0.00    -0.153 OA
BRANCH  26  29
ATOM     29  C   UNL     1       1.540  -3.011  11.347  0.00  0.00    +0.133 A 
ATOM     30  C   UNL     1       1.025  -3.941  12.186  0.00  0.00    +0.031 A 
ATOM     31  C   UNL     1       0.680  -3.627  13.501  0.00  0.00    +0.004 A 
ATOM     32  C   UNL     1       0.845  -2.378  13.997  0.00  0.00    +0.031 A 
ATOM     33  C   UNL     1       1.380  -1.352  13.175  0.00  0.00    +0.102 A 
ATOM     34  C   UNL     1       1.746  -1.683  11.800  0.00  0.00    +0.126 A 
ATOM     35  N   UNL     1       2.229  -0.629  11.145  0.00  0.00    -0.189 NA
ATOM     36  S   UNL     1       2.212   0.565  12.160  0.00  0.00    +0.117 S 
ATOM     37  N   UNL     1       1.621  -0.075  13.463  0.00  0.00    -0.191 NA
ENDBRANCH  26  29
ENDBRANCH  24  26
ENDBRANCH  23  24
ENDBRANCH   4  23
TORSDOF 10
