REMARK  Name = ZINC08972425
REMARK  6 active torsions:
REMARK  status: ('A' for Active; 'I' for Inactive)
REMARK    1  A    between atoms: C_1  and  O_2
REMARK    2  A    between atoms: O_2  and  C_3
REMARK    3  A    between atoms: C_8  and  C_9
REMARK    4  A    between atoms: C_12  and  C_23
REMARK    5  A    between atoms: C_18  and  N_22
REMARK    6  A    between atoms: C_19  and  C_20
REMARK                            x       y       z     vdW  Elec       q    Type
REMARK                         _______ _______ _______ _____ _____    ______ ____
ROOT
ATOM      1  C   UNL     1       0.138  -2.844  -0.006  0.00  0.00    +0.105 C 
ATOM      2  C   UNL     1       0.047  -3.800  -1.168  0.00  0.00    +0.054 A 
ATOM      3  C   UNL     1       0.123  -3.551  -2.498  0.00  0.00    +0.074 A 
ATOM      4  N   UNL     1      -0.018  -4.748  -3.142  0.00  0.00    -0.273 N 
ATOM      5  H   UNL     1      -0.006  -4.885  -4.102  0.00  0.00    +0.189 HD
ATOM      6  N   UNL     1      -0.183  -5.745  -2.167  0.00  0.00    -0.135 NA
ATOM      7  C   UNL     1      -0.144  -5.184  -0.992  0.00  0.00    +0.245 A 
ATOM      8  O   UNL     1      -0.256  -5.745   0.243  0.00  0.00    -0.421 OA
ATOM      9  C   UNL     1       0.090  -4.987   1.302  0.00  0.00    +0.201 C 
ATOM     10  C   UNL     1       0.288  -3.652   1.257  0.00  0.00    +0.098 C 
ENDROOT
BRANCH   3  11
ATOM     11  C   UNL     1       0.321  -2.230  -3.135  0.00  0.00    +0.000 A 
ATOM     12  C   UNL     1       1.320  -1.374  -2.673  0.00  0.00    +0.013 A 
ATOM     13  C   UNL     1       1.501  -0.143  -3.270  0.00  0.00    +0.039 A 
ATOM     14  C   UNL     1       0.692   0.242  -4.327  0.00  0.00    +0.123 A 
ATOM     15  C   UNL     1      -0.303  -0.605  -4.789  0.00  0.00    +0.039 A 
ATOM     16  C   UNL     1      -0.488  -1.839  -4.202  0.00  0.00    +0.013 A 
ATOM     17  F   UNL     1       0.873   1.448  -4.908  0.00  0.00    -0.205 F 
ENDBRANCH   3  11
BRANCH   1  23
ATOM     18  C   UNL     1      -1.033  -0.629   0.109  0.00  0.00    +0.124 A 
ATOM     19  C   UNL     1      -2.190   0.133   0.172  0.00  0.00    +0.046 A 
ATOM     20  C   UNL     1      -3.424  -0.488   0.199  0.00  0.00    +0.004 A 
ATOM     21  C   UNL     1      -3.506  -1.867   0.164  0.00  0.00    +0.001 A 
ATOM     22  C   UNL     1      -2.354  -2.629   0.101  0.00  0.00    +0.008 A 
ATOM     23  C   UNL     1      -1.118  -2.013   0.068  0.00  0.00    +0.007 A 
BRANCH  18  25
ATOM     24  C   UNL     1       0.194   1.408   0.127  0.00  0.00    +0.277 C 
ATOM     25  O   UNL     1       0.182  -0.021   0.082  0.00  0.00    -0.495 OA
ENDBRANCH  18  25
ENDBRANCH   1  23
BRANCH   9  26
ATOM     26  N   UNL     1       0.251  -5.616   2.512  0.00  0.00    -0.328 N 
ATOM     27  H   UNL     1       0.116  -6.574   2.582  0.00  0.00    +0.145 HD
ATOM     28  H   UNL     1       0.500  -5.103   3.296  0.00  0.00    +0.145 HD
ENDBRANCH   9  26
BRANCH  10  29
ATOM     29  C   UNL     1       0.659  -2.974   2.463  0.00  0.00    +0.101 C 
ATOM     30  N   UNL     1       0.954  -2.436   3.419  0.00  0.00    -0.191 NA
ENDBRANCH  10  29
TORSDOF 5
