REMARK  Name = ZINC21868784
REMARK  9 active torsions:
REMARK  status: ('A' for Active; 'I' for Inactive)
REMARK    1  A    between atoms: C_1  and  C_2
REMARK    2  A    between atoms: C_4  and  C_11
REMARK    3  A    between atoms: C_5  and  C_10
REMARK    4  A    between atoms: C_6  and  C_9
REMARK    5  A    between atoms: C_7  and  C_8
REMARK    6  A    between atoms: C_11  and  C_13
REMARK    7  A    between atoms: C_13  and  N_14
REMARK    8  A    between atoms: C_17  and  C_21
REMARK    9  A    between atoms: C_17  and  C_22
REMARK                            x       y       z     vdW  Elec       q    Type
REMARK                         _______ _______ _______ _____ _____    ______ ____
ROOT
ATOM      1  N   UNL     1      -2.314   0.906  -0.942  0.00  0.00    -0.216 N 
ATOM      2  C   UNL     1      -2.659   0.430  -2.155  0.00  0.00    +0.251 C 
ATOM      3  O   UNL     1      -2.167   0.722  -3.224  0.00  0.00    -0.272 OA
ATOM      4  C   UNL     1      -3.788  -0.549  -1.904  0.00  0.00    +0.135 C 
ATOM      5  N   UNL     1      -3.971  -0.501  -0.443  0.00  0.00    -0.281 N 
ATOM      6  C   UNL     1      -3.066   0.375   0.029  0.00  0.00    +0.310 C 
ATOM      7  O   UNL     1      -2.944   0.653   1.206  0.00  0.00    -0.252 OA
ATOM      8  C   UNL     1      -5.062  -0.096  -2.621  0.00  0.00    +0.047 C 
ATOM      9  H   UNL     1      -4.743  -1.121   0.036  0.00  0.00    +0.152 HD
ENDROOT
BRANCH   4  10
ATOM     10  C   UNL     1      -3.400  -1.937  -2.344  0.00  0.00    -0.012 A 
ATOM     11  C   UNL     1      -2.582  -2.108  -3.446  0.00  0.00    +0.010 A 
ATOM     12  C   UNL     1      -2.224  -3.380  -3.853  0.00  0.00    +0.050 A 
ATOM     13  C   UNL     1      -2.684  -4.488  -3.157  0.00  0.00    +0.162 A 
ATOM     14  C   UNL     1      -3.505  -4.316  -2.049  0.00  0.00    +0.162 A 
ATOM     15  C   UNL     1      -3.857  -3.037  -1.643  0.00  0.00    +0.055 A 
ATOM     16  O   UNL     1      -3.964  -5.389  -1.349  0.00  0.00    -0.485 OA
ATOM     17  C   UNL     1      -3.893  -6.661  -2.002  0.00  0.00    +0.270 C 
ATOM     18  C   UNL     1      -2.502  -6.800  -2.633  0.00  0.00    +0.270 C 
ATOM     19  O   UNL     1      -2.327  -5.733  -3.572  0.00  0.00    -0.485 OA
ENDBRANCH   4  10
BRANCH   1  20
ATOM     20  C   UNL     1      -1.251   1.889  -0.716  0.00  0.00    +0.197 C 
BRANCH  20  21
ATOM     21  C   UNL     1       0.055   1.173  -0.486  0.00  0.00    +0.181 C 
ATOM     22  O   UNL     1       0.094  -0.039  -0.509  0.00  0.00    -0.290 OA
BRANCH  21  26
ATOM     23  C   UNL     1       2.411   5.558  -0.206  0.00  0.00    +0.044 C 
ATOM     24  C   UNL     1       2.424   4.055  -0.103  0.00  0.00    -0.047 A 
ATOM     25  C   UNL     1       1.269   3.339  -0.336  0.00  0.00    +0.015 A 
ATOM     26  C   UNL     1       1.284   1.944  -0.240  0.00  0.00    +0.022 A 
ATOM     27  C   UNL     1       2.471   1.286   0.097  0.00  0.00    -0.037 A 
ATOM     28  C   UNL     1       3.619   2.015   0.322  0.00  0.00    -0.044 A 
ATOM     29  C   UNL     1       3.596   3.396   0.224  0.00  0.00    -0.044 A 
ATOM     30  C   UNL     1       4.855   4.186   0.477  0.00  0.00    +0.044 C 
ATOM     31  C   UNL     1       4.901   1.308   0.679  0.00  0.00    +0.044 C 
ATOM     32  C   UNL     1       2.497  -0.216   0.208  0.00  0.00    +0.045 C 
ENDBRANCH  21  26
ENDBRANCH  20  21
ENDBRANCH   1  20
TORSDOF 4
