REMARK  Name = ZINC66638975
REMARK  7 active torsions:
REMARK  status: ('A' for Active; 'I' for Inactive)
REMARK    1  A    between atoms: C_1  and  C_2
REMARK    2  A    between atoms: C_2  and  C_3
REMARK    3  A    between atoms: C_2  and  N_4
REMARK    4  A    between atoms: C_5  and  C_10
REMARK    5  A    between atoms: C_10  and  N_11
REMARK    6  A    between atoms: C_12  and  C_14
REMARK    7  A    between atoms: C_14  and  C_15
REMARK                            x       y       z     vdW  Elec       q    Type
REMARK                         _______ _______ _______ _____ _____    ______ ____
ROOT
ATOM      1  N   UNL     1      -2.185  -2.636  -2.966  0.00  0.00    -0.308 N 
ATOM      2  C   UNL     1      -1.786  -3.195  -4.126  0.00  0.00    +0.218 C 
ATOM      3  O   UNL     1      -0.655  -3.018  -4.527  0.00  0.00    -0.275 OA
ATOM      4  H   UNL     1      -3.089  -2.778  -2.645  0.00  0.00    +0.149 HD
ENDROOT
BRANCH   1   5
ATOM      5  C   UNL     1      -1.253  -1.813  -2.191  0.00  0.00    +0.180 C 
BRANCH   5   7
ATOM      6  N   UNL     1      -1.372  -0.511   0.012  0.00  0.00    -0.303 N 
ATOM      7  C   UNL     1      -1.941  -1.311  -0.948  0.00  0.00    +0.149 A 
ATOM      8  N   UNL     1      -3.165  -1.562  -0.611  0.00  0.00    -0.157 NA
ATOM      9  N   UNL     1      -3.425  -0.915   0.605  0.00  0.00    -0.254 N 
ATOM     10  C   UNL     1      -2.293  -0.277   0.969  0.00  0.00    +0.176 A 
ATOM     11  S   UNL     1      -2.068   0.661   2.384  0.00  0.00    -0.011 S 
ATOM     12  H   UNL     1      -4.261  -0.927   1.096  0.00  0.00    +0.191 HD
BRANCH   6  14
ATOM     13  C   UNL     1      -0.019   1.526   0.010  0.00  0.00    +0.030 C 
ATOM     14  C   UNL     1       0.002  -0.004   0.002  0.00  0.00    +0.085 C 
ATOM     15  C   UNL     1       0.742  -0.511   1.242  0.00  0.00    +0.030 C 
ENDBRANCH   6  14
ENDBRANCH   5   7
ENDBRANCH   1   5
BRANCH   2  16
ATOM     16  C   UNL     1      -2.745  -4.041  -4.923  0.00  0.00    +0.133 C 
BRANCH  16  17
ATOM     17  C   UNL     1      -2.057  -4.544  -6.167  0.00  0.00    -0.014 A 
ATOM     18  C   UNL     1      -2.093  -3.978  -7.383  0.00  0.00    +0.087 A 
ATOM     19  N   UNL     1      -1.348  -4.716  -8.263  0.00  0.00    -0.360 N 
ATOM     20  H   UNL     1      -1.224  -4.505  -9.202  0.00  0.00    +0.165 HD
ATOM     21  C   UNL     1      -0.801  -5.802  -7.617  0.00  0.00    +0.048 A 
ATOM     22  C   UNL     1      -1.216  -5.739  -6.275  0.00  0.00    +0.003 A 
ATOM     23  C   UNL     1      -0.805  -6.721  -5.371  0.00  0.00    +0.012 A 
ATOM     24  C   UNL     1       0.002  -7.738  -5.796  0.00  0.00    +0.021 A 
ATOM     25  C   UNL     1       0.418  -7.804  -7.119  0.00  0.00    +0.043 A 
ATOM     26  C   UNL     1       0.018  -6.848  -8.030  0.00  0.00    +0.046 A 
ATOM     27 CL   UNL     1       1.444  -9.105  -7.635  0.00  0.00    -0.083 Cl
ENDBRANCH  16  17
ENDBRANCH   2  16
TORSDOF 5
