REMARK  Name = ZINC60237906
REMARK  6 active torsions:
REMARK  status: ('A' for Active; 'I' for Inactive)
REMARK    1  A    between atoms: C_1  and  C_2
REMARK    2  A    between atoms: N_11  and  C_15
REMARK    3  A    between atoms: C_15  and  C_16
REMARK    4  A    between atoms: N_18  and  C_19
REMARK    5  A    between atoms: C_19  and  C_20
REMARK    6  A    between atoms: C_23  and  C_26
REMARK                            x       y       z     vdW  Elec       q    Type
REMARK                         _______ _______ _______ _____ _____    ______ ____
ROOT
ATOM      1  C   UNL     1       3.277   2.951   2.373  0.00  0.00    +0.231 C 
ATOM      2  O   UNL     1       2.353   3.293   1.666  0.00  0.00    -0.274 OA
ATOM      3  N   UNL     1       4.255   3.827   2.674  0.00  0.00    -0.310 N 
ATOM      4  H   UNL     1       4.995   3.554   3.240  0.00  0.00    +0.149 HD
ENDROOT
BRANCH   1   5
ATOM      5  C   UNL     1       3.332   1.546   2.915  0.00  0.00    +0.213 C 
BRANCH   5  15
ATOM      6  C   UNL     1      -0.019   1.526   0.010  0.00  0.00    +0.010 C 
ATOM      7  C   UNL     1       0.002  -0.004   0.002  0.00  0.00    +0.018 C 
ATOM      8  C   UNL     1       0.718  -0.497  -1.258  0.00  0.00    +0.006 C 
ATOM      9  C   UNL     1       0.756  -2.027  -1.256  0.00  0.00    +0.000 C 
ATOM     10  C   UNL     1       1.519  -2.517  -0.023  0.00  0.00    +0.003 C 
ATOM     11  C   UNL     1       0.807  -2.032   1.242  0.00  0.00    +0.035 C 
ATOM     12  C   UNL     1       0.739  -0.509   1.238  0.00  0.00    +0.115 C 
ATOM     13  C   UNL     1       2.128   0.083   1.303  0.00  0.00    +0.247 C 
ATOM     14  O   UNL     1       3.022  -0.055   0.496  0.00  0.00    -0.273 OA
ATOM     15  N   UNL     1       2.163   0.796   2.447  0.00  0.00    -0.215 N 
ATOM     16  C   UNL     1       0.998   0.734   3.103  0.00  0.00    +0.310 C 
ATOM     17  O   UNL     1       0.786   1.296   4.159  0.00  0.00    -0.252 OA
ATOM     18  N   UNL     1       0.086  -0.021   2.460  0.00  0.00    -0.285 N 
ATOM     19  H   UNL     1      -0.822  -0.205   2.747  0.00  0.00    +0.151 HD
ENDBRANCH   5  15
ENDBRANCH   1   5
BRANCH   3  20
ATOM     20  C   UNL     1       4.202   5.194   2.148  0.00  0.00    +0.139 C 
BRANCH  20  21
ATOM     21  C   UNL     1       5.405   5.964   2.629  0.00  0.00    -0.030 A 
ATOM     22  C   UNL     1       5.344   6.662   3.821  0.00  0.00    +0.006 A 
ATOM     23  C   UNL     1       6.442   7.369   4.267  0.00  0.00    +0.009 A 
ATOM     24  C   UNL     1       7.614   7.380   3.513  0.00  0.00    -0.018 A 
ATOM     25  C   UNL     1       7.670   6.675   2.312  0.00  0.00    +0.009 A 
ATOM     26  C   UNL     1       6.567   5.967   1.879  0.00  0.00    +0.006 A 
BRANCH  24  27
ATOM     27  C   UNL     1       8.798   8.138   3.986  0.00  0.00    -0.017 A 
ATOM     28  C   UNL     1       8.746   8.840   5.190  0.00  0.00    +0.012 A 
ATOM     29  C   UNL     1       9.846   9.541   5.631  0.00  0.00    +0.046 A 
ATOM     30  C   UNL     1      11.020   9.557   4.879  0.00  0.00    +0.124 A 
ATOM     31  C   UNL     1      11.062   8.862   3.676  0.00  0.00    -0.002 A 
ATOM     32  C   UNL     1       9.972   8.150   3.234  0.00  0.00    +0.015 A 
ATOM     33  C   UNL     1      12.440   9.083   3.083  0.00  0.00    +0.080 C 
ATOM     34  C   UNL     1      12.957  10.282   3.913  0.00  0.00    +0.234 C 
ATOM     35  O   UNL     1      12.210  10.168   5.135  0.00  0.00    -0.491 OA
ENDBRANCH  24  27
ENDBRANCH  20  21
ENDBRANCH   3  20
TORSDOF 5
