REMARK  Name = ZINC02329588
REMARK  13 active torsions:
REMARK  status: ('A' for Active; 'I' for Inactive)
REMARK    1  A    between atoms: C_1  and  C_2
REMARK    2  A    between atoms: C_4  and  C_34
REMARK    3  A    between atoms: C_5  and  O_33
REMARK    4  A    between atoms: C_6  and  C_8
REMARK    5  A    between atoms: N_16  and  C_26
REMARK    6  A    between atoms: C_17  and  C_19
REMARK    7  A    between atoms: C_23  and  O_25
REMARK    8  A    between atoms: C_26  and  C_27
REMARK    9  A    between atoms: C_27  and  C_28
REMARK   10  A    between atoms: C_28  and  O_29
REMARK   11  A    between atoms: O_29  and  C_30
REMARK   12  A    between atoms: C_30  and  C_31
REMARK   13  A    between atoms: C_30  and  C_32
REMARK                            x       y       z     vdW  Elec       q    Type
REMARK                         _______ _______ _______ _____ _____    ______ ____
ROOT
ATOM      1  C   UNL     1      -0.198  -3.103   2.763  0.00  0.00    +0.102 A 
ATOM      2  C   UNL     1       0.034  -2.388   3.943  0.00  0.00    +0.035 A 
ATOM      3  C   UNL     1       0.080  -3.331   4.952  0.00  0.00    +0.126 A 
ATOM      4  N   UNL     1      -0.120  -4.541   4.350  0.00  0.00    -0.272 N 
ATOM      5  H   UNL     1      -0.141  -5.395   4.809  0.00  0.00    +0.189 HD
ATOM      6  N   UNL     1      -0.283  -4.378   3.085  0.00  0.00    -0.173 NA
ATOM      7  C   UNL     1       0.322  -2.642   6.225  0.00  0.00    +0.265 C 
ATOM      8  O   UNL     1       0.417  -3.192   7.305  0.00  0.00    -0.268 OA
ATOM      9  N   UNL     1       0.424  -1.315   6.027  0.00  0.00    -0.285 N 
ATOM     10  C   UNL     1       0.253  -1.049   4.593  0.00  0.00    +0.141 C 
ENDROOT
BRANCH   1  16
ATOM     11  C   UNL     1       1.452  -0.029  -0.808  0.00  0.00    +0.044 C 
ATOM     12  C   UNL     1       0.460  -1.053  -0.320  0.00  0.00    -0.049 A 
ATOM     13  C   UNL     1      -0.576  -1.458  -1.144  0.00  0.00    +0.010 A 
ATOM     14  C   UNL     1      -1.490  -2.396  -0.705  0.00  0.00    -0.008 A 
ATOM     15  C   UNL     1      -1.374  -2.937   0.566  0.00  0.00    +0.129 A 
ATOM     16  C   UNL     1      -0.330  -2.530   1.401  0.00  0.00    +0.044 A 
ATOM     17  C   UNL     1       0.590  -1.588   0.946  0.00  0.00    +0.017 A 
ATOM     18  C   UNL     1      -2.615  -2.832  -1.608  0.00  0.00    +0.047 C 
BRANCH  15  19
ATOM     19  O   UNL     1      -2.273  -3.859   0.999  0.00  0.00    -0.506 OA
ATOM     20  H   UNL     1      -2.025  -4.772   0.803  0.00  0.00    +0.292 HD
ENDBRANCH  15  19
ENDBRANCH   1  16
BRANCH  10  21
ATOM     21  C   UNL     1      -0.944  -0.162   4.369  0.00  0.00    -0.019 A 
ATOM     22  C   UNL     1      -2.115  -0.390   5.069  0.00  0.00    +0.006 A 
ATOM     23  C   UNL     1      -3.215   0.422   4.866  0.00  0.00    +0.004 A 
ATOM     24  C   UNL     1      -3.148   1.464   3.962  0.00  0.00    +0.045 A 
ATOM     25  C   UNL     1      -1.975   1.696   3.258  0.00  0.00    +0.117 A 
ATOM     26  C   UNL     1      -0.870   0.883   3.468  0.00  0.00    +0.051 A 
BRANCH  25  27
ATOM     27  O   UNL     1      -1.907   2.720   2.368  0.00  0.00    -0.507 OA
ATOM     28  H   UNL     1      -1.608   3.556   2.752  0.00  0.00    +0.292 HD
ENDBRANCH  25  27
ENDBRANCH  10  21
BRANCH   9  29
ATOM     29  C   UNL     1       0.665  -0.309   7.064  0.00  0.00    +0.111 C 
BRANCH  29  30
ATOM     30  C   UNL     1       2.171  -0.097   7.229  0.00  0.00    +0.047 C 
BRANCH  30  31
ATOM     31  C   UNL     1       2.422   0.954   8.312  0.00  0.00    +0.161 C 
BRANCH  31  32
ATOM     32  O   UNL     1       3.829   1.152   8.467  0.00  0.00    -0.377 OA
BRANCH  32  33
ATOM     33  C   UNL     1       4.174   2.119   9.460  0.00  0.00    +0.112 C 
ATOM     34  C   UNL     1       4.334   1.425  10.814  0.00  0.00    +0.037 C 
ATOM     35  C   UNL     1       5.491   2.797   9.076  0.00  0.00    +0.037 C 
ENDBRANCH  32  33
ENDBRANCH  31  32
ENDBRANCH  30  31
ENDBRANCH  29  30
ENDBRANCH   9  29
TORSDOF 9
