REMARK  Name = ZINC01424673
REMARK  5 active torsions:
REMARK  status: ('A' for Active; 'I' for Inactive)
REMARK    1  A    between atoms: C_6  and  N_7
REMARK    2  A    between atoms: C_8  and  C_10
REMARK    3  A    between atoms: C_10  and  S_11
REMARK    4  A    between atoms: S_11  and  C_12
REMARK    5  A    between atoms: N_19  and  N_20
REMARK                            x       y       z     vdW  Elec       q    Type
REMARK                         _______ _______ _______ _____ _____    ______ ____
ROOT
ATOM      1  C   UNL     1      -0.016   1.080   0.008  0.00  0.00    +0.173 C 
ENDROOT
BRANCH   1   3
ATOM      2  N   UNL     1      -0.242   1.246   2.466  0.00  0.00    -0.285 N 
ATOM      3  C   UNL     1      -0.717   1.573   1.248  0.00  0.00    +0.227 C 
ATOM      4  O   UNL     1      -1.709   2.265   1.150  0.00  0.00    -0.275 OA
ATOM      5  H   UNL     1       0.511   0.639   2.546  0.00  0.00    +0.155 HD
BRANCH   2  11
ATOM      6  C   UNL     1      -0.052   2.086   4.723  0.00  0.00    +0.024 A 
ATOM      7  C   UNL     1      -0.638   2.620   5.853  0.00  0.00    +0.016 A 
ATOM      8  C   UNL     1      -2.004   2.841   5.888  0.00  0.00    +0.013 A 
ATOM      9  C   UNL     1      -2.785   2.534   4.788  0.00  0.00    +0.016 A 
ATOM     10  C   UNL     1      -2.203   2.006   3.652  0.00  0.00    +0.024 A 
ATOM     11  C   UNL     1      -0.833   1.782   3.615  0.00  0.00    +0.033 A 
ATOM     12  I   UNL     1      -2.889   3.644   7.608  0.00  0.00    -0.044 I 
ENDBRANCH   2  11
ENDBRANCH   1   3
BRANCH   1  13
ATOM     13  S   UNL     1      -0.891   1.685  -1.462  0.00  0.00    -0.075 S 
BRANCH  13  14
ATOM     14  C   UNL     1       0.038   1.032  -2.809  0.00  0.00    +0.214 A 
ATOM     15  N   UNL     1       1.115   0.288  -2.725  0.00  0.00    -0.119 NA
ATOM     16  N   UNL     1       1.534  -0.015  -3.903  0.00  0.00    -0.106 NA
ATOM     17  C   UNL     1       0.754   0.525  -4.807  0.00  0.00    +0.272 A 
ATOM     18  N   UNL     1      -0.225   1.211  -4.136  0.00  0.00    -0.170 N 
ATOM     19  N   UNL     1      -1.058   1.788  -5.096  0.00  0.00    -0.150 NA
ATOM     20  C   UNL     1      -0.618   1.477  -6.274  0.00  0.00    +0.244 A 
ATOM     21  N   UNL     1       0.501   0.697  -6.151  0.00  0.00    -0.221 N 
BRANCH  21  22
ATOM     22  N   UNL     1       1.237   0.180  -7.179  0.00  0.00    -0.294 N 
ATOM     23  H   UNL     1       0.893  -0.730  -7.448  0.00  0.00    +0.163 HD
ATOM     24  H   UNL     1       1.250   0.810  -7.967  0.00  0.00    +0.163 HD
ENDBRANCH  21  22
ENDBRANCH  13  14
ENDBRANCH   1  13
TORSDOF 5
