REMARK  Name = ZINC39674839
REMARK  11 active torsions:
REMARK  status: ('A' for Active; 'I' for Inactive)
REMARK    1  A    between atoms: C_1  and  C_2
REMARK    2  A    between atoms: C_4  and  C_14
REMARK    3  A    between atoms: C_7  and  C_12
REMARK    4  A    between atoms: C_14  and  C_15
REMARK    5  A    between atoms: C_15  and  N_16
REMARK    6  A    between atoms: C_17  and  C_19
REMARK    7  A    between atoms: C_30  and  C_32
REMARK    8  A    between atoms: C_32  and  C_33
REMARK    9  A    between atoms: C_33  and  C_34
REMARK   10  A    between atoms: C_37  and  O_40
REMARK   11  A    between atoms: O_40  and  C_41
REMARK                            x       y       z     vdW  Elec       q    Type
REMARK                         _______ _______ _______ _____ _____    ______ ____
ROOT
ATOM      1  C   UNL     1       1.375  -1.007  -7.406  0.00  0.00    +0.100 C 
ATOM      2  C   UNL     1       1.324   0.508  -7.702  0.00  0.00    +0.121 C 
ATOM      3  N   UNL     1       2.660   0.827  -8.258  0.00  0.00    -0.300 N 
ATOM      4  C   UNL     1       2.986  -0.332  -9.122  0.00  0.00    +0.115 C 
ATOM      5  C   UNL     1       2.465  -1.556  -8.343  0.00  0.00    -0.004 C 
ATOM      6  C   UNL     1       1.868  -2.580  -9.303  0.00  0.00    -0.010 C 
ATOM      7  C   UNL     1       2.981  -3.154 -10.185  0.00  0.00    -0.082 C 
ATOM      8  N   UNL     1       4.003  -3.783  -9.340  0.00  0.00    +0.379 N 
ATOM      9  C   UNL     1       4.636  -2.773  -8.484  0.00  0.00    -0.082 C 
ATOM     10  C   UNL     1       3.594  -2.183  -7.530  0.00  0.00    -0.010 C 
ATOM     11  C   UNL     1       3.410   1.923  -8.029  0.00  0.00    +0.216 C 
ATOM     12  O   UNL     1       4.492   2.040  -8.563  0.00  0.00    -0.276 OA
ATOM     13  H   UNL     1       3.571  -4.489  -8.762  0.00  0.00    -0.086 HD
ATOM     14  H   UNL     1       4.703  -4.214  -9.925  0.00  0.00    -0.086 HD
ENDROOT
BRANCH   1  16
ATOM     15  N   UNL     1       1.327  -2.362  -5.336  0.00  0.00    -0.315 N 
ATOM     16  C   UNL     1       1.751  -1.248  -5.966  0.00  0.00    +0.218 C 
ATOM     17  O   UNL     1       2.435  -0.440  -5.375  0.00  0.00    -0.275 OA
ATOM     18  H   UNL     1       0.780  -3.008  -5.809  0.00  0.00    +0.149 HD
BRANCH  15  19
ATOM     19  C   UNL     1       1.693  -2.596  -3.937  0.00  0.00    +0.108 C 
BRANCH  19  20
ATOM     20  C   UNL     1       1.089  -3.921  -3.467  0.00  0.00    +0.052 C 
BRANCH  20  23
ATOM     21  C   UNL     1      -0.443  -5.431  -1.043  0.00  0.00    +0.035 C 
ATOM     22  C   UNL     1       1.079  -5.348  -1.173  0.00  0.00    +0.103 C 
ATOM     23  C   UNL     1       1.465  -4.161  -2.028  0.00  0.00    -0.037 C 
ATOM     24  C   UNL     1       2.218  -3.357  -1.235  0.00  0.00    +0.000 A 
ATOM     25  C   UNL     1       2.856  -2.113  -1.482  0.00  0.00    +0.028 A 
ATOM     26  C   UNL     1       3.574  -1.496  -0.484  0.00  0.00    +0.052 A 
ATOM     27  C   UNL     1       3.699  -2.094   0.840  0.00  0.00    +0.021 A 
ATOM     28  C   UNL     1       3.115  -3.274   1.133  0.00  0.00    +0.027 A 
ATOM     29  C   UNL     1       2.337  -3.975   0.104  0.00  0.00    +0.043 A 
ATOM     30  N   UNL     1       1.687  -5.114   0.140  0.00  0.00    -0.378 N 
ATOM     31  H   UNL     1       1.619  -5.704   0.908  0.00  0.00    +0.160 HD
BRANCH  26  32
ATOM     32  C   UNL     1       4.211  -0.241  -0.751  0.00  0.00    +0.099 C 
ATOM     33  N   UNL     1       4.716   0.754  -0.962  0.00  0.00    -0.191 NA
ENDBRANCH  26  32
ENDBRANCH  20  23
ENDBRANCH  19  20
ENDBRANCH  15  19
ENDBRANCH   1  16
BRANCH  11  34
ATOM     34  C   UNL     1       2.903   3.004  -7.109  0.00  0.00    +0.100 C 
BRANCH  34  35
ATOM     35  C   UNL     1       3.938   4.128  -7.023  0.00  0.00    +0.044 C 
BRANCH  35  36
ATOM     36  C   UNL     1       3.431   5.209  -6.104  0.00  0.00    -0.047 A 
ATOM     37  C   UNL     1       2.676   6.249  -6.612  0.00  0.00    +0.007 A 
ATOM     38  C   UNL     1       2.211   7.242  -5.771  0.00  0.00    +0.046 A 
ATOM     39  C   UNL     1       2.501   7.193  -4.416  0.00  0.00    +0.120 A 
ATOM     40  C   UNL     1       3.259   6.148  -3.908  0.00  0.00    +0.046 A 
ATOM     41  C   UNL     1       3.717   5.155  -4.752  0.00  0.00    +0.007 A 
BRANCH  39  42
ATOM     42  O   UNL     1       2.045   8.169  -3.587  0.00  0.00    -0.495 OA
ATOM     43  C   UNL     1       2.383   8.054  -2.203  0.00  0.00    +0.277 C 
ENDBRANCH  39  42
ENDBRANCH  35  36
ENDBRANCH  34  35
ENDBRANCH  11  34
TORSDOF 9
