REMARK  Name = ZINC19960132
REMARK  4 active torsions:
REMARK  status: ('A' for Active; 'I' for Inactive)
REMARK    1  A    between atoms: C_1  and  S_2
REMARK    2  A    between atoms: S_2  and  C_3
REMARK    3  A    between atoms: C_8  and  C_24
REMARK    4  A    between atoms: C_14  and  C_19
REMARK                            x       y       z     vdW  Elec       q    Type
REMARK                         _______ _______ _______ _____ _____    ______ ____
ROOT
ATOM      1  C   UNL     1       0.877  -0.427   1.472  0.00  0.00    +0.210 A 
ATOM      2  N   UNL     1       1.378   0.446   2.358  0.00  0.00    -0.187 NA
ATOM      3  C   UNL     1       1.960  -0.203   3.329  0.00  0.00    +0.219 A 
ATOM      4  N   UNL     1       1.847  -1.530   3.076  0.00  0.00    -0.220 N 
ATOM      5  N   UNL     1       1.138  -1.650   1.881  0.00  0.00    -0.141 NA
ATOM      6  C   UNL     1       2.394  -2.563   3.947  0.00  0.00    +0.175 C 
ATOM      7  C   UNL     1       2.775  -1.965   5.283  0.00  0.00    +0.041 C 
ATOM      8  C   UNL     1       2.861  -0.631   5.474  0.00  0.00    +0.020 C 
ATOM      9  N   UNL     1       2.606   0.263   4.462  0.00  0.00    -0.287 N 
ATOM     10  C   UNL     1       3.237  -0.062   6.822  0.00  0.00    +0.063 C 
ATOM     11  C   UNL     1       4.172  -1.032   7.547  0.00  0.00    +0.068 C 
ATOM     12  C   UNL     1       3.451  -2.376   7.695  0.00  0.00    +0.091 C 
ATOM     13  C   UNL     1       3.041  -2.862   6.333  0.00  0.00    +0.164 C 
ATOM     14  O   UNL     1       2.937  -4.057   6.134  0.00  0.00    -0.292 OA
ATOM     15  H   UNL     1       2.870   1.194   4.539  0.00  0.00    +0.155 HD
ENDROOT
BRANCH   6  16
ATOM     16  C   UNL     1       3.617  -3.164   3.303  0.00  0.00    -0.018 A 
ATOM     17  C   UNL     1       4.707  -2.365   3.012  0.00  0.00    +0.007 A 
ATOM     18  C   UNL     1       5.829  -2.916   2.422  0.00  0.00    +0.020 A 
ATOM     19  C   UNL     1       5.861  -4.266   2.123  0.00  0.00    +0.041 A 
ATOM     20  C   UNL     1       4.770  -5.065   2.415  0.00  0.00    +0.020 A 
ATOM     21  C   UNL     1       3.650  -4.514   3.010  0.00  0.00    +0.007 A 
ATOM     22 CL   UNL     1       7.270  -4.958   1.381  0.00  0.00    -0.084 Cl
ENDBRANCH   6  16
BRANCH  11  23
ATOM     23  C   UNL     1       4.513  -0.485   8.910  0.00  0.00    +0.109 A 
ATOM     24  C   UNL     1       5.748  -0.187   9.351  0.00  0.00    +0.045 A 
ATOM     25  C   UNL     1       5.606   0.293  10.673  0.00  0.00    +0.041 A 
ATOM     26  C   UNL     1       4.292   0.259  10.961  0.00  0.00    +0.195 A 
ATOM     27  O   UNL     1       3.634  -0.208   9.887  0.00  0.00    -0.468 OA
ENDBRANCH  11  23
BRANCH   1  29
ATOM     28  C   UNL     1      -0.022   1.810   0.012  0.00  0.00    +0.093 C 
ATOM     29  S   UNL     1       0.002  -0.004   0.002  0.00  0.00    -0.088 S 
ENDBRANCH   1  29
TORSDOF 3
