REMARK  Name = ZINC58803888
REMARK  5 active torsions:
REMARK  status: ('A' for Active; 'I' for Inactive)
REMARK    1  A    between atoms: C_1  and  N_2
REMARK    2  A    between atoms: C_6  and  C_7
REMARK    3  A    between atoms: N_9  and  N_10
REMARK    4  A    between atoms: C_11  and  C_13
REMARK    5  A    between atoms: N_16  and  C_18
REMARK                            x       y       z     vdW  Elec       q    Type
REMARK                         _______ _______ _______ _____ _____    ______ ____
ROOT
ATOM      1  C   UNL     1      -0.603   3.134   5.797  0.00  0.00    +0.152 A 
ATOM      2  C   UNL     1      -0.807   4.460   6.244  0.00  0.00    +0.006 A 
ATOM      3  C   UNL     1      -0.727   4.411   7.591  0.00  0.00    +0.049 A 
ATOM      4  N   UNL     1      -0.485   3.115   7.928  0.00  0.00    -0.233 N 
ATOM      5  N   UNL     1      -0.423   2.389   6.870  0.00  0.00    -0.161 NA
ATOM      6  C   UNL     1      -0.934   5.790   8.177  0.00  0.00    +0.056 C 
ATOM      7  C   UNL     1      -0.726   6.763   6.995  0.00  0.00    +0.011 C 
ATOM      8  C   UNL     1      -1.074   5.872   5.781  0.00  0.00    +0.040 C 
ENDROOT
BRANCH   4   9
ATOM      9  C   UNL     1      -0.333   2.641   9.238  0.00  0.00    +0.101 A 
ATOM     10  C   UNL     1      -0.431   3.516  10.311  0.00  0.00    +0.031 A 
ATOM     11  C   UNL     1      -0.281   3.046  11.601  0.00  0.00    +0.002 A 
ATOM     12  C   UNL     1      -0.032   1.704  11.825  0.00  0.00    +0.003 A 
ATOM     13  C   UNL     1       0.067   0.828  10.761  0.00  0.00    +0.040 A 
ATOM     14  C   UNL     1      -0.088   1.291   9.466  0.00  0.00    +0.149 A 
ATOM     15  F   UNL     1       0.003   0.434   8.426  0.00  0.00    -0.203 F 
ENDBRANCH   4   9
BRANCH   1  17
ATOM     16  N   UNL     1      -0.395   1.368   4.116  0.00  0.00    -0.229 N 
ATOM     17  C   UNL     1      -0.599   2.671   4.395  0.00  0.00    +0.281 C 
ATOM     18  O   UNL     1      -0.778   3.465   3.492  0.00  0.00    -0.267 OA
ATOM     19  H   UNL     1      -0.252   0.735   4.836  0.00  0.00    +0.173 HD
BRANCH  16  22
ATOM     20  C   UNL     1      -0.188  -0.374   2.507  0.00  0.00    +0.277 C 
ATOM     21  O   UNL     1      -0.100  -1.183   3.412  0.00  0.00    -0.267 OA
ATOM     22  N   UNL     1      -0.391   0.929   2.786  0.00  0.00    -0.229 N 
ATOM     23  H   UNL     1      -0.534   1.562   2.065  0.00  0.00    +0.173 HD
BRANCH  20  29
ATOM     24  C   UNL     1       0.069  -3.305   1.538  0.00  0.00    +0.149 C 
ATOM     25  N   UNL     1       0.042  -2.118   0.680  0.00  0.00    -0.346 N 
ATOM     26  C   UNL     1       0.120  -2.119  -0.673  0.00  0.00    +0.086 A 
ATOM     27  C   UNL     1       0.063  -0.840  -1.116  0.00  0.00    +0.020 A 
ATOM     28  C   UNL     1      -0.054  -0.004  -0.001  0.00  0.00    +0.032 A 
ATOM     29  C   UNL     1      -0.072  -0.817   1.113  0.00  0.00    +0.106 A 
ENDBRANCH  20  29
ENDBRANCH  16  22
ENDBRANCH   1  17
TORSDOF 4
