REMARK  Name = ZINC05837117
REMARK  11 active torsions:
REMARK  status: ('A' for Active; 'I' for Inactive)
REMARK    1  A    between atoms: C_1  and  C_2
REMARK    2  A    between atoms: C_2  and  C_3
REMARK    3  A    between atoms: C_3  and  O_4
REMARK    4  A    between atoms: O_4  and  C_5
REMARK    5  A    between atoms: C_8  and  C_11
REMARK    6  A    between atoms: C_18  and  N_33
REMARK    7  A    between atoms: C_19  and  C_31
REMARK    8  A    between atoms: C_20  and  C_22
REMARK    9  A    between atoms: C_25  and  N_28
REMARK   10  A    between atoms: N_28  and  C_29
REMARK   11  A    between atoms: N_28  and  C_30
REMARK                            x       y       z     vdW  Elec       q    Type
REMARK                         _______ _______ _______ _____ _____    ______ ____
ROOT
ATOM      1  C   UNL     1      -6.433  -4.611   0.100  0.00  0.00    +0.100 A 
ATOM      2  C   UNL     1      -6.735  -5.749  -0.654  0.00  0.00    +0.054 A 
ATOM      3  C   UNL     1      -8.031  -6.092  -0.400  0.00  0.00    +0.223 A 
ATOM      4  N   UNL     1      -8.526  -5.201   0.484  0.00  0.00    -0.246 N 
ATOM      5  H   UNL     1      -9.425  -5.197   0.848  0.00  0.00    +0.192 HD
ATOM      6  N   UNL     1      -7.509  -4.283   0.789  0.00  0.00    -0.171 NA
ATOM      7  O   UNL     1      -8.634  -7.158  -0.982  0.00  0.00    -0.423 OA
ATOM      8  C   UNL     1      -8.015  -7.727  -2.037  0.00  0.00    +0.200 C 
ATOM      9  C   UNL     1      -6.732  -7.477  -2.380  0.00  0.00    +0.098 C 
ATOM     10  C   UNL     1      -5.857  -6.526  -1.601  0.00  0.00    +0.102 C 
ENDROOT
BRANCH   1  14
ATOM     11  C   UNL     1      -2.699  -2.574   0.171  0.00  0.00    +0.121 A 
ATOM     12  C   UNL     1      -3.222  -3.019  -1.035  0.00  0.00    +0.046 A 
ATOM     13  C   UNL     1      -4.432  -3.680  -1.062  0.00  0.00    +0.013 A 
ATOM     14  C   UNL     1      -5.130  -3.900   0.124  0.00  0.00    +0.003 A 
ATOM     15  C   UNL     1      -4.602  -3.452   1.334  0.00  0.00    +0.013 A 
ATOM     16  C   UNL     1      -3.389  -2.796   1.355  0.00  0.00    +0.046 A 
BRANCH  11  17
ATOM     17  O   UNL     1      -1.506  -1.923   0.194  0.00  0.00    -0.492 OA
BRANCH  17  18
ATOM     18  C   UNL     1      -0.850  -1.727  -1.061  0.00  0.00    +0.229 C 
BRANCH  18  20
ATOM     19  C   UNL     1       1.171  -0.774  -2.179  0.00  0.00    +0.007 C 
ATOM     20  C   UNL     1       0.468  -0.983  -0.836  0.00  0.00    +0.038 C 
ENDBRANCH  18  20
ENDBRANCH  17  18
ENDBRANCH  11  17
ENDBRANCH   1  14
BRANCH  10  21
ATOM     21  C   UNL     1      -4.830  -7.304  -0.819  0.00  0.00    -0.034 A 
ATOM     22  C   UNL     1      -5.235  -8.294   0.058  0.00  0.00    +0.006 A 
ATOM     23  C   UNL     1      -4.297  -9.009   0.775  0.00  0.00    +0.023 A 
ATOM     24  C   UNL     1      -2.945  -8.733   0.616  0.00  0.00    +0.029 A 
ATOM     25  C   UNL     1      -2.542  -7.738  -0.265  0.00  0.00    +0.023 A 
ATOM     26  C   UNL     1      -3.485  -7.031  -0.984  0.00  0.00    +0.006 A 
BRANCH  24  27
ATOM     27  N   UNL     1      -1.993  -9.454   1.341  0.00  0.00    -0.336 N 
ATOM     28  C   UNL     1      -2.411 -10.577   2.184  0.00  0.00    +0.129 C 
ATOM     29  C   UNL     1      -0.577  -9.088   1.258  0.00  0.00    +0.129 C 
ENDBRANCH  24  27
ENDBRANCH  10  21
BRANCH   8  30
ATOM     30  N   UNL     1      -8.729  -8.612  -2.806  0.00  0.00    -0.328 N 
ATOM     31  H   UNL     1      -9.652  -8.811  -2.585  0.00  0.00    +0.145 HD
ATOM     32  H   UNL     1      -8.311  -9.037  -3.571  0.00  0.00    +0.145 HD
ENDBRANCH   8  30
BRANCH   9  33
ATOM     33  C   UNL     1      -6.182  -8.139  -3.524  0.00  0.00    +0.101 C 
ATOM     34  N   UNL     1      -5.746  -8.665  -4.432  0.00  0.00    -0.191 NA
ENDBRANCH   9  33
TORSDOF 8
