REMARK  Name = ZINC63445925
REMARK  9 active torsions:
REMARK  status: ('A' for Active; 'I' for Inactive)
REMARK    1  A    between atoms: C_1  and  O_2
REMARK    2  A    between atoms: O_2  and  C_3
REMARK    3  A    between atoms: C_6  and  O_31
REMARK    4  A    between atoms: C_7  and  N_9
REMARK    5  A    between atoms: C_13  and  N_14
REMARK    6  A    between atoms: N_14  and  C_15
REMARK    7  A    between atoms: C_15  and  C_16
REMARK    8  A    between atoms: C_16  and  C_17
REMARK    9  A    between atoms: O_31  and  C_32
REMARK                            x       y       z     vdW  Elec       q    Type
REMARK                         _______ _______ _______ _____ _____    ______ ____
ROOT
ATOM      1  N   UNL     1       1.028  -4.087  -1.625  0.00  0.00    -0.186 N 
ATOM      2  C   UNL     1       2.158  -4.726  -1.259  0.00  0.00    +0.265 C 
ATOM      3  O   UNL     1       3.031  -4.147  -0.640  0.00  0.00    -0.269 OA
ATOM      4  C   UNL     1       2.308  -6.144  -1.630  0.00  0.00    +0.113 C 
ATOM      5  C   UNL     1       3.438  -6.864  -1.290  0.00  0.00    +0.085 C 
ATOM      6  C   UNL     1       1.199  -6.762  -2.380  0.00  0.00    +0.258 C 
ATOM      7  N   UNL     1       0.127  -5.999  -2.677  0.00  0.00    -0.235 N 
ATOM      8  C   UNL     1       0.057  -4.714  -2.303  0.00  0.00    +0.320 C 
ATOM      9  O   UNL     1      -0.939  -4.082  -2.598  0.00  0.00    -0.251 OA
ATOM     10  O   UNL     1       1.250  -7.928  -2.722  0.00  0.00    -0.270 OA
ATOM     11  H   UNL     1      -0.611  -6.390  -3.171  0.00  0.00    +0.159 HD
ENDROOT
BRANCH   1  16
ATOM     12  C   UNL     1       0.106  -1.056   0.257  0.00  0.00    +0.122 A 
ATOM     13  C   UNL     1       0.539  -0.065  -0.612  0.00  0.00    +0.049 A 
ATOM     14  C   UNL     1       1.132  -0.405  -1.813  0.00  0.00    +0.051 A 
ATOM     15  C   UNL     1       1.296  -1.738  -2.153  0.00  0.00    +0.142 A 
ATOM     16  C   UNL     1       0.863  -2.736  -1.283  0.00  0.00    +0.091 A 
ATOM     17  C   UNL     1       0.273  -2.392  -0.076  0.00  0.00    +0.073 A 
BRANCH  12  19
ATOM     18  C   UNL     1      -0.617   0.676   1.716  0.00  0.00    +0.277 C 
ATOM     19  O   UNL     1      -0.477  -0.718   1.438  0.00  0.00    -0.495 OA
ENDBRANCH  12  19
BRANCH  15  20
ATOM     20  O   UNL     1       1.880  -2.072  -3.335  0.00  0.00    -0.493 OA
ATOM     21  C   UNL     1       2.299  -0.998  -4.178  0.00  0.00    +0.277 C 
ENDBRANCH  15  20
ENDBRANCH   1  16
BRANCH   5  22
ATOM     22  N   UNL     1       4.501  -6.234  -0.750  0.00  0.00    -0.349 N 
ATOM     23  H   UNL     1       4.505  -5.267  -0.675  0.00  0.00    +0.146 HD
BRANCH  22  24
ATOM     24  C   UNL     1       5.650  -7.011  -0.278  0.00  0.00    +0.105 C 
BRANCH  24  25
ATOM     25  C   UNL     1       6.710  -6.062   0.285  0.00  0.00    +0.052 C 
BRANCH  25  26
ATOM     26  C   UNL     1       7.892  -6.861   0.771  0.00  0.00    -0.040 C 
ATOM     27  C   UNL     1       9.026  -7.133   0.087  0.00  0.00    -0.001 A 
ATOM     28  C   UNL     1       9.481  -6.782  -1.264  0.00  0.00    +0.010 A 
ATOM     29  C   UNL     1      10.694  -7.211  -1.680  0.00  0.00    +0.001 A 
ATOM     30  C   UNL     1      11.526  -7.980  -0.855  0.00  0.00    +0.002 A 
ATOM     31  C   UNL     1      11.178  -8.342   0.398  0.00  0.00    +0.026 A 
ATOM     32  C   UNL     1       9.923  -7.946   0.938  0.00  0.00    +0.043 A 
ATOM     33  N   UNL     1       9.366  -8.167   2.104  0.00  0.00    -0.380 N 
ATOM     34  C   UNL     1       8.052  -7.514   2.126  0.00  0.00    +0.144 C 
ATOM     35  H   UNL     1       9.758  -8.675   2.832  0.00  0.00    +0.160 HD
ENDBRANCH  25  26
ENDBRANCH  24  25
ENDBRANCH  22  24
ENDBRANCH   5  22
TORSDOF 7
