REMARK  Name = ZINC43527169
REMARK  9 active torsions:
REMARK  status: ('A' for Active; 'I' for Inactive)
REMARK    1  A    between atoms: C_4  and  C_7
REMARK    2  A    between atoms: C_7  and  C_8
REMARK    3  A    between atoms: N_11  and  C_14
REMARK    4  A    between atoms: C_14  and  C_15
REMARK    5  A    between atoms: C_24  and  C_26
REMARK    6  A    between atoms: C_26  and  N_27
REMARK    7  A    between atoms: N_27  and  C_28
REMARK    8  A    between atoms: C_28  and  N_30
REMARK    9  A    between atoms: N_30  and  C_31
REMARK                            x       y       z     vdW  Elec       q    Type
REMARK                         _______ _______ _______ _____ _____    ______ ____
ROOT
ATOM      1  C   UNL     1       8.558  -2.534   4.659  0.00  0.00    -0.041 C 
ATOM      2  C   UNL     1       9.316  -1.323   4.111  0.00  0.00    -0.076 C 
ATOM      3  N   UNL     1      10.513  -1.073   4.917  0.00  0.00    +0.383 N 
ATOM      4  C   UNL     1      10.148  -0.771   6.303  0.00  0.00    -0.078 C 
ATOM      5  C   UNL     1       9.417  -1.964   6.924  0.00  0.00    -0.015 C 
ATOM      6  C   UNL     1       9.312  -3.084   5.877  0.00  0.00    -0.015 C 
ATOM      7  C   UNL     1      10.731  -3.465   5.434  0.00  0.00    -0.010 C 
ATOM      8  C   UNL     1      11.421  -2.222   4.861  0.00  0.00    -0.051 C 
ATOM      9  H   UNL     1      10.991  -0.270   4.538  0.00  0.00    -0.081 HD
ENDROOT
BRANCH   1  10
ATOM     10  C   UNL     1       7.149  -2.110   5.078  0.00  0.00    -0.077 C 
BRANCH  10  14
ATOM     11  C   UNL     1       4.123  -1.807   2.093  0.00  0.00    -0.010 C 
ATOM     12  C   UNL     1       4.320  -0.657   3.084  0.00  0.00    -0.015 C 
ATOM     13  C   UNL     1       5.082  -1.171   4.308  0.00  0.00    -0.079 C 
ATOM     14  N   UNL     1       6.390  -1.690   3.892  0.00  0.00    +0.380 N 
ATOM     15  C   UNL     1       6.209  -2.839   2.997  0.00  0.00    -0.079 C 
ATOM     16  C   UNL     1       5.491  -2.389   1.723  0.00  0.00    -0.015 C 
ATOM     17  H   UNL     1       6.900  -0.965   3.409  0.00  0.00    -0.082 HD
BRANCH  11  18
ATOM     18  C   UNL     1       3.433  -1.283   0.832  0.00  0.00    +0.038 C 
BRANCH  18  22
ATOM     19  C   UNL     1      -0.517   0.020   1.807  0.00  0.00    +0.000 A 
ATOM     20  C   UNL     1       0.541   0.907   1.878  0.00  0.00    +0.000 A 
ATOM     21  C   UNL     1       1.819   0.486   1.562  0.00  0.00    +0.003 A 
ATOM     22  C   UNL     1       2.039  -0.823   1.177  0.00  0.00    -0.047 A 
ATOM     23  C   UNL     1       0.982  -1.711   1.107  0.00  0.00    +0.003 A 
ATOM     24  C   UNL     1      -0.296  -1.289   1.421  0.00  0.00    +0.000 A 
ENDBRANCH  18  22
ENDBRANCH  11  18
ENDBRANCH  10  14
ENDBRANCH   1  10
BRANCH   8  25
ATOM     25  C   UNL     1      12.678  -1.916   5.677  0.00  0.00    +0.088 C 
BRANCH  25  26
ATOM     26  N   UNL     1      13.280  -0.669   5.197  0.00  0.00    -0.328 N 
ATOM     27  H   UNL     1      12.870  -0.183   4.466  0.00  0.00    +0.148 HD
BRANCH  26  28
ATOM     28  C   UNL     1      14.405  -0.200   5.772  0.00  0.00    +0.134 C 
ATOM     29  S   UNL     1      15.130  -1.059   7.064  0.00  0.00    -0.019 S 
BRANCH  28  30
ATOM     30  N   UNL     1      14.959   0.947   5.331  0.00  0.00    -0.297 N 
ATOM     31  H   UNL     1      14.585   1.401   4.560  0.00  0.00    +0.154 HD
BRANCH  30  32
ATOM     32  C   UNL     1      16.075   1.482   5.984  0.00  0.00    +0.033 A 
ATOM     33  C   UNL     1      17.135   0.657   6.338  0.00  0.00    +0.023 A 
ATOM     34  C   UNL     1      18.235   1.188   6.982  0.00  0.00    +0.002 A 
ATOM     35  C   UNL     1      18.282   2.539   7.275  0.00  0.00    +0.000 A 
ATOM     36  C   UNL     1      17.227   3.362   6.925  0.00  0.00    +0.002 A 
ATOM     37  C   UNL     1      16.127   2.838   6.275  0.00  0.00    +0.023 A 
ENDBRANCH  30  32
ENDBRANCH  28  30
ENDBRANCH  26  28
ENDBRANCH  25  26
ENDBRANCH   8  25
TORSDOF 9
