REMARK  Name = ZINC33261945
REMARK  5 active torsions:
REMARK  status: ('A' for Active; 'I' for Inactive)
REMARK    1  A    between atoms: C_1  and  C_2
REMARK    2  A    between atoms: C_5  and  N_9
REMARK    3  A    between atoms: C_10  and  C_12
REMARK    4  A    between atoms: N_17  and  S_18
REMARK    5  A    between atoms: S_18  and  C_21
REMARK                            x       y       z     vdW  Elec       q    Type
REMARK                         _______ _______ _______ _____ _____    ______ ____
ROOT
ATOM      1  C   UNL     1      -4.076   6.054   0.715  0.00  0.00    +0.166 C 
ATOM      2  C   UNL     1      -4.816   5.414  -0.486  0.00  0.00    +0.031 C 
ATOM      3  C   UNL     1      -5.466   6.657  -1.149  0.00  0.00    +0.019 C 
ATOM      4  C   UNL     1      -4.409   7.759  -0.930  0.00  0.00    +0.110 C 
ATOM      5  N   UNL     1      -3.573   7.343   0.206  0.00  0.00    -0.165 NA
ENDROOT
BRANCH   1   7
ATOM      6  N   UNL     1      -3.003   4.501   2.314  0.00  0.00    -0.283 N 
ATOM      7  C   UNL     1      -2.929   5.179   1.151  0.00  0.00    +0.236 C 
ATOM      8  O   UNL     1      -1.940   5.085   0.456  0.00  0.00    -0.274 OA
ATOM      9  H   UNL     1      -3.913   4.562   2.930  0.00  0.00    +0.155 HD
BRANCH   6  14
ATOM     10  C   UNL     1       1.376   1.327   4.030  0.00  0.00    +0.044 C 
ATOM     11  C   UNL     1       0.213   2.170   3.575  0.00  0.00    -0.049 A 
ATOM     12  C   UNL     1       0.027   2.420   2.227  0.00  0.00    +0.005 A 
ATOM     13  C   UNL     1      -1.038   3.192   1.806  0.00  0.00    +0.024 A 
ATOM     14  C   UNL     1      -1.923   3.718   2.737  0.00  0.00    +0.048 A 
ATOM     15  C   UNL     1      -1.738   3.461   4.090  0.00  0.00    +0.039 A 
ATOM     16  C   UNL     1      -0.667   2.692   4.505  0.00  0.00    +0.020 A 
ATOM     17 BR   UNL     1      -2.944   4.169   5.362  0.00  0.00    -0.048 Br
ENDBRANCH   6  14
ENDBRANCH   1   7
BRANCH   5  18
ATOM     18  S   UNL     1      -2.282   8.183   0.814  0.00  0.00    +0.062 S 
ATOM     19  O   UNL     1      -1.570   7.283   1.651  0.00  0.00    -0.153 OA
ATOM     20  O   UNL     1      -1.672   8.842  -0.288  0.00  0.00    -0.153 OA
BRANCH  18  21
ATOM     21  C   UNL     1      -2.927   9.444   1.862  0.00  0.00    +0.107 A 
ATOM     22  C   UNL     1      -3.307  10.659   1.324  0.00  0.00    +0.032 A 
ATOM     23  C   UNL     1      -3.819  11.652   2.139  0.00  0.00    +0.049 A 
ATOM     24  C   UNL     1      -3.941  11.432   3.500  0.00  0.00    +0.142 A 
ATOM     25  C   UNL     1      -3.553  10.209   4.043  0.00  0.00    +0.078 A 
ATOM     26  C   UNL     1      -3.046   9.216   3.221  0.00  0.00    +0.055 A 
ATOM     27  N   UNL     1      -3.681   9.999   5.423  0.00  0.00    -0.280 N 
ATOM     28  C   UNL     1      -4.454  10.841   6.144  0.00  0.00    +0.255 C 
ATOM     29  O   UNL     1      -4.555  10.698   7.344  0.00  0.00    -0.272 OA
ATOM     30  C   UNL     1      -5.190  11.959   5.450  0.00  0.00    +0.325 C 
ATOM     31  O   UNL     1      -4.438  12.399   4.317  0.00  0.00    -0.481 OA
ATOM     32  H   UNL     1      -3.157   9.160   5.904  0.00  0.00    +0.155 HD
ENDBRANCH  18  21
ENDBRANCH   5  18
TORSDOF 4
