REMARK  Name = ZINC40285892
REMARK  3 active torsions:
REMARK  status: ('A' for Active; 'I' for Inactive)
REMARK    1  A    between atoms: C_6  and  C_7
REMARK    2  A    between atoms: C_7  and  C_9
REMARK    3  A    between atoms: C_12  and  N_14
REMARK                            x       y       z     vdW  Elec       q    Type
REMARK                         _______ _______ _______ _____ _____    ______ ____
ROOT
ATOM      1  C   UNL     1      -0.017   1.379   0.010  0.00  0.00    +0.007 A 
ATOM      2  C   UNL     1       1.168   2.090   0.002  0.00  0.00    +0.030 A 
ATOM      3  C   UNL     1       2.377   1.414  -0.013  0.00  0.00    +0.087 A 
ATOM      4  C   UNL     1       2.397   0.019  -0.021  0.00  0.00    +0.157 A 
ATOM      5  C   UNL     1       1.204  -0.685  -0.013  0.00  0.00    +0.053 A 
ATOM      6  C   UNL     1       0.002  -0.004   0.002  0.00  0.00    -0.023 A 
ATOM      7  O   UNL     1       3.697  -0.364  -0.036  0.00  0.00    -0.408 OA
ATOM      8  C   UNL     1       4.479   0.727  -0.038  0.00  0.00    +0.419 A 
ATOM      9  O   UNL     1       5.695   0.719  -0.050  0.00  0.00    -0.223 OA
ATOM     10  N   UNL     1       3.708   1.832  -0.024  0.00  0.00    -0.288 N 
ATOM     11  H   UNL     1       4.021   2.750  -0.022  0.00  0.00    +0.172 HD
ENDROOT
BRANCH   6  12
ATOM     12  C   UNL     1      -1.295  -0.772   0.010  0.00  0.00    +0.152 C 
ATOM     13 BR   UNL     1      -2.386  -0.199   1.542  0.00  0.00    -0.075 Br
BRANCH  12  14
ATOM     14  C   UNL     1      -2.045  -0.504  -1.269  0.00  0.00    +0.126 A 
ATOM     15  C   UNL     1      -2.329  -1.413  -2.220  0.00  0.00    +0.048 A 
ATOM     16  C   UNL     1      -3.040  -0.734  -3.236  0.00  0.00    +0.076 A 
ATOM     17  C   UNL     1      -3.148   0.549  -2.845  0.00  0.00    +0.280 A 
ATOM     18  O   UNL     1      -2.549   0.681  -1.651  0.00  0.00    -0.438 OA
BRANCH  17  19
ATOM     19  N   UNL     1      -3.820   1.630  -3.601  0.00  0.00    +0.093 N 
ATOM     20  O   UNL     1      -4.333   1.392  -4.670  0.00  0.00    -0.123 OA
ATOM     21  O   UNL     1      -3.856   2.751  -3.150  0.00  0.00    -0.123 OA
ENDBRANCH  17  19
ENDBRANCH  12  14
ENDBRANCH   6  12
TORSDOF 3
