REMARK  Name = ZINC10419346
REMARK  7 active torsions:
REMARK  status: ('A' for Active; 'I' for Inactive)
REMARK    1  A    between atoms: C_1  and  C_2
REMARK    2  A    between atoms: C_5  and  N_8
REMARK    3  A    between atoms: C_9  and  C_29
REMARK    4  A    between atoms: C_11  and  C_16
REMARK    5  A    between atoms: N_18  and  N_19
REMARK    6  A    between atoms: C_20  and  C_22
REMARK    7  A    between atoms: C_27  and  C_28
REMARK                            x       y       z     vdW  Elec       q    Type
REMARK                         _______ _______ _______ _____ _____    ______ ____
ROOT
ATOM      1  N   UNL     1      -0.660  -1.318   0.333  0.00  0.00    -0.263 N 
ATOM      2  C   UNL     1       0.199  -2.000  -0.642  0.00  0.00    +0.130 C 
ATOM      3  C   UNL     1      -0.619  -2.043  -1.952  0.00  0.00    +0.111 C 
ATOM      4  C   UNL     1      -1.563  -0.831  -1.774  0.00  0.00    +0.111 C 
ATOM      5  C   UNL     1      -1.655  -0.649  -0.275  0.00  0.00    +0.221 C 
ATOM      6  O   UNL     1      -2.502   0.005   0.295  0.00  0.00    -0.275 OA
ENDROOT
BRANCH   1  11
ATOM      7  C   UNL     1       0.117  -1.486   5.950  0.00  0.00    +0.044 C 
ATOM      8  C   UNL     1      -0.089  -1.442   4.458  0.00  0.00    -0.050 A 
ATOM      9  C   UNL     1      -1.071  -0.628   3.922  0.00  0.00    +0.005 A 
ATOM     10  C   UNL     1      -1.262  -0.585   2.555  0.00  0.00    +0.024 A 
ATOM     11  C   UNL     1      -0.469  -1.360   1.719  0.00  0.00    +0.037 A 
ATOM     12  C   UNL     1       0.512  -2.180   2.261  0.00  0.00    +0.024 A 
ATOM     13  C   UNL     1       0.703  -2.214   3.629  0.00  0.00    +0.005 A 
ENDBRANCH   1  11
BRANCH   2  14
ATOM     14  C   UNL     1       1.473  -1.223  -0.848  0.00  0.00    +0.011 A 
ATOM     15  C   UNL     1       2.736  -1.684  -1.021  0.00  0.00    +0.013 A 
ATOM     16  C   UNL     1       3.763  -0.776  -1.194  0.00  0.00    +0.008 A 
ATOM     17  C   UNL     1       3.478   0.549  -1.186  0.00  0.00    +0.045 A 
ATOM     18  S   UNL     1       1.712   0.545  -0.928  0.00  0.00    -0.100 S 
ENDBRANCH   2  14
BRANCH   3  19
ATOM     19  C   UNL     1      -1.402  -3.326  -2.058  0.00  0.00    +0.235 C 
ATOM     20  O   UNL     1      -1.331  -4.154  -1.174  0.00  0.00    -0.274 OA
ATOM     21  N   UNL     1      -2.182  -3.553  -3.134  0.00  0.00    -0.234 N 
ATOM     22  H   UNL     1      -2.238  -2.891  -3.840  0.00  0.00    +0.173 HD
BRANCH  21  23
ATOM     23  N   UNL     1      -2.910  -4.746  -3.232  0.00  0.00    -0.230 N 
ATOM     24  C   UNL     1      -3.689  -4.973  -4.307  0.00  0.00    +0.260 C 
ATOM     25  O   UNL     1      -3.760  -4.143  -5.193  0.00  0.00    -0.269 OA
ATOM     26  H   UNL     1      -2.853  -5.408  -2.525  0.00  0.00    +0.173 HD
BRANCH  24  27
ATOM     27  C   UNL     1      -4.457  -6.232  -4.411  0.00  0.00    +0.041 A 
ATOM     28  C   UNL     1      -4.415  -7.167  -3.375  0.00  0.00    +0.013 A 
ATOM     29  C   UNL     1      -5.134  -8.339  -3.478  0.00  0.00    +0.001 A 
ATOM     30  C   UNL     1      -5.897  -8.590  -4.604  0.00  0.00    +0.000 A 
ATOM     31  C   UNL     1      -5.943  -7.668  -5.635  0.00  0.00    +0.004 A 
ATOM     32  C   UNL     1      -5.233  -6.489  -5.542  0.00  0.00    -0.038 A 
ATOM     33  C   UNL     1      -5.290  -5.483  -6.663  0.00  0.00    +0.044 C 
ENDBRANCH  24  27
ENDBRANCH  21  23
ENDBRANCH   3  19
TORSDOF 5
