REMARK  Name = ZINC10324876
REMARK  5 active torsions:
REMARK  status: ('A' for Active; 'I' for Inactive)
REMARK    1  A    between atoms: C_1  and  N_2
REMARK    2  A    between atoms: C_7  and  C_9
REMARK    3  A    between atoms: C_12  and  N_15
REMARK    4  A    between atoms: N_15  and  S_16
REMARK    5  A    between atoms: S_16  and  C_19
REMARK                            x       y       z     vdW  Elec       q    Type
REMARK                         _______ _______ _______ _____ _____    ______ ____
ROOT
ATOM      1  N   UNL     1       4.236  -1.143  -1.579  0.00  0.00    -0.216 N 
ATOM      2  H   UNL     1       3.437  -1.687  -1.659  0.00  0.00    +0.174 HD
ENDROOT
BRANCH   1   6
ATOM      3  C   UNL     1       4.925   1.957  -4.275  0.00  0.00    +0.002 A 
ATOM      4  C   UNL     1       5.661   0.775  -4.367  0.00  0.00    +0.012 A 
ATOM      5  C   UNL     1       5.431  -0.249  -3.473  0.00  0.00    +0.025 A 
ATOM      6  C   UNL     1       4.467  -0.105  -2.482  0.00  0.00    +0.048 A 
ATOM      7  C   UNL     1       3.729   1.070  -2.392  0.00  0.00    +0.025 A 
ATOM      8  C   UNL     1       3.959   2.099  -3.280  0.00  0.00    +0.012 A 
BRANCH   3  15
ATOM      9  C   UNL     1       7.361   3.619  -8.041  0.00  0.00    +0.176 C 
ATOM     10  N   UNL     1       6.330   3.847  -7.026  0.00  0.00    -0.232 N 
ATOM     11  C   UNL     1       5.670   5.020  -7.015  0.00  0.00    +0.267 A 
ATOM     12  O   UNL     1       5.930   5.880  -7.842  0.00  0.00    -0.266 OA
ATOM     13  C   UNL     1       4.674   5.249  -6.040  0.00  0.00    +0.074 A 
ATOM     14  C   UNL     1       4.418   4.255  -5.143  0.00  0.00    +0.035 A 
ATOM     15  C   UNL     1       5.170   3.060  -5.235  0.00  0.00    +0.092 A 
ATOM     16  N   UNL     1       6.080   2.922  -6.171  0.00  0.00    -0.168 NA
ENDBRANCH   3  15
ENDBRANCH   1   6
BRANCH   1  17
ATOM     17  S   UNL     1       5.327  -1.448  -0.370  0.00  0.00    +0.072 S 
ATOM     18  O   UNL     1       6.604  -1.532  -0.988  0.00  0.00    -0.150 OA
ATOM     19  O   UNL     1       4.785  -2.506   0.408  0.00  0.00    -0.150 OA
BRANCH  17  20
ATOM     20  C   UNL     1       5.363  -0.026   0.669  0.00  0.00    +0.112 A 
ATOM     21  C   UNL     1       4.431   0.114   1.680  0.00  0.00    +0.032 A 
ATOM     22  C   UNL     1       4.455   1.229   2.497  0.00  0.00    +0.051 A 
ATOM     23  C   UNL     1       5.415   2.211   2.303  0.00  0.00    +0.162 A 
ATOM     24  C   UNL     1       6.354   2.069   1.288  0.00  0.00    +0.164 A 
ATOM     25  C   UNL     1       6.324   0.948   0.472  0.00  0.00    +0.078 A 
ATOM     26  O   UNL     1       7.310   3.017   1.087  0.00  0.00    -0.485 OA
ATOM     27  C   UNL     1       7.080   4.300   1.680  0.00  0.00    +0.270 C 
ATOM     28  C   UNL     1       6.625   4.084   3.130  0.00  0.00    +0.270 C 
ATOM     29  O   UNL     1       5.421   3.307   3.110  0.00  0.00    -0.485 OA
ENDBRANCH  17  20
ENDBRANCH   1  17
TORSDOF 4
