REMARK  Name = ZINC09439450
REMARK  13 active torsions:
REMARK  status: ('A' for Active; 'I' for Inactive)
REMARK    1  A    between atoms: C_1  and  C_2
REMARK    2  A    between atoms: C_3  and  C_25
REMARK    3  A    between atoms: C_4  and  N_10
REMARK    4  A    between atoms: C_6  and  C_7
REMARK    5  A    between atoms: C_11  and  C_13
REMARK    6  A    between atoms: C_13  and  N_59
REMARK    7  A    between atoms: C_17  and  C_19
REMARK    8  A    between atoms: N_23  and  C_24
REMARK    9  A    between atoms: C_25  and  O_27
REMARK   10  A    between atoms: O_27  and  C_28
REMARK   11  A    between atoms: C_28  and  C_29
REMARK   12  A    between atoms: C_29  and  O_30
REMARK   13  A    between atoms: O_30  and  C_31
REMARK                            x       y       z     vdW  Elec       q    Type
REMARK                         _______ _______ _______ _____ _____    ______ ____
ROOT
ATOM      1  C   UNL     1       0.024  11.415  -3.345  0.00  0.00    +0.046 C 
ATOM      2  C   UNL     1      -0.117  10.278  -2.366  0.00  0.00    -0.015 A 
ATOM      3  C   UNL     1      -0.241   8.967  -2.802  0.00  0.00    +0.091 A 
ATOM      4  C   UNL     1      -0.369   7.968  -1.831  0.00  0.00    +0.087 A 
ATOM      5  S   UNL     1      -0.321   8.862  -0.347  0.00  0.00    -0.068 S 
ATOM      6  C   UNL     1      -0.128  10.503  -1.016  0.00  0.00    +0.079 A 
ENDROOT
BRANCH   6   7
ATOM      7  C   UNL     1      -0.015  11.775  -0.300  0.00  0.00    +0.248 C 
ATOM      8  O   UNL     1       0.109  12.815  -0.922  0.00  0.00    -0.270 OA
ATOM      9  N   UNL     1      -0.047  11.796   1.047  0.00  0.00    -0.325 N 
ATOM     10  H   UNL     1      -0.145  10.967   1.542  0.00  0.00    +0.145 HD
ATOM     11  H   UNL     1       0.029  12.638   1.521  0.00  0.00    +0.145 HD
ENDBRANCH   6   7
BRANCH   4  12
ATOM     12  N   UNL     1      -0.505   6.606  -2.011  0.00  0.00    -0.281 N 
ATOM     13  C   UNL     1      -0.616   5.792  -0.942  0.00  0.00    +0.201 C 
ATOM     14  O   UNL     1      -0.596   6.257   0.178  0.00  0.00    -0.278 OA
ATOM     15  H   UNL     1      -0.521   6.234  -2.907  0.00  0.00    +0.155 HD
BRANCH  13  16
ATOM     16  C   UNL     1      -0.764   4.306  -1.139  0.00  0.00    +0.020 C 
BRANCH  16  21
ATOM     17  C   UNL     1      -1.929   4.268   0.999  0.00  0.00    -0.077 C 
ATOM     18  C   UNL     1      -2.247   3.173   2.048  0.00  0.00    -0.020 C 
ATOM     19  C   UNL     1      -2.132   1.867   1.229  0.00  0.00    -0.011 C 
ATOM     20  C   UNL     1      -1.249   2.226   0.020  0.00  0.00    -0.020 C 
ATOM     21  N   UNL     1      -0.878   3.632   0.190  0.00  0.00    +0.391 N 
ATOM     22  H   UNL     1       0.022   3.696   0.678  0.00  0.00    -0.080 HD
BRANCH  20  23
ATOM     23  C   UNL     1      -0.016   1.359   0.009  0.00  0.00    +0.005 A 
ATOM     24  C   UNL     1       1.259   1.798  -0.000  0.00  0.00    +0.021 A 
ATOM     25  C   UNL     1       2.095   0.664  -0.014  0.00  0.00    +0.019 A 
ATOM     26  C   UNL     1       1.299  -0.424  -0.013  0.00  0.00    +0.085 A 
ATOM     27  N   UNL     1       0.002  -0.004   0.002  0.00  0.00    -0.355 N 
ATOM     28  C   UNL     1      -1.177  -0.874   0.009  0.00  0.00    +0.148 C 
ENDBRANCH  20  23
ENDBRANCH  16  21
ENDBRANCH  13  16
ENDBRANCH   4  12
BRANCH   3  29
ATOM     29  C   UNL     1      -0.238   8.640  -4.232  0.00  0.00    +0.342 C 
ATOM     30  O   UNL     1      -1.284   8.612  -4.851  0.00  0.00    -0.245 OA
BRANCH  29  31
ATOM     31  O   UNL     1       0.924   8.370  -4.859  0.00  0.00    -0.459 OA
BRANCH  31  32
ATOM     32  C   UNL     1       0.852   8.054  -6.274  0.00  0.00    +0.260 C 
BRANCH  32  33
ATOM     33  C   UNL     1       2.259   7.778  -6.808  0.00  0.00    +0.200 C 
BRANCH  33  34
ATOM     34  O   UNL     1       2.783   6.604  -6.185  0.00  0.00    -0.380 OA
ATOM     35  C   UNL     1       4.100   6.256  -6.617  0.00  0.00    +0.194 C 
ENDBRANCH  33  34
ENDBRANCH  32  33
ENDBRANCH  31  32
ENDBRANCH  29  31
ENDBRANCH   3  29
TORSDOF 10
