REMARK  Name = ZINC31056681
REMARK  10 active torsions:
REMARK  status: ('A' for Active; 'I' for Inactive)
REMARK    1  A    between atoms: C_1  and  C_2
REMARK    2  A    between atoms: C_2  and  C_3
REMARK    3  A    between atoms: C_2  and  C_4
REMARK    4  A    between atoms: C_4  and  N_5
REMARK    5  A    between atoms: C_6  and  C_8
REMARK    6  A    between atoms: C_13  and  N_14
REMARK    7  A    between atoms: C_15  and  C_17
REMARK    8  A    between atoms: N_22  and  C_24
REMARK    9  A    between atoms: C_24  and  C_25
REMARK   10  A    between atoms: C_27  and  C_30
REMARK                            x       y       z     vdW  Elec       q    Type
REMARK                         _______ _______ _______ _____ _____    ______ ____
ROOT
ATOM      1  N   UNL     1       2.073   4.128  -0.013  0.00  0.00    -0.285 N 
ATOM      2  C   UNL     1       1.854   5.455   0.079  0.00  0.00    +0.219 C 
ATOM      3  O   UNL     1       0.730   5.872   0.262  0.00  0.00    -0.275 OA
ATOM      4  H   UNL     1       3.101   3.745  -0.090  0.00  0.00    +0.155 HD
ENDROOT
BRANCH   2   5
ATOM      5  C   UNL     1       3.005   6.419  -0.046  0.00  0.00    +0.059 C 
ATOM      6  C   UNL     1       4.028   6.140   1.059  0.00  0.00    +0.009 C 
ATOM      7  C   UNL     1       5.164   7.162   0.961  0.00  0.00    -0.018 C 
ATOM      8  C   UNL     1       4.584   8.574   1.073  0.00  0.00    -0.078 C 
ATOM      9  N   UNL     1       3.612   8.792  -0.006  0.00  0.00    +0.386 N 
ATOM     10  C   UNL     1       2.488   7.853   0.094  0.00  0.00    -0.065 C 
ATOM     11  H   UNL     1       4.124   8.602  -0.962  0.00  0.00    -0.081 HD
BRANCH   9  12
ATOM     12  C   UNL     1       3.138  10.182  -0.015  0.00  0.00    +0.022 C 
BRANCH  12  13
ATOM     13  C   UNL     1       4.281  11.101  -0.363  0.00  0.00    +0.211 A 
ATOM     14  N   UNL     1       4.632  11.482  -1.565  0.00  0.00    -0.192 NA
ATOM     15  C   UNL     1       5.698  12.298  -1.391  0.00  0.00    +0.209 A 
ATOM     16  N   UNL     1       5.933  12.355  -0.103  0.00  0.00    -0.056 NA
ATOM     17  O   UNL     1       5.128  11.674   0.497  0.00  0.00    -0.340 OA
BRANCH  15  18
ATOM     18  C   UNL     1       6.458  12.989  -2.453  0.00  0.00    +0.060 A 
ATOM     19  C   UNL     1       7.539  13.823  -2.338  0.00  0.00    +0.019 A 
ATOM     20  C   UNL     1       8.090  14.354  -3.482  0.00  0.00    +0.008 A 
ATOM     21  C   UNL     1       7.540  14.046  -4.686  0.00  0.00    +0.046 A 
ATOM     22  S   UNL     1       6.200  12.963  -4.219  0.00  0.00    -0.093 S 
ENDBRANCH  15  18
ENDBRANCH  12  13
ENDBRANCH   9  12
ENDBRANCH   2   5
BRANCH   1  28
ATOM     23  C   UNL     1       0.974   2.161  -0.903  0.00  0.00    +0.058 A 
ATOM     24  C   UNL     1      -0.111   1.280  -0.890  0.00  0.00    +0.015 A 
ATOM     25  C   UNL     1      -1.149   1.481  -0.007  0.00  0.00    +0.001 A 
ATOM     26  C   UNL     1      -1.119   2.547   0.877  0.00  0.00    +0.002 A 
ATOM     27  C   UNL     1      -0.055   3.427   0.875  0.00  0.00    +0.024 A 
ATOM     28  C   UNL     1       0.998   3.243  -0.011  0.00  0.00    +0.046 A 
BRANCH  23  30
ATOM     29  N   UNL     1       2.077   0.893  -2.679  0.00  0.00    -0.311 N 
ATOM     30  C   UNL     1       2.086   1.954  -1.849  0.00  0.00    +0.246 C 
ATOM     31  O   UNL     1       3.012   2.742  -1.880  0.00  0.00    -0.270 OA
ATOM     32  H   UNL     1       1.239   0.180  -2.651  0.00  0.00    +0.149 HD
BRANCH  29  33
ATOM     33  C   UNL     1       3.182   0.688  -3.619  0.00  0.00    +0.107 C 
BRANCH  33  35
ATOM     34  C   UNL     1       1.685  -0.381  -5.310  0.00  0.00    +0.009 C 
ATOM     35  C   UNL     1       2.927  -0.579  -4.438  0.00  0.00    -0.000 C 
ATOM     36  C   UNL     1       4.137  -0.863  -5.330  0.00  0.00    +0.009 C 
ENDBRANCH  33  35
ENDBRANCH  29  33
ENDBRANCH  23  30
ENDBRANCH   1  28
TORSDOF 8
