REMARK  Name = ZINC00889759
REMARK  8 active torsions:
REMARK  status: ('A' for Active; 'I' for Inactive)
REMARK    1  A    between atoms: C_1  and  C_2
REMARK    2  A    between atoms: C_7  and  C_15
REMARK    3  A    between atoms: C_13  and  C_14
REMARK    4  A    between atoms: C_15  and  C_17
REMARK    5  A    between atoms: C_15  and  N_29
REMARK    6  A    between atoms: N_21  and  C_22
REMARK    7  A    between atoms: C_22  and  C_23
REMARK    8  A    between atoms: C_33  and  C_36
REMARK                            x       y       z     vdW  Elec       q    Type
REMARK                         _______ _______ _______ _____ _____    ______ ____
ROOT
ATOM      1  C   UNL     1       0.096  -6.383   1.200  0.00  0.00    +0.039 C 
ENDROOT
BRANCH   1   8
ATOM      2  C   UNL     1      -0.018   1.503   0.010  0.00  0.00    +0.044 C 
ATOM      3  C   UNL     1       0.002  -0.004   0.002  0.00  0.00    -0.046 A 
ATOM      4  C   UNL     1       0.006  -0.684  -1.208  0.00  0.00    +0.004 A 
ATOM      5  C   UNL     1       0.024  -2.050  -1.238  0.00  0.00    +0.010 A 
ATOM      6  C   UNL     1       0.040  -2.769  -0.039  0.00  0.00    -0.001 A 
ATOM      7  C   UNL     1       0.060  -4.233  -0.034  0.00  0.00    +0.017 A 
ATOM      8  C   UNL     1       0.075  -4.877   1.159  0.00  0.00    +0.011 A 
ATOM      9  C   UNL     1       0.070  -4.142   2.364  0.00  0.00    +0.251 A 
ATOM     10  O   UNL     1       0.084  -4.740   3.426  0.00  0.00    -0.268 OA
ATOM     11  N   UNL     1       0.052  -2.797   2.370  0.00  0.00    -0.322 N 
ATOM     12  H   UNL     1       0.050  -2.323   3.216  0.00  0.00    +0.169 HD
ATOM     13  C   UNL     1       0.036  -2.083   1.190  0.00  0.00    +0.052 A 
ATOM     14  C   UNL     1       0.023  -0.692   1.196  0.00  0.00    -0.024 A 
ATOM     15  C   UNL     1       0.025   0.059   2.502  0.00  0.00    +0.046 C 
ENDBRANCH   1   8
BRANCH   1  16
ATOM     16  N   UNL     1      -1.028  -6.867   2.013  0.00  0.00    +0.389 N 
ATOM     17  C   UNL     1      -2.291  -6.403   1.425  0.00  0.00    -0.077 C 
ATOM     18  C   UNL     1      -3.460  -6.835   2.312  0.00  0.00    -0.018 C 
ATOM     19  C   UNL     1      -3.476  -8.363   2.418  0.00  0.00    -0.001 C 
ATOM     20  C   UNL     1      -2.127  -8.841   2.962  0.00  0.00    -0.031 C 
ATOM     21  C   UNL     1      -1.007  -8.334   2.051  0.00  0.00    -0.074 C 
ATOM     22  C   UNL     1      -2.104 -10.370   2.999  0.00  0.00    +0.005 C 
ATOM     23  H   UNL     1      -0.943  -6.506   2.951  0.00  0.00    -0.080 HD
ENDBRANCH   1  16
BRANCH   1  24
ATOM     24  C   UNL     1       1.393  -6.852   1.807  0.00  0.00    +0.143 A 
ATOM     25  N   UNL     1       1.718  -6.823   3.076  0.00  0.00    -0.115 NA
ATOM     26  N   UNL     1       2.905  -7.310   3.194  0.00  0.00    -0.023 NA
ATOM     27  N   UNL     1       3.346  -7.648   2.032  0.00  0.00    -0.044 NA
ATOM     28  N   UNL     1       2.440  -7.387   1.151  0.00  0.00    -0.228 N 
BRANCH  28  29
ATOM     29  C   UNL     1       2.535  -7.624  -0.291  0.00  0.00    +0.178 C 
BRANCH  29  30
ATOM     30  C   UNL     1       3.128  -6.389  -0.973  0.00  0.00    +0.140 C 
ATOM     31  C   UNL     1       3.321  -6.652  -2.487  0.00  0.00    +0.035 C 
ATOM     32  C   UNL     1       3.281  -5.203  -3.046  0.00  0.00    +0.031 C 
ATOM     33  C   UNL     1       2.269  -4.517  -2.103  0.00  0.00    +0.160 C 
ATOM     34  O   UNL     1       2.210  -5.287  -0.895  0.00  0.00    -0.375 OA
ENDBRANCH  29  30
ENDBRANCH  28  29
ENDBRANCH   1  24
TORSDOF 5
