REMARK  Name = ZINC52594529
REMARK  10 active torsions:
REMARK  status: ('A' for Active; 'I' for Inactive)
REMARK    1  A    between atoms: N_17  and  C_18
REMARK    2  A    between atoms: C_18  and  C_20
REMARK    3  A    between atoms: C_18  and  C_30
REMARK    4  A    between atoms: C_20  and  C_21
REMARK    5  A    between atoms: N_32  and  C_33
REMARK    6  A    between atoms: C_33  and  C_34
REMARK    7  A    between atoms: C_34  and  C_35
REMARK    8  A    between atoms: C_35  and  C_36
REMARK    9  A    between atoms: C_36  and  C_37
REMARK   10  A    between atoms: C_37  and  N_38
REMARK                            x       y       z     vdW  Elec       q    Type
REMARK                         _______ _______ _______ _____ _____    ______ ____
ROOT
ATOM      1  C   UNL     1       9.678  -1.263   1.072  0.00  0.00    +0.164 C 
ENDROOT
BRANCH   1  18
ATOM      2  C   UNL     1       0.687  -6.083  -0.054  0.00  0.00    +0.001 A 
ATOM      3  C   UNL     1       1.984  -6.565  -0.065  0.00  0.00    +0.000 A 
ATOM      4  C   UNL     1       3.052  -5.684  -0.065  0.00  0.00    +0.005 A 
ATOM      5  C   UNL     1       2.824  -4.327  -0.054  0.00  0.00    -0.030 A 
ATOM      6  C   UNL     1       1.519  -3.829  -0.043  0.00  0.00    -0.021 A 
ATOM      7  C   UNL     1       0.447  -4.725  -0.043  0.00  0.00    +0.008 A 
ATOM      8  C   UNL     1       1.571  -2.355  -0.032  0.00  0.00    +0.005 C 
ATOM      9  C   UNL     1       2.821  -1.923  -0.037  0.00  0.00    -0.015 C 
ATOM     10  C   UNL     1       3.733  -3.125  -0.052  0.00  0.00    +0.017 C 
ATOM     11  C   UNL     1       4.614  -3.132   1.196  0.00  0.00    +0.035 C 
ATOM     12  C   UNL     1       5.488  -1.873   1.209  0.00  0.00    +0.110 C 
ATOM     13  N   UNL     1       6.223  -1.796  -0.061  0.00  0.00    -0.286 N 
ATOM     14  C   UNL     1       5.469  -1.855  -1.320  0.00  0.00    +0.110 C 
ATOM     15  C   UNL     1       4.596  -3.115  -1.312  0.00  0.00    +0.035 C 
ATOM     16  C   UNL     1       7.565  -1.672  -0.070  0.00  0.00    +0.303 C 
ATOM     17  O   UNL     1       8.172  -1.704  -1.123  0.00  0.00    -0.253 OA
ATOM     18  N   UNL     1       8.235  -1.513   1.089  0.00  0.00    -0.288 N 
ATOM     19  H   UNL     1       7.761  -1.563   1.934  0.00  0.00    +0.151 HD
ENDBRANCH   1  18
BRANCH   1  20
ATOM     20  C   UNL     1      10.283  -1.719   2.375  0.00  0.00    +0.234 C 
ATOM     21  O   UNL     1       9.577  -2.205   3.233  0.00  0.00    -0.274 OA
ATOM     22  N   UNL     1      11.607  -1.587   2.587  0.00  0.00    -0.314 N 
ATOM     23  H   UNL     1      12.171  -1.198   1.901  0.00  0.00    +0.149 HD
BRANCH  22  24
ATOM     24  C   UNL     1      12.194  -2.031   3.853  0.00  0.00    +0.104 C 
BRANCH  24  25
ATOM     25  C   UNL     1      13.702  -1.770   3.836  0.00  0.00    +0.019 C 
BRANCH  25  26
ATOM     26  C   UNL     1      14.315  -2.233   5.159  0.00  0.00    -0.000 C 
BRANCH  26  27
ATOM     27  C   UNL     1      15.822  -1.972   5.141  0.00  0.00    -0.019 C 
BRANCH  27  28
ATOM     28  C   UNL     1      16.436  -2.435   6.464  0.00  0.00    -0.086 C 
BRANCH  28  29
ATOM     29  N   UNL     1      17.883  -2.184   6.447  0.00  0.00    +0.378 N 
ATOM     30  H   UNL     1      18.304  -2.694   5.685  0.00  0.00    -0.090 HD
ATOM     31  H   UNL     1      18.052  -1.197   6.326  0.00  0.00    -0.090 HD
ATOM     32  H   UNL     1      18.288  -2.490   7.320  0.00  0.00    -0.090 HD
ENDBRANCH  28  29
ENDBRANCH  27  28
ENDBRANCH  26  27
ENDBRANCH  25  26
ENDBRANCH  24  25
ENDBRANCH  22  24
ENDBRANCH   1  20
BRANCH   1  33
ATOM     33  C   UNL     1       9.935   0.234   0.888  0.00  0.00    +0.065 C 
BRANCH  33  34
ATOM     34  C   UNL     1       9.440   0.666  -0.469  0.00  0.00    -0.039 C 
ATOM     35  C   UNL     1       8.236   1.209  -0.760  0.00  0.00    -0.001 A 
ATOM     36  C   UNL     1       7.071   1.547   0.067  0.00  0.00    +0.010 A 
ATOM     37  C   UNL     1       5.983   2.092  -0.523  0.00  0.00    +0.001 A 
ATOM     38  C   UNL     1       5.940   2.341  -1.902  0.00  0.00    +0.002 A 
ATOM     39  C   UNL     1       6.971   2.058  -2.727  0.00  0.00    +0.026 A 
ATOM     40  C   UNL     1       8.165   1.483  -2.213  0.00  0.00    +0.043 A 
ATOM     41  N   UNL     1       9.282   1.123  -2.797  0.00  0.00    -0.380 N 
ATOM     42  C   UNL     1      10.191   0.585  -1.779  0.00  0.00    +0.144 C 
ATOM     43  H   UNL     1       9.477   1.202  -3.744  0.00  0.00    +0.160 HD
ENDBRANCH  33  34
ENDBRANCH   1  33
TORSDOF 10
