REMARK  Name = ZINC21034482
REMARK  9 active torsions:
REMARK  status: ('A' for Active; 'I' for Inactive)
REMARK    1  A    between atoms: C_1  and  C_2
REMARK    2  A    between atoms: C_2  and  C_3
REMARK    3  A    between atoms: C_2  and  C_4
REMARK    4  A    between atoms: C_4  and  C_5
REMARK    5  A    between atoms: C_8  and  S_11
REMARK    6  A    between atoms: S_11  and  N_14
REMARK    7  A    between atoms: N_14  and  C_15
REMARK    8  A    between atoms: C_24  and  O_25
REMARK    9  A    between atoms: N_26  and  C_27
REMARK                            x       y       z     vdW  Elec       q    Type
REMARK                         _______ _______ _______ _____ _____    ______ ____
ROOT
ATOM      1  C   UNL     1      -7.758   2.074   2.592  0.00  0.00    +0.152 A 
ATOM      2  C   UNL     1      -8.007   2.597   3.847  0.00  0.00    +0.076 A 
ATOM      3  C   UNL     1      -7.938   4.058   4.010  0.00  0.00    +0.042 A 
ATOM      4  C   UNL     1      -8.175   4.656   5.249  0.00  0.00    +0.013 A 
ATOM      5  C   UNL     1      -8.108   6.026   5.368  0.00  0.00    +0.001 A 
ATOM      6  C   UNL     1      -7.808   6.810   4.264  0.00  0.00    +0.004 A 
ATOM      7  C   UNL     1      -7.573   6.233   3.034  0.00  0.00    +0.047 A 
ATOM      8  C   UNL     1      -7.635   4.852   2.893  0.00  0.00    +0.141 A 
ATOM      9  O   UNL     1      -7.407   4.274   1.694  0.00  0.00    -0.424 OA
ATOM     10  C   UNL     1      -7.460   2.943   1.526  0.00  0.00    +0.310 A 
ATOM     11  N   UNL     1      -8.308   1.773   4.918  0.00  0.00    -0.380 N 
ATOM     12  H   UNL     1      -7.521   1.492   5.633  0.00  0.00    +0.160 HD
ENDROOT
BRANCH  11  13
ATOM     13  C   UNL     1      -9.727   1.393   4.907  0.00  0.00    +0.079 C 
ATOM     14  C   UNL     1     -10.560   2.514   5.532  0.00  0.00    +0.024 C 
ATOM     15  C   UNL     1     -12.038   2.119   5.521  0.00  0.00    +0.002 C 
ATOM     16  C   UNL     1     -12.227   0.833   6.327  0.00  0.00    +0.000 C 
ATOM     17  C   UNL     1     -11.394  -0.289   5.703  0.00  0.00    +0.002 C 
ATOM     18  C   UNL     1      -9.916   0.107   5.714  0.00  0.00    +0.024 C 
ENDBRANCH  11  13
BRANCH   1  19
ATOM     19  N   UNL     1      -7.806   0.684   2.381  0.00  0.00    -0.208 N 
ATOM     20  H   UNL     1      -8.735   0.129   2.581  0.00  0.00    +0.174 HD
BRANCH  19  21
ATOM     21  S   UNL     1      -6.465  -0.117   1.830  0.00  0.00    +0.073 S 
ATOM     22  O   UNL     1      -6.032   0.570   0.665  0.00  0.00    -0.150 OA
ATOM     23  O   UNL     1      -6.793  -1.500   1.822  0.00  0.00    -0.150 OA
BRANCH  21  27
ATOM     24  C   UNL     1      -3.215   0.421   4.934  0.00  0.00    -0.047 A 
ATOM     25  C   UNL     1      -3.283   1.275   3.849  0.00  0.00    +0.005 A 
ATOM     26  C   UNL     1      -4.273   1.108   2.899  0.00  0.00    +0.029 A 
ATOM     27  C   UNL     1      -5.200   0.092   3.039  0.00  0.00    +0.109 A 
ATOM     28  C   UNL     1      -5.136  -0.758   4.126  0.00  0.00    +0.029 A 
ATOM     29  C   UNL     1      -4.143  -0.594   5.074  0.00  0.00    +0.005 A 
BRANCH  24  30
ATOM     30  C   UNL     1      -2.132   0.600   5.967  0.00  0.00    +0.038 C 
BRANCH  30  32
ATOM     31  C   UNL     1      -1.263  -1.715   5.612  0.00  0.00    +0.007 C 
ATOM     32  C   UNL     1      -0.908  -0.228   5.572  0.00  0.00    -0.013 C 
ATOM     33  C   UNL     1       0.234   0.050   6.552  0.00  0.00    +0.007 C 
ENDBRANCH  30  32
ENDBRANCH  24  30
ENDBRANCH  21  27
ENDBRANCH  19  21
ENDBRANCH   1  19
BRANCH  10  34
ATOM     34  O   UNL     1      -7.246   2.475   0.421  0.00  0.00    -0.479 OA
ATOM     35  H   UNL     1      -7.012   3.141  -0.422  0.00  0.00    +0.295 HD
ENDBRANCH  10  34
TORSDOF 7
