REMARK  Name = ZINC65182717
REMARK  9 active torsions:
REMARK  status: ('A' for Active; 'I' for Inactive)
REMARK    1  A    between atoms: C_1  and  C_2
REMARK    2  A    between atoms: C_7  and  C_13
REMARK    3  A    between atoms: C_9  and  C_12
REMARK    4  A    between atoms: C_16  and  C_19
REMARK    5  A    between atoms: C_19  and  C_20
REMARK    6  A    between atoms: C_20  and  N_21
REMARK    7  A    between atoms: N_21  and  C_22
REMARK    8  A    between atoms: C_23  and  C_25
REMARK    9  A    between atoms: C_28  and  C_30
REMARK                            x       y       z     vdW  Elec       q    Type
REMARK                         _______ _______ _______ _____ _____    ______ ____
ROOT
ATOM      1  C   UNL     1      -0.782  -5.536   1.004  0.00  0.00    +0.318 C 
ATOM      2  N   UNL     1      -1.024  -6.909   0.533  0.00  0.00    -0.291 N 
ATOM      3  C   UNL     1      -0.947  -7.727   1.636  0.00  0.00    +0.139 C 
ATOM      4  N   UNL     1      -0.695  -7.058   2.702  0.00  0.00    -0.072 NA
ATOM      5  O   UNL     1      -0.575  -5.674   2.419  0.00  0.00    -0.367 OA
ATOM      6  H   UNL     1      -1.204  -7.184  -0.379  0.00  0.00    +0.151 HD
ENDROOT
BRANCH   1  13
ATOM      7  C   UNL     1       0.795   0.693  -1.923  0.00  0.00    +0.044 C 
ATOM      8  C   UNL     1       0.650  -0.794  -1.720  0.00  0.00    -0.050 A 
ATOM      9  C   UNL     1       0.387  -1.611  -2.828  0.00  0.00    +0.005 A 
ATOM     10  C   UNL     1       0.244  -2.950  -2.728  0.00  0.00    +0.026 A 
ATOM     11  C   UNL     1       0.356  -3.593  -1.465  0.00  0.00    +0.043 A 
ATOM     12  N   UNL     1       0.259  -4.853  -1.115  0.00  0.00    -0.373 N 
ATOM     13  C   UNL     1       0.464  -4.952   0.335  0.00  0.00    +0.168 C 
ATOM     14  C   UNL     1       0.703  -3.539   0.818  0.00  0.00    -0.036 C 
ATOM     15  C   UNL     1       0.633  -2.751  -0.279  0.00  0.00    -0.001 A 
ATOM     16  C   UNL     1       0.781  -1.304  -0.474  0.00  0.00    +0.013 A 
ATOM     17  C   UNL     1       0.966  -3.099   2.235  0.00  0.00    +0.042 C 
ATOM     18  H   UNL     1       0.081  -5.595  -1.714  0.00  0.00    +0.160 HD
ENDBRANCH   1  13
BRANCH   3  19
ATOM     19  C   UNL     1      -1.135  -9.222   1.598  0.00  0.00    +0.094 C 
BRANCH  19  20
ATOM     20  C   UNL     1      -0.978  -9.792   3.009  0.00  0.00    +0.115 C 
BRANCH  20  21
ATOM     21  N   UNL     1      -1.161 -11.245   2.971  0.00  0.00    -0.300 N 
ATOM     22  C   UNL     1      -0.008 -12.123   2.753  0.00  0.00    +0.132 C 
ATOM     23  C   UNL     1      -2.389 -11.775   3.137  0.00  0.00    +0.253 C 
ATOM     24  O   UNL     1      -3.360 -11.046   3.214  0.00  0.00    -0.269 OA
BRANCH  23  25
ATOM     25  C   UNL     1      -2.554 -13.228   3.226  0.00  0.00    +0.074 A 
ATOM     26  C   UNL     1      -3.723 -13.973   3.276  0.00  0.00    +0.021 A 
ATOM     27  C   UNL     1      -3.559 -15.335   3.357  0.00  0.00    +0.011 A 
ATOM     28  C   UNL     1      -2.304 -15.848   3.383  0.00  0.00    -0.013 A 
ATOM     29  S   UNL     1      -1.306 -14.500   3.289  0.00  0.00    -0.089 S 
ATOM     30  C   UNL     1      -1.897 -17.297   3.468  0.00  0.00    +0.051 C 
ENDBRANCH  23  25
ENDBRANCH  20  21
ENDBRANCH  19  20
ENDBRANCH   3  19
TORSDOF 5
