REMARK  Name = ZINC09018550
REMARK  7 active torsions:
REMARK  status: ('A' for Active; 'I' for Inactive)
REMARK    1  A    between atoms: C_1  and  C_2
REMARK    2  A    between atoms: C_8  and  C_10
REMARK    3  A    between atoms: C_10  and  S_11
REMARK    4  A    between atoms: S_11  and  C_12
REMARK    5  A    between atoms: C_17  and  C_23
REMARK    6  A    between atoms: C_23  and  C_24
REMARK    7  A    between atoms: C_23  and  C_25
REMARK                            x       y       z     vdW  Elec       q    Type
REMARK                         _______ _______ _______ _____ _____    ______ ____
ROOT
ATOM      1  C   UNL     1      -0.401   0.619  -2.672  0.00  0.00    +0.198 A 
ATOM      2  N   UNL     1       0.479  -0.339  -2.515  0.00  0.00    -0.120 NA
ATOM      3  N   UNL     1       0.866  -0.790  -3.784  0.00  0.00    -0.109 NA
ATOM      4  C   UNL     1       0.209  -0.093  -4.680  0.00  0.00    +0.237 A 
ATOM      5  N   UNL     1      -0.598   0.795  -4.016  0.00  0.00    -0.260 N 
ATOM      6  C   UNL     1      -1.400   1.662  -4.722  0.00  0.00    +0.037 A 
ATOM      7  C   UNL     1      -1.404   1.636  -6.067  0.00  0.00    +0.092 A 
ATOM      8  C   UNL     1      -0.576   0.717  -6.759  0.00  0.00    +0.253 A 
ATOM      9  O   UNL     1      -0.576   0.691  -7.976  0.00  0.00    -0.268 OA
ATOM     10  N   UNL     1       0.213  -0.128  -6.064  0.00  0.00    -0.291 N 
ATOM     11  H   UNL     1       0.781  -0.759  -6.533  0.00  0.00    +0.172 HD
ENDROOT
BRANCH   6  12
ATOM     12  C   UNL     1      -2.280   2.639  -3.987  0.00  0.00    +0.030 C 
ATOM     13  C   UNL     1      -1.435   3.813  -3.489  0.00  0.00    +0.013 C 
ATOM     14  C   UNL     1      -3.366   3.158  -4.931  0.00  0.00    +0.013 C 
ENDBRANCH   6  12
BRANCH   1  15
ATOM     15  S   UNL     1      -1.197   1.517  -1.382  0.00  0.00    -0.076 S 
BRANCH  15  16
ATOM     16  C   UNL     1      -0.511   0.803   0.138  0.00  0.00    +0.173 C 
BRANCH  16  24
ATOM     17  C   UNL     1       1.860   1.627   5.899  0.00  0.00    +0.007 C 
ATOM     18  C   UNL     1       0.742   1.131   4.979  0.00  0.00    -0.011 C 
ATOM     19  C   UNL     1      -0.198   2.292   4.647  0.00  0.00    +0.022 C 
ATOM     20  C   UNL     1      -1.334   1.784   3.754  0.00  0.00    +0.108 C 
ATOM     21  N   UNL     1      -0.753   1.123   2.578  0.00  0.00    -0.301 N 
ATOM     22  C   UNL     1       0.228   0.048   2.785  0.00  0.00    +0.108 C 
ATOM     23  C   UNL     1       1.351   0.579   3.688  0.00  0.00    +0.022 C 
ATOM     24  C   UNL     1      -1.116   1.491   1.334  0.00  0.00    +0.226 C 
ATOM     25  O   UNL     1      -1.931   2.376   1.177  0.00  0.00    -0.275 OA
ENDBRANCH  16  24
ENDBRANCH  15  16
ENDBRANCH   1  15
TORSDOF 4
