REMARK  Name = ZINC11911481
REMARK  7 active torsions:
REMARK  status: ('A' for Active; 'I' for Inactive)
REMARK    1  A    between atoms: C_6  and  C_10
REMARK    2  A    between atoms: C_10  and  N_11
REMARK    3  A    between atoms: C_12  and  C_14
REMARK    4  A    between atoms: C_17  and  S_29
REMARK    5  A    between atoms: C_20  and  C_21
REMARK    6  A    between atoms: C_20  and  N_58
REMARK    7  A    between atoms: S_29  and  C_30
REMARK                            x       y       z     vdW  Elec       q    Type
REMARK                         _______ _______ _______ _____ _____    ______ ____
ROOT
ATOM      1  C   UNL     1       1.371   5.544   1.450  0.00  0.00    +0.021 C 
ATOM      2  C   UNL     1       0.828   5.970   2.831  0.00  0.00    +0.006 C 
ATOM      3  C   UNL     1      -0.190   4.876   3.216  0.00  0.00    +0.034 C 
ATOM      4  C   UNL     1      -0.175   3.882   2.034  0.00  0.00    -0.063 C 
ATOM      5  N   UNL     1       1.138   4.103   1.418  0.00  0.00    +0.391 N 
ATOM      6  H   UNL     1       1.865   3.617   1.957  0.00  0.00    -0.080 HD
ENDROOT
BRANCH   1   8
ATOM      7  N   UNL     1       3.258   7.142   1.371  0.00  0.00    -0.311 N 
ATOM      8  C   UNL     1       2.841   5.861   1.344  0.00  0.00    +0.200 C 
ATOM      9  O   UNL     1       3.648   4.963   1.234  0.00  0.00    -0.278 OA
ATOM     10  H   UNL     1       2.612   7.861   1.459  0.00  0.00    +0.149 HD
BRANCH   7  11
ATOM     11  C   UNL     1       4.686   7.450   1.267  0.00  0.00    +0.161 C 
BRANCH  11  17
ATOM     12  C   UNL     1       5.337  13.386   0.732  0.00  0.00    +0.005 A 
ATOM     13  C   UNL     1       5.574  13.308   2.115  0.00  0.00    +0.018 A 
ATOM     14  C   UNL     1       5.536  12.115   2.745  0.00  0.00    +0.092 A 
ATOM     15  N   UNL     1       5.268  10.971   2.052  0.00  0.00    -0.306 N 
ATOM     16  C   UNL     1       5.172   9.660   2.431  0.00  0.00    +0.117 A 
ATOM     17  C   UNL     1       4.884   8.943   1.323  0.00  0.00    +0.077 A 
ATOM     18  N   UNL     1       4.809   9.778   0.283  0.00  0.00    -0.231 NA
ATOM     19  C   UNL     1       5.033  11.015   0.702  0.00  0.00    +0.138 A 
ATOM     20  C   UNL     1       5.068  12.253   0.029  0.00  0.00    +0.047 A 
ENDBRANCH  11  17
ENDBRANCH   7  11
ENDBRANCH   1   8
BRANCH   5  21
ATOM     21  C   UNL     1       1.147   3.594   0.010  0.00  0.00    -0.042 C 
BRANCH  21  22
ATOM     22  C   UNL     1       1.170   2.087   0.002  0.00  0.00    -0.061 A 
ATOM     23  C   UNL     1      -0.017   1.378   0.010  0.00  0.00    +0.005 A 
ATOM     24  C   UNL     1       0.002  -0.004   0.002  0.00  0.00    +0.041 A 
ATOM     25  C   UNL     1       1.210  -0.680  -0.013  0.00  0.00    +0.158 A 
ATOM     26  C   UNL     1       2.400   0.031  -0.021  0.00  0.00    +0.159 A 
ATOM     27  C   UNL     1       2.378   1.415  -0.013  0.00  0.00    +0.043 A 
ATOM     28  F   UNL     1       3.580  -0.626  -0.036  0.00  0.00    -0.202 F 
ATOM     29  F   UNL     1       1.229  -2.031  -0.020  0.00  0.00    -0.202 F 
ENDBRANCH  21  22
ENDBRANCH   5  21
BRANCH   3  30
ATOM     30  S   UNL     1      -1.843   5.595   3.414  0.00  0.00    -0.124 S 
BRANCH  30  31
ATOM     31  C   UNL     1      -2.827   4.251   3.988  0.00  0.00    +0.008 A 
ATOM     32  C   UNL     1      -2.255   2.998   4.172  0.00  0.00    +0.017 A 
ATOM     33  C   UNL     1      -3.026   1.948   4.628  0.00  0.00    +0.039 A 
ATOM     34  C   UNL     1      -4.372   2.139   4.890  0.00  0.00    +0.123 A 
ATOM     35  C   UNL     1      -4.947   3.385   4.702  0.00  0.00    +0.039 A 
ATOM     36  C   UNL     1      -4.178   4.440   4.252  0.00  0.00    +0.017 A 
ATOM     37  F   UNL     1      -5.127   1.108   5.330  0.00  0.00    -0.205 F 
ENDBRANCH  30  31
ENDBRANCH   3  30
TORSDOF 7
