REMARK  Name = ZINC05264245
REMARK  8 active torsions:
REMARK  status: ('A' for Active; 'I' for Inactive)
REMARK    1  A    between atoms: C_1  and  C_2
REMARK    2  A    between atoms: C_3  and  C_26
REMARK    3  A    between atoms: C_4  and  C_21
REMARK    4  A    between atoms: C_6  and  C_19
REMARK    5  A    between atoms: C_7  and  S_9
REMARK    6  A    between atoms: S_9  and  C_10
REMARK    7  A    between atoms: C_10  and  C_11
REMARK    8  A    between atoms: C_14  and  C_17
REMARK                            x       y       z     vdW  Elec       q    Type
REMARK                         _______ _______ _______ _____ _____    ______ ____
ROOT
ATOM      1  C   UNL     1      -1.338   2.088   0.020  0.00  0.00    +0.061 C 
ATOM      2  C   UNL     1      -0.017   1.364   0.009  0.00  0.00    +0.015 C 
ATOM      3  C   UNL     1       1.124   2.072   0.002  0.00  0.00    +0.046 C 
ATOM      4  C   UNL     1       2.469   1.403  -0.004  0.00  0.00    +0.134 C 
ATOM      5  C   UNL     1       2.345  -0.043  -0.394  0.00  0.00    +0.072 C 
ATOM      6  C   UNL     1       1.143  -0.679  -0.373  0.00  0.00    +0.080 C 
ATOM      7  N   UNL     1       0.002  -0.004   0.002  0.00  0.00    -0.312 N 
ATOM      8  H   UNL     1      -0.895  -0.568   0.296  0.00  0.00    +0.152 HD
ENDROOT
BRANCH   4   9
ATOM      9  C   UNL     1       3.073   1.495   1.373  0.00  0.00    +0.118 A 
ATOM     10  C   UNL     1       4.225   2.116   1.687  0.00  0.00    +0.045 A 
ATOM     11  C   UNL     1       4.410   1.957   3.079  0.00  0.00    +0.041 A 
ATOM     12  C   UNL     1       3.360   1.248   3.533  0.00  0.00    +0.195 A 
ATOM     13  O   UNL     1       2.551   0.976   2.496  0.00  0.00    -0.467 OA
ENDBRANCH   4   9
BRANCH   3  14
ATOM     14  C   UNL     1       1.058   3.486   0.002  0.00  0.00    +0.240 C 
ATOM     15  O   UNL     1      -0.023   4.045   0.007  0.00  0.00    -0.271 OA
ATOM     16  N   UNL     1       2.193   4.213  -0.006  0.00  0.00    -0.326 N 
ATOM     17  H   UNL     1       2.142   5.312  -0.006  0.00  0.00    +0.145 HD
ATOM     18  H   UNL     1       3.170   3.708  -0.011  0.00  0.00    +0.145 HD
ENDBRANCH   3  14
BRANCH   5  19
ATOM     19  C   UNL     1       3.514  -0.765  -0.795  0.00  0.00    +0.098 C 
ATOM     20  N   UNL     1       4.442  -1.338  -1.114  0.00  0.00    -0.191 NA
ENDBRANCH   5  19
BRANCH   6  21
ATOM     21  S   UNL     1       1.044  -2.378  -0.828  0.00  0.00    -0.104 S 
BRANCH  21  22
ATOM     22  C   UNL     1      -0.731  -2.658  -0.613  0.00  0.00    +0.110 C 
BRANCH  22  23
ATOM     23  C   UNL     1      -1.059  -4.089  -0.955  0.00  0.00    -0.037 A 
ATOM     24  C   UNL     1      -1.403  -4.425  -2.253  0.00  0.00    +0.006 A 
ATOM     25  C   UNL     1      -1.699  -5.733  -2.574  0.00  0.00    +0.019 A 
ATOM     26  C   UNL     1      -1.663  -6.717  -1.585  0.00  0.00    +0.052 A 
ATOM     27  C   UNL     1      -1.321  -6.370  -0.276  0.00  0.00    +0.019 A 
ATOM     28  C   UNL     1      -1.021  -5.059   0.030  0.00  0.00    +0.006 A 
BRANCH  26  29
ATOM     29  C   UNL     1      -1.974  -8.077  -1.910  0.00  0.00    +0.099 C 
ATOM     30  N   UNL     1      -2.221  -9.155  -2.168  0.00  0.00    -0.191 NA
ENDBRANCH  26  29
ENDBRANCH  22  23
ENDBRANCH  21  22
ENDBRANCH   6  21
TORSDOF 7
