REMARK  Name = ZINC39791894
REMARK  7 active torsions:
REMARK  status: ('A' for Active; 'I' for Inactive)
REMARK    1  A    between atoms: C_1  and  C_2
REMARK    2  A    between atoms: C_3  and  C_25
REMARK    3  A    between atoms: C_4  and  S_9
REMARK    4  A    between atoms: S_9  and  C_10
REMARK    5  A    between atoms: C_10  and  C_11
REMARK    6  A    between atoms: C_12  and  C_24
REMARK    7  A    between atoms: N_14  and  C_18
REMARK                            x       y       z     vdW  Elec       q    Type
REMARK                         _______ _______ _______ _____ _____    ______ ____
ROOT
ATOM      1  C   UNL     1       0.064  -5.717  -3.246  0.00  0.00    -0.005 C 
ATOM      2  C   UNL     1       1.095  -6.404  -3.690  0.00  0.00    +0.022 C 
ATOM      3  N   UNL     1       0.769  -7.164  -4.797  0.00  0.00    -0.267 N 
ATOM      4  N   UNL     1      -0.580  -6.982  -5.133  0.00  0.00    -0.231 N 
ATOM      5  C   UNL     1      -1.115  -6.037  -4.138  0.00  0.00    +0.213 C 
ATOM      6 CL   UNL     1      -2.438  -6.804  -3.183  0.00  0.00    -0.094 Cl
ATOM      7  C   UNL     1       2.466  -6.366  -3.066  0.00  0.00    +0.062 C 
ATOM      8  H   UNL     1       1.386  -7.740  -5.275  0.00  0.00    +0.170 HD
ENDROOT
BRANCH   4   9
ATOM      9  C   UNL     1      -1.274  -7.579  -6.188  0.00  0.00    +0.050 A 
ATOM     10  C   UNL     1      -2.617  -7.288  -6.390  0.00  0.00    +0.025 A 
ATOM     11  C   UNL     1      -3.300  -7.879  -7.435  0.00  0.00    +0.002 A 
ATOM     12  C   UNL     1      -2.649  -8.761  -8.278  0.00  0.00    +0.000 A 
ATOM     13  C   UNL     1      -1.312  -9.053  -8.079  0.00  0.00    +0.002 A 
ATOM     14  C   UNL     1      -0.622  -8.460  -7.040  0.00  0.00    +0.025 A 
ENDBRANCH   4   9
BRANCH   1  15
ATOM     15  C   UNL     1       0.057  -4.787  -2.060  0.00  0.00    +0.111 C 
BRANCH  15  16
ATOM     16  S   UNL     1       0.031  -3.068  -2.640  0.00  0.00    -0.100 S 
BRANCH  16  20
ATOM     17  C   UNL     1      -0.018   1.503   0.010  0.00  0.00    +0.067 C 
ATOM     18  C   UNL     1       0.002  -0.004   0.002  0.00  0.00    +0.064 A 
ATOM     19  C   UNL     1       0.006  -0.706  -1.207  0.00  0.00    +0.105 A 
ATOM     20  C   UNL     1       0.025  -2.118  -1.157  0.00  0.00    +0.122 A 
ATOM     21  N   UNL     1       0.039  -2.715   0.030  0.00  0.00    -0.184 NA
ATOM     22  C   UNL     1       0.035  -2.005   1.146  0.00  0.00    +0.369 A 
ATOM     23  O   UNL     1       0.049  -2.653   2.334  0.00  0.00    -0.243 OA
ATOM     24  N   UNL     1       0.022  -0.680   1.137  0.00  0.00    -0.195 NA
BRANCH  19  25
ATOM     25  C   UNL     1      -0.010  -0.014  -2.461  0.00  0.00    +0.104 C 
ATOM     26  N   UNL     1      -0.022   0.535  -3.455  0.00  0.00    -0.191 NA
ENDBRANCH  19  25
ENDBRANCH  16  20
ENDBRANCH  15  16
ENDBRANCH   1  15
TORSDOF 5
