REMARK  Name = ZINC66825715
REMARK  6 active torsions:
REMARK  status: ('A' for Active; 'I' for Inactive)
REMARK    1  A    between atoms: C_1  and  C_2
REMARK    2  A    between atoms: C_3  and  C_17
REMARK    3  A    between atoms: N_6  and  C_7
REMARK    4  A    between atoms: N_19  and  C_20
REMARK    5  A    between atoms: C_20  and  C_21
REMARK    6  A    between atoms: N_25  and  C_27
REMARK                            x       y       z     vdW  Elec       q    Type
REMARK                         _______ _______ _______ _____ _____    ______ ____
ROOT
ATOM      1  C   UNL     1      -0.391   1.470   0.054  0.00  0.00    +0.068 C 
ATOM      2  C   UNL     1      -0.158  -0.018   0.021  0.00  0.00    +0.074 A 
ATOM      3  C   UNL     1      -0.179  -0.821  -1.084  0.00  0.00    +0.170 A 
ATOM      4  N   UNL     1       0.076  -2.083  -0.698  0.00  0.00    -0.124 NA
ATOM      5  N   UNL     1       0.254  -2.117   0.577  0.00  0.00    -0.060 NA
ATOM      6  N   UNL     1       0.118  -0.814   1.077  0.00  0.00    -0.216 N 
ENDROOT
BRANCH   6   7
ATOM      7  C   UNL     1       0.241  -0.416   2.413  0.00  0.00    +0.076 A 
ATOM      8  C   UNL     1       1.022   0.670   2.745  0.00  0.00    +0.028 A 
ATOM      9  C   UNL     1       1.150   1.072   4.071  0.00  0.00    +0.004 A 
ATOM     10  C   UNL     1       0.511   0.408   5.074  0.00  0.00    +0.028 A 
ATOM     11  C   UNL     1      -0.295  -0.705   4.778  0.00  0.00    +0.073 A 
ATOM     12  C   UNL     1      -0.436  -1.118   3.430  0.00  0.00    +0.026 A 
ATOM     13  C   UNL     1      -1.247  -2.228   3.137  0.00  0.00    +0.013 A 
ATOM     14  C   UNL     1      -1.873  -2.861   4.174  0.00  0.00    +0.020 A 
ATOM     15  C   UNL     1      -1.697  -2.401   5.477  0.00  0.00    +0.111 A 
ATOM     16  N   UNL     1      -0.930  -1.372   5.747  0.00  0.00    -0.255 NA
ENDBRANCH   6   7
BRANCH   3  17
ATOM     17  C   UNL     1      -0.438  -0.378  -2.467  0.00  0.00    +0.266 C 
ATOM     18  O   UNL     1      -0.658   0.795  -2.699  0.00  0.00    -0.268 OA
ATOM     19  N   UNL     1      -0.430  -1.274  -3.474  0.00  0.00    -0.310 N 
ATOM     20  H   UNL     1      -0.254  -2.210  -3.289  0.00  0.00    +0.149 HD
BRANCH  19  21
ATOM     21  C   UNL     1      -0.687  -0.834  -4.848  0.00  0.00    +0.106 C 
BRANCH  21  22
ATOM     22  C   UNL     1      -0.621  -2.038  -5.789  0.00  0.00    -0.012 C 
ATOM     23  C   UNL     1      -1.812  -2.992  -5.542  0.00  0.00    -0.015 C 
ATOM     24  C   UNL     1      -2.249  -3.462  -6.942  0.00  0.00    -0.078 C 
ATOM     25  N   UNL     1      -1.334  -2.830  -7.917  0.00  0.00    +0.382 N 
ATOM     26  C   UNL     1      -0.826  -1.596  -7.260  0.00  0.00    -0.074 C 
ATOM     27  H   UNL     1      -0.566  -3.451  -8.126  0.00  0.00    -0.081 HD
BRANCH  25  28
ATOM     28  C   UNL     1      -2.061  -2.489  -9.147  0.00  0.00    -0.069 C 
ATOM     29  C   UNL     1      -1.696  -3.256 -10.419  0.00  0.00    -0.017 C 
ATOM     30  C   UNL     1      -1.276  -1.793 -10.261  0.00  0.00    -0.017 C 
ENDBRANCH  25  28
ENDBRANCH  21  22
ENDBRANCH  19  21
ENDBRANCH   3  17
TORSDOF 5
