REMARK  Name = ZINC39732240
REMARK  16 active torsions:
REMARK  status: ('A' for Active; 'I' for Inactive)
REMARK    1  A    between atoms: C_1  and  C_2
REMARK    2  A    between atoms: C_2  and  C_3
REMARK    3  A    between atoms: C_4  and  C_36
REMARK    4  A    between atoms: C_12  and  S_13
REMARK    5  A    between atoms: S_13  and  C_14
REMARK    6  A    between atoms: C_14  and  C_15
REMARK    7  A    between atoms: N_17  and  C_18
REMARK    8  A    between atoms: C_20  and  C_31
REMARK    9  A    between atoms: C_22  and  C_30
REMARK   10  A    between atoms: C_23  and  C_25
REMARK   11  A    between atoms: C_25  and  O_27
REMARK   12  A    between atoms: O_27  and  C_28
REMARK   13  A    between atoms: C_28  and  C_29
REMARK   14  A    between atoms: C_31  and  O_33
REMARK   15  A    between atoms: O_33  and  C_34
REMARK   16  A    between atoms: C_34  and  C_35
REMARK                            x       y       z     vdW  Elec       q    Type
REMARK                         _______ _______ _______ _____ _____    ______ ____
ROOT
ATOM      1  C   UNL     1       7.901  -2.364  -1.704  0.00  0.00    +0.224 C 
ATOM      2  O   UNL     1       7.864  -2.059  -0.530  0.00  0.00    -0.275 OA
ATOM      3  N   UNL     1       9.056  -2.784  -2.255  0.00  0.00    -0.301 N 
ATOM      4  H   UNL     1       9.085  -3.028  -3.193  0.00  0.00    +0.150 HD
ENDROOT
BRANCH   3   5
ATOM      5  C   UNL     1      10.268  -2.874  -1.437  0.00  0.00    +0.154 C 
ATOM      6  C   UNL     1      10.966  -4.248  -1.605  0.00  0.00    +0.155 C 
ATOM      7  C   UNL     1      11.519  -4.728  -0.302  0.00  0.00    -0.036 C 
ATOM      8  C   UNL     1      11.069  -4.196   0.837  0.00  0.00    +0.094 C 
ATOM      9  S   UNL     1       9.865  -2.969   0.358  0.00  0.00    -0.095 S 
ATOM     10  C   UNL     1      12.573  -5.804  -0.273  0.00  0.00    +0.041 C 
BRANCH   8  11
ATOM     11  C   UNL     1      11.483  -4.548   2.208  0.00  0.00    +0.346 C 
ATOM     12  O   UNL     1      12.321  -5.409   2.387  0.00  0.00    -0.244 OA
BRANCH  11  13
ATOM     13  O   UNL     1      10.932  -3.914   3.262  0.00  0.00    -0.461 OA
BRANCH  13  14
ATOM     14  C   UNL     1      11.380  -4.306   4.561  0.00  0.00    +0.229 C 
ATOM     15  C   UNL     1      10.647  -3.483   5.623  0.00  0.00    +0.048 C 
ENDBRANCH  13  14
ENDBRANCH  11  13
ENDBRANCH   8  11
BRANCH   6  16
ATOM     16  C   UNL     1       9.967  -5.253  -2.118  0.00  0.00    +0.317 C 
ATOM     17  O   UNL     1       8.825  -4.916  -2.327  0.00  0.00    -0.250 OA
BRANCH  16  18
ATOM     18  O   UNL     1      10.345  -6.521  -2.342  0.00  0.00    -0.464 OA
BRANCH  18  19
ATOM     19  C   UNL     1       9.345  -7.420  -2.828  0.00  0.00    +0.229 C 
ATOM     20  C   UNL     1       9.958  -8.808  -3.021  0.00  0.00    +0.048 C 
ENDBRANCH  18  19
ENDBRANCH  16  18
ENDBRANCH   6  16
ENDBRANCH   3   5
BRANCH   1  21
ATOM     21  C   UNL     1       6.654  -2.272  -2.545  0.00  0.00    +0.173 C 
BRANCH  21  22
ATOM     22  S   UNL     1       5.277  -1.678  -1.523  0.00  0.00    -0.076 S 
BRANCH  22  32
ATOM     23  C   UNL     1       0.707  -0.490  -1.238  0.00  0.00    +0.038 A 
ATOM     24  C   UNL     1       2.022  -0.801  -1.197  0.00  0.00    +0.034 A 
ATOM     25  N   UNL     1       2.636  -1.239  -2.337  0.00  0.00    -0.259 N 
ATOM     26  C   UNL     1       1.920  -1.361  -3.508  0.00  0.00    +0.260 A 
ATOM     27  N   UNL     1       0.616  -1.050  -3.537  0.00  0.00    -0.171 NA
ATOM     28  C   UNL     1      -0.000  -0.630  -2.451  0.00  0.00    +0.278 A 
ATOM     29  O   UNL     1      -1.319  -0.327  -2.500  0.00  0.00    -0.265 OA
ATOM     30  N   UNL     1       2.763  -1.798  -4.425  0.00  0.00    -0.107 NA
ATOM     31  N   UNL     1       3.930  -1.952  -3.907  0.00  0.00    -0.120 NA
ATOM     32  C   UNL     1       3.912  -1.626  -2.636  0.00  0.00    +0.198 A 
ATOM     33  C   UNL     1       2.800  -0.666   0.087  0.00  0.00    +0.064 C 
BRANCH  23  35
ATOM     34  C   UNL     1      -0.019   1.526   0.010  0.00  0.00    +0.009 C 
ATOM     35  C   UNL     1       0.002  -0.004   0.002  0.00  0.00    +0.039 C 
ENDBRANCH  23  35
ENDBRANCH  22  32
ENDBRANCH  21  22
ENDBRANCH   1  21
TORSDOF 11
