REMARK  Name = ZINC02118932
REMARK  5 active torsions:
REMARK  status: ('A' for Active; 'I' for Inactive)
REMARK    1  A    between atoms: C_1  and  C_2
REMARK    2  A    between atoms: C_3  and  O_17
REMARK    3  A    between atoms: O_17  and  C_18
REMARK    4  A    between atoms: C_18  and  C_19
REMARK    5  A    between atoms: C_24  and  C_27
REMARK                            x       y       z     vdW  Elec       q    Type
REMARK                         _______ _______ _______ _____ _____    ______ ____
ROOT
ATOM      1  C   UNL     1      -0.018   1.503   0.010  0.00  0.00    +0.051 C 
ATOM      2  C   UNL     1       0.002  -0.004   0.002  0.00  0.00    +0.034 A 
ATOM      3  C   UNL     1       0.006  -0.690  -1.202  0.00  0.00    +0.128 A 
ATOM      4  C   UNL     1       0.024  -2.080  -1.220  0.00  0.00    +0.047 A 
ATOM      5  C   UNL     1       0.034  -2.788  -0.038  0.00  0.00    +0.016 A 
ATOM      6  C   UNL     1       0.029  -2.108   1.177  0.00  0.00    +0.026 A 
ATOM      7  C   UNL     1       0.023  -0.703   1.198  0.00  0.00    +0.146 A 
ATOM      8  O   UNL     1       0.043  -0.035   2.379  0.00  0.00    -0.421 OA
ATOM      9  C   UNL     1      -0.480  -0.644   3.469  0.00  0.00    +0.345 A 
ATOM     10  O   UNL     1      -1.137  -0.025   4.283  0.00  0.00    -0.245 OA
ATOM     11  C   UNL     1      -0.225  -2.087   3.631  0.00  0.00    +0.067 A 
ATOM     12  C   UNL     1       0.028  -2.835   2.461  0.00  0.00    -0.000 A 
ATOM     13  C   UNL     1       0.278  -4.196   2.555  0.00  0.00    +0.009 A 
ATOM     14  C   UNL     1       0.257  -4.806   3.795  0.00  0.00    +0.001 A 
ATOM     15  C   UNL     1      -0.012  -4.073   4.941  0.00  0.00    +0.001 A 
ATOM     16  C   UNL     1      -0.238  -2.717   4.869  0.00  0.00    +0.015 A 
ENDROOT
BRANCH   3  17
ATOM     17  O   UNL     1      -0.009   0.000  -2.372  0.00  0.00    -0.482 OA
BRANCH  17  18
ATOM     18  C   UNL     1      -0.004  -0.767  -3.578  0.00  0.00    +0.324 C 
BRANCH  18  19
ATOM     19  C   UNL     1      -0.021   0.163  -4.764  0.00  0.00    +0.253 C 
ATOM     20  O   UNL     1      -0.036   1.363  -4.593  0.00  0.00    -0.272 OA
ATOM     21  N   UNL     1      -0.020  -0.341  -6.014  0.00  0.00    -0.299 N 
ATOM     22  C   UNL     1      -0.008  -1.793  -6.236  0.00  0.00    +0.108 C 
ATOM     23  C   UNL     1       1.159  -2.140  -7.165  0.00  0.00    +0.032 C 
ATOM     24  C   UNL     1       1.052  -1.309  -8.446  0.00  0.00    +0.078 C 
ATOM     25  C   UNL     1       1.137   0.179  -8.099  0.00  0.00    +0.032 C 
ATOM     26  C   UNL     1      -0.037   0.552  -7.181  0.00  0.00    +0.108 C 
BRANCH  24  27
ATOM     27  C   UNL     1       2.180  -1.673  -9.376  0.00  0.00    +0.214 C 
ATOM     28  O   UNL     1       2.990  -2.513  -9.048  0.00  0.00    -0.276 OA
ATOM     29  N   UNL     1       2.289  -1.063 -10.574  0.00  0.00    -0.329 N 
ATOM     30  H   UNL     1       1.641  -0.391 -10.836  0.00  0.00    +0.145 HD
ATOM     31  H   UNL     1       3.015  -1.297 -11.173  0.00  0.00    +0.145 HD
ENDBRANCH  24  27
ENDBRANCH  18  19
ENDBRANCH  17  18
ENDBRANCH   3  17
TORSDOF 4
