REMARK  Name = ZINC65398231
REMARK  10 active torsions:
REMARK  status: ('A' for Active; 'I' for Inactive)
REMARK    1  A    between atoms: C_1  and  C_2
REMARK    2  A    between atoms: C_4  and  C_8
REMARK    3  A    between atoms: C_8  and  N_9
REMARK    4  A    between atoms: C_10  and  C_12
REMARK    5  A    between atoms: C_15  and  C_27
REMARK    6  A    between atoms: C_18  and  N_20
REMARK    7  A    between atoms: C_21  and  C_23
REMARK    8  A    between atoms: C_23  and  C_24
REMARK    9  A    between atoms: C_23  and  C_25
REMARK   10  A    between atoms: C_23  and  C_26
REMARK                            x       y       z     vdW  Elec       q    Type
REMARK                         _______ _______ _______ _____ _____    ______ ____
ROOT
ATOM      1  C   UNL     1       3.099  -5.306  -2.784  0.00  0.00    +0.106 C 
ATOM      2  C   UNL     1       3.906  -4.183  -3.455  0.00  0.00    +0.029 C 
ATOM      3  C   UNL     1       3.454  -4.082  -4.940  0.00  0.00    +0.046 C 
ATOM      4  S   UNL     1       3.298  -5.867  -5.368  0.00  0.00    -0.135 S 
ATOM      5  C   UNL     1       3.107  -6.569  -3.680  0.00  0.00    +0.143 C 
ATOM      6  C   UNL     1       4.520  -3.397  -5.798  0.00  0.00    +0.019 C 
ENDROOT
BRANCH   1   8
ATOM      7  N   UNL     1       1.421  -3.769  -1.813  0.00  0.00    -0.309 N 
ATOM      8  C   UNL     1       1.678  -4.848  -2.580  0.00  0.00    +0.219 C 
ATOM      9  O   UNL     1       0.765  -5.449  -3.106  0.00  0.00    -0.275 OA
ATOM     10  H   UNL     1       2.151  -3.288  -1.393  0.00  0.00    +0.149 HD
BRANCH   7  11
ATOM     11  C   UNL     1       0.040  -3.323  -1.615  0.00  0.00    +0.159 C 
BRANCH  11  15
ATOM     12  C   UNL     1      -0.018   1.503   0.010  0.00  0.00    +0.067 C 
ATOM     13  C   UNL     1       0.002  -0.004   0.002  0.00  0.00    +0.060 A 
ATOM     14  C   UNL     1       0.008  -0.818  -1.135  0.00  0.00    +0.049 A 
ATOM     15  C   UNL     1       0.028  -2.107  -0.725  0.00  0.00    +0.053 A 
ATOM     16  N   UNL     1       0.034  -2.109   0.625  0.00  0.00    -0.280 N 
ATOM     17  H   UNL     1       0.048  -2.894   1.194  0.00  0.00    +0.189 HD
ATOM     18  N   UNL     1       0.023  -0.777   1.058  0.00  0.00    -0.179 NA
ENDBRANCH  11  15
ENDBRANCH   7  11
ENDBRANCH   1   8
BRANCH   5  19
ATOM     19  N   UNL     1       1.843  -7.298  -3.562  0.00  0.00    -0.302 N 
ATOM     20  C   UNL     1       1.223  -7.757  -4.667  0.00  0.00    +0.219 C 
ATOM     21  O   UNL     1       1.713  -7.566  -5.760  0.00  0.00    -0.275 OA
ATOM     22  H   UNL     1       1.451  -7.451  -2.688  0.00  0.00    +0.150 HD
BRANCH  20  23
ATOM     23  C   UNL     1      -0.078  -8.508  -4.546  0.00  0.00    +0.039 C 
ATOM     24  C   UNL     1      -0.564  -8.914  -5.938  0.00  0.00    +0.020 C 
ATOM     25  C   UNL     1       0.134  -9.761  -3.694  0.00  0.00    +0.020 C 
ATOM     26  C   UNL     1      -1.124  -7.611  -3.882  0.00  0.00    +0.020 C 
ENDBRANCH  20  23
ENDBRANCH   5  19
TORSDOF 5
