REMARK  Name = ZINC56017705
REMARK  7 active torsions:
REMARK  status: ('A' for Active; 'I' for Inactive)
REMARK    1  A    between atoms: C_1  and  C_2
REMARK    2  A    between atoms: C_6  and  C_27
REMARK    3  A    between atoms: C_10  and  C_12
REMARK    4  A    between atoms: N_21  and  C_23
REMARK    5  A    between atoms: C_23  and  C_24
REMARK    6  A    between atoms: C_24  and  C_25
REMARK    7  A    between atoms: C_24  and  C_26
REMARK                            x       y       z     vdW  Elec       q    Type
REMARK                         _______ _______ _______ _____ _____    ______ ____
ROOT
ATOM      1  C   UNL     1       2.213  -0.123   3.098  0.00  0.00    +0.154 A 
ATOM      2  C   UNL     1       2.656   0.778   4.174  0.00  0.00    +0.020 A 
ATOM      3  C   UNL     1       2.255   2.107   4.257  0.00  0.00    +0.011 A 
ATOM      4  C   UNL     1       2.713   2.889   5.296  0.00  0.00    +0.001 A 
ATOM      5  C   UNL     1       3.568   2.365   6.256  0.00  0.00    +0.001 A 
ATOM      6  C   UNL     1       3.979   1.051   6.192  0.00  0.00    +0.014 A 
ATOM      7  C   UNL     1       3.527   0.245   5.152  0.00  0.00    +0.050 A 
ATOM      8  C   UNL     1       3.914  -1.165   5.008  0.00  0.00    +0.275 A 
ATOM      9  O   UNL     1       4.661  -1.692   5.814  0.00  0.00    -0.266 OA
ATOM     10  N   UNL     1       3.423  -1.863   3.964  0.00  0.00    -0.228 N 
ATOM     11  N   UNL     1       2.632  -1.365   3.091  0.00  0.00    -0.163 NA
ENDROOT
BRANCH   1  19
ATOM     12  C   UNL     1       0.043   1.511  -0.037  0.00  0.00    +0.028 C 
ATOM     13  C   UNL     1      -0.018  -0.017   0.018  0.00  0.00    +0.073 C 
ATOM     14  C   UNL     1       0.564  -0.601  -1.274  0.00  0.00    +0.023 C 
ATOM     15  C   UNL     1       0.628  -2.125  -1.156  0.00  0.00    +0.016 C 
ATOM     16  C   UNL     1       1.547  -2.511   0.005  0.00  0.00    +0.092 C 
ATOM     17  C   UNL     1       0.976  -1.949   1.311  0.00  0.00    +0.121 C 
ATOM     18  N   UNL     1       0.773  -0.501   1.157  0.00  0.00    -0.293 N 
ATOM     19  C   UNL     1       1.304   0.365   2.042  0.00  0.00    +0.268 C 
ATOM     20  O   UNL     1       1.034   1.548   1.971  0.00  0.00    -0.268 OA
BRANCH  16  21
ATOM     21  C   UNL     1       2.922  -1.940  -0.231  0.00  0.00    +0.215 C 
ATOM     22  O   UNL     1       3.145  -1.289  -1.229  0.00  0.00    -0.276 OA
ATOM     23  N   UNL     1       3.903  -2.153   0.668  0.00  0.00    -0.329 N 
ATOM     24  H   UNL     1       3.724  -2.674   1.467  0.00  0.00    +0.145 HD
ATOM     25  H   UNL     1       4.788  -1.786   0.516  0.00  0.00    +0.145 HD
ENDBRANCH  16  21
ENDBRANCH   1  19
BRANCH  10  26
ATOM     26  C   UNL     1       3.813  -3.269   3.825  0.00  0.00    +0.150 C 
BRANCH  26  27
ATOM     27  C   UNL     1       2.813  -4.152   4.573  0.00  0.00    +0.004 C 
ATOM     28  C   UNL     1       1.440  -4.045   3.907  0.00  0.00    +0.009 C 
ATOM     29  C   UNL     1       3.287  -5.606   4.533  0.00  0.00    +0.009 C 
ENDBRANCH  26  27
ENDBRANCH  10  26
TORSDOF 4
