REMARK  Name = ZINC67540782
REMARK  9 active torsions:
REMARK  status: ('A' for Active; 'I' for Inactive)
REMARK    1  A    between atoms: C_1  and  C_2
REMARK    2  A    between atoms: C_4  and  C_28
REMARK    3  A    between atoms: N_5  and  C_7
REMARK    4  A    between atoms: C_12  and  N_13
REMARK    5  A    between atoms: N_16  and  C_17
REMARK    6  A    between atoms: N_16  and  C_18
REMARK    7  A    between atoms: C_18  and  C_20
REMARK    8  A    between atoms: C_18  and  C_21
REMARK    9  A    between atoms: C_25  and  O_27
REMARK                            x       y       z     vdW  Elec       q    Type
REMARK                         _______ _______ _______ _____ _____    ______ ____
ROOT
ATOM      1  N   UNL     1      -0.128  -2.018   3.562  0.00  0.00    -0.267 N 
ATOM      2  C   UNL     1      -0.105  -1.628   4.852  0.00  0.00    +0.307 C 
ATOM      3  O   UNL     1      -0.126  -2.460   5.739  0.00  0.00    -0.252 OA
ATOM      4  N   UNL     1      -0.059  -0.317   5.160  0.00  0.00    -0.282 N 
ATOM      5  C   UNL     1      -0.033   0.685   4.091  0.00  0.00    +0.134 C 
ATOM      6  H   UNL     1      -0.173  -1.354   2.856  0.00  0.00    +0.156 HD
ENDROOT
BRANCH   1  12
ATOM      7  C   UNL     1       0.574  -3.807   2.090  0.00  0.00    +0.087 A 
ATOM      8  C   UNL     1       0.617  -5.159   1.781  0.00  0.00    +0.029 A 
ATOM      9  C   UNL     1       0.001  -6.077   2.610  0.00  0.00    +0.002 A 
ATOM     10  C   UNL     1      -0.658  -5.653   3.749  0.00  0.00    +0.002 A 
ATOM     11  C   UNL     1      -0.706  -4.308   4.065  0.00  0.00    +0.025 A 
ATOM     12  C   UNL     1      -0.086  -3.380   3.241  0.00  0.00    +0.060 A 
BRANCH   7  17
ATOM     13  C   UNL     1       3.394  -0.021   0.565  0.00  0.00    +0.067 C 
ATOM     14  C   UNL     1       2.450  -1.195   0.587  0.00  0.00    +0.061 A 
ATOM     15  C   UNL     1       1.820  -1.762  -0.526  0.00  0.00    +0.047 A 
ATOM     16  C   UNL     1       1.055  -2.791  -0.093  0.00  0.00    +0.042 A 
ATOM     17  N   UNL     1       1.197  -2.873   1.249  0.00  0.00    -0.235 N 
ATOM     18  N   UNL     1       2.082  -1.864   1.651  0.00  0.00    -0.171 NA
ATOM     19  C   UNL     1       0.200  -3.686  -0.952  0.00  0.00    +0.066 C 
ENDBRANCH   7  17
ENDBRANCH   1  12
BRANCH   4  20
ATOM     20  C   UNL     1      -0.034   0.106   6.562  0.00  0.00    +0.104 C 
ATOM     21  C   UNL     1       1.166   1.027   6.796  0.00  0.00    +0.033 C 
BRANCH  20  22
ATOM     22  C   UNL     1      -1.306   0.847   6.886  0.00  0.00    -0.024 A 
ATOM     23  C   UNL     1      -2.093   0.437   7.946  0.00  0.00    +0.006 A 
ATOM     24  C   UNL     1      -3.260   1.114   8.246  0.00  0.00    +0.004 A 
ATOM     25  C   UNL     1      -3.643   2.202   7.486  0.00  0.00    +0.045 A 
ATOM     26  C   UNL     1      -2.856   2.615   6.421  0.00  0.00    +0.117 A 
ATOM     27  C   UNL     1      -1.681   1.938   6.126  0.00  0.00    +0.050 A 
BRANCH  26  28
ATOM     28  O   UNL     1      -3.231   3.685   5.672  0.00  0.00    -0.507 OA
ATOM     29  H   UNL     1      -2.890   4.531   5.995  0.00  0.00    +0.292 HD
ENDBRANCH  26  28
ENDBRANCH  20  22
ENDBRANCH   4  20
TORSDOF 5
