REMARK  Name = ZINC60042660
REMARK  7 active torsions:
REMARK  status: ('A' for Active; 'I' for Inactive)
REMARK    1  A    between atoms: C_1  and  C_2
REMARK    2  A    between atoms: C_2  and  C_24
REMARK    3  A    between atoms: N_5  and  C_9
REMARK    4  A    between atoms: C_9  and  C_10
REMARK    5  A    between atoms: C_10  and  C_12
REMARK    6  A    between atoms: C_10  and  O_23
REMARK    7  A    between atoms: C_12  and  N_13
REMARK                            x       y       z     vdW  Elec       q    Type
REMARK                         _______ _______ _______ _____ _____    ______ ____
ROOT
ATOM      1  C   UNL     1       0.440   1.344   0.633  0.00  0.00    +0.047 C 
ATOM      2  C   UNL     1       0.361  -0.180   0.519  0.00  0.00    +0.135 C 
ATOM      3  C   UNL     1      -1.083  -0.642   0.536  0.00  0.00    +0.251 C 
ATOM      4  O   UNL     1      -1.951  -0.363  -0.263  0.00  0.00    -0.272 OA
ATOM      5  N   UNL     1      -1.201  -1.429   1.624  0.00  0.00    -0.222 N 
ATOM      6  C   UNL     1      -0.044  -1.527   2.290  0.00  0.00    +0.310 C 
ATOM      7  O   UNL     1       0.099  -2.182   3.304  0.00  0.00    -0.252 OA
ATOM      8  N   UNL     1       0.943  -0.820   1.711  0.00  0.00    -0.281 N 
ATOM      9  H   UNL     1       1.860  -0.747   2.018  0.00  0.00    +0.152 HD
ENDROOT
BRANCH   2  10
ATOM     10  C   UNL     1       1.057  -0.653  -0.731  0.00  0.00    -0.012 A 
ATOM     11  C   UNL     1       0.348  -0.779  -1.911  0.00  0.00    +0.010 A 
ATOM     12  C   UNL     1       0.983  -1.214  -3.058  0.00  0.00    +0.050 A 
ATOM     13  C   UNL     1       2.334  -1.525  -3.030  0.00  0.00    +0.162 A 
ATOM     14  C   UNL     1       3.048  -1.396  -1.844  0.00  0.00    +0.162 A 
ATOM     15  C   UNL     1       2.405  -0.955  -0.697  0.00  0.00    +0.055 A 
ATOM     16  O   UNL     1       4.376  -1.688  -1.796  0.00  0.00    -0.485 OA
ATOM     17  C   UNL     1       4.902  -2.474  -2.871  0.00  0.00    +0.270 C 
ATOM     18  C   UNL     1       4.375  -1.897  -4.191  0.00  0.00    +0.270 C 
ATOM     19  O   UNL     1       2.945  -1.956  -4.167  0.00  0.00    -0.485 OA
ENDBRANCH   2  10
BRANCH   5  20
ATOM     20  C   UNL     1      -2.442  -2.094   2.029  0.00  0.00    +0.147 C 
BRANCH  20  21
ATOM     21  C   UNL     1      -2.516  -3.476   1.376  0.00  0.00    +0.116 C 
BRANCH  21  22
ATOM     22  O   UNL     1      -1.464  -4.299   1.883  0.00  0.00    -0.392 OA
ATOM     23  H   UNL     1      -1.496  -4.433   2.840  0.00  0.00    +0.210 HD
ENDBRANCH  21  22
BRANCH  21  24
ATOM     24  C   UNL     1      -3.867  -4.119   1.697  0.00  0.00    -0.045 C 
BRANCH  24  25
ATOM     25  N   UNL     1      -3.939  -5.445   1.069  0.00  0.00    +0.384 N 
ATOM     26  C   UNL     1      -3.957  -5.295  -0.395  0.00  0.00    -0.074 C 
ATOM     27  C   UNL     1      -3.723  -6.667  -1.028  0.00  0.00    +0.017 C 
ATOM     28  C   UNL     1      -4.673  -7.674  -0.431  0.00  0.00    -0.048 A 
ATOM     29  C   UNL     1      -4.870  -8.877  -1.091  0.00  0.00    +0.004 A 
ATOM     30  C   UNL     1      -5.730  -9.824  -0.572  0.00  0.00    +0.000 A 
ATOM     31  C   UNL     1      -6.398  -9.571   0.612  0.00  0.00    +0.000 A 
ATOM     32  C   UNL     1      -6.204  -8.373   1.269  0.00  0.00    +0.002 A 
ATOM     33  C   UNL     1      -5.342  -7.420   0.748  0.00  0.00    -0.061 A 
ATOM     34  C   UNL     1      -5.167  -6.123   1.494  0.00  0.00    -0.043 C 
ATOM     35  H   UNL     1      -3.138  -5.993   1.343  0.00  0.00    -0.081 HD
ENDBRANCH  24  25
ENDBRANCH  21  24
ENDBRANCH  20  21
ENDBRANCH   5  20
TORSDOF 6
