REMARK  Name = ZINC40320408
REMARK  13 active torsions:
REMARK  status: ('A' for Active; 'I' for Inactive)
REMARK    1  A    between atoms: C_1  and  C_2
REMARK    2  A    between atoms: C_2  and  O_3
REMARK    3  A    between atoms: O_3  and  C_4
REMARK    4  A    between atoms: C_6  and  C_34
REMARK    5  A    between atoms: C_9  and  O_10
REMARK    6  A    between atoms: O_10  and  C_11
REMARK    7  A    between atoms: C_11  and  C_12
REMARK    8  A    between atoms: C_12  and  C_14
REMARK    9  A    between atoms: C_12  and  O_33
REMARK   10  A    between atoms: C_14  and  N_15
REMARK   11  A    between atoms: N_15  and  C_16
REMARK   12  A    between atoms: N_15  and  C_25
REMARK   13  A    between atoms: C_16  and  C_17
REMARK                            x       y       z     vdW  Elec       q    Type
REMARK                         _______ _______ _______ _____ _____    ______ ____
ROOT
ATOM      1  N   UNL     1       2.797  -1.281  -8.185  0.00  0.00    +0.387 N 
ATOM      2  H   UNL     1       2.113  -0.593  -8.460  0.00  0.00    -0.081 HD
ENDROOT
BRANCH   1   3
ATOM      3  C   UNL     1       3.198  -1.043  -6.792  0.00  0.00    -0.045 C 
ATOM      4  C   UNL     1       3.947   0.296  -6.688  0.00  0.00    +0.009 C 
ATOM      5  C   UNL     1       4.646   0.405  -5.311  0.00  0.00    +0.164 C 
ATOM      6  S   UNL     1       4.959  -1.355  -4.877  0.00  0.00    -0.033 S 
ATOM      7  O   UNL     1       4.231  -1.677  -3.700  0.00  0.00    -0.174 OA
ATOM      8  O   UNL     1       6.358  -1.600  -4.923  0.00  0.00    -0.174 OA
ATOM      9  C   UNL     1       4.159  -2.172  -6.321  0.00  0.00    +0.151 C 
ENDBRANCH   1   3
BRANCH   1  10
ATOM     10  C   UNL     1       2.216  -2.625  -8.304  0.00  0.00    -0.043 C 
BRANCH  10  11
ATOM     11  C   UNL     1       0.890  -2.676  -7.543  0.00  0.00    +0.135 C 
BRANCH  11  12
ATOM     12  O   UNL     1       1.140  -2.557  -6.141  0.00  0.00    -0.390 OA
ATOM     13  H   UNL     1       1.755  -3.217  -5.794  0.00  0.00    +0.210 HD
ENDBRANCH  11  12
BRANCH  11  14
ATOM     14  C   UNL     1       0.191  -4.008  -7.825  0.00  0.00    +0.258 C 
BRANCH  14  15
ATOM     15  O   UNL     1      -1.099  -4.009  -7.210  0.00  0.00    -0.486 OA
BRANCH  15  21
ATOM     16  C   UNL     1      -3.123  -5.192  -6.789  0.00  0.00    +0.163 A 
ATOM     17  C   UNL     1      -3.896  -6.324  -6.950  0.00  0.00    +0.060 A 
ATOM     18  C   UNL     1      -3.401  -7.407  -7.687  0.00  0.00    +0.018 A 
ATOM     19  C   UNL     1      -2.124  -7.335  -8.257  0.00  0.00    +0.015 A 
ATOM     20  C   UNL     1      -1.360  -6.202  -8.091  0.00  0.00    +0.050 A 
ATOM     21  C   UNL     1      -1.855  -5.126  -7.365  0.00  0.00    +0.162 A 
BRANCH  18  22
ATOM     22  C   UNL     1      -4.218  -8.615  -7.862  0.00  0.00    +0.258 C 
ATOM     23  O   UNL     1      -3.787  -9.551  -8.501  0.00  0.00    -0.296 OA
ENDBRANCH  18  22
BRANCH  16  24
ATOM     24  O   UNL     1      -3.601  -4.139  -6.074  0.00  0.00    -0.489 OA
BRANCH  24  26
ATOM     25  C   UNL     1      -5.271  -3.000  -4.750  0.00  0.00    +0.048 C 
ATOM     26  C   UNL     1      -4.908  -4.275  -5.513  0.00  0.00    +0.226 C 
ENDBRANCH  24  26
ENDBRANCH  16  24
ENDBRANCH  15  21
ENDBRANCH  14  15
ENDBRANCH  11  14
ENDBRANCH  10  11
ENDBRANCH   1  10
BRANCH   1  27
ATOM     27  C   UNL     1       3.975  -1.178  -9.057  0.00  0.00    -0.041 C 
BRANCH  27  28
ATOM     28  C   UNL     1       3.813   0.003  -9.980  0.00  0.00    -0.046 A 
ATOM     29  C   UNL     1       2.641   0.167 -10.694  0.00  0.00    +0.004 A 
ATOM     30  C   UNL     1       2.492   1.249 -11.540  0.00  0.00    +0.020 A 
ATOM     31  C   UNL     1       3.517   2.169 -11.674  0.00  0.00    +0.042 A 
ATOM     32  C   UNL     1       4.690   2.006 -10.960  0.00  0.00    +0.040 A 
ATOM     33  C   UNL     1       4.837   0.925 -10.109  0.00  0.00    +0.044 A 
ATOM     34 CL   UNL     1       6.306   0.722  -9.208  0.00  0.00    -0.083 Cl
ATOM     35 CL   UNL     1       3.330   3.528 -12.738  0.00  0.00    -0.083 Cl
ENDBRANCH  27  28
ENDBRANCH   1  27
TORSDOF 12
