REMARK  Name = ZINC09577198
REMARK  6 active torsions:
REMARK  status: ('A' for Active; 'I' for Inactive)
REMARK    1  A    between atoms: N_13  and  C_17
REMARK    2  A    between atoms: C_17  and  C_18
REMARK    3  A    between atoms: N_20  and  C_21
REMARK    4  A    between atoms: C_26  and  C_27
REMARK    5  A    between atoms: N_29  and  C_30
REMARK    6  A    between atoms: C_30  and  C_31
REMARK                            x       y       z     vdW  Elec       q    Type
REMARK                         _______ _______ _______ _____ _____    ______ ____
ROOT
ATOM      1  C   UNL     1       6.040   1.802  -2.922  0.00  0.00    +0.235 C 
ATOM      2  O   UNL     1       5.095   2.414  -2.470  0.00  0.00    -0.274 OA
ATOM      3  N   UNL     1       6.754   2.321  -3.941  0.00  0.00    -0.284 N 
ATOM      4  H   UNL     1       7.556   1.871  -4.249  0.00  0.00    +0.155 HD
ENDROOT
BRANCH   3   5
ATOM      5  C   UNL     1       6.341   3.503  -4.550  0.00  0.00    +0.046 A 
ATOM      6  C   UNL     1       5.003   3.875  -4.515  0.00  0.00    +0.024 A 
ATOM      7  C   UNL     1       4.596   5.047  -5.120  0.00  0.00    +0.002 A 
ATOM      8  C   UNL     1       5.514   5.860  -5.764  0.00  0.00    +0.001 A 
ATOM      9  C   UNL     1       6.846   5.507  -5.809  0.00  0.00    +0.015 A 
ATOM     10  C   UNL     1       7.274   4.327  -5.196  0.00  0.00    +0.058 A 
BRANCH  10  11
ATOM     11  C   UNL     1       8.699   3.946  -5.234  0.00  0.00    +0.246 C 
ATOM     12  O   UNL     1       9.054   2.874  -4.784  0.00  0.00    -0.270 OA
ATOM     13  N   UNL     1       9.607   4.787  -5.768  0.00  0.00    -0.304 N 
ATOM     14  H   UNL     1       9.324   5.642  -6.127  0.00  0.00    +0.149 HD
BRANCH  13  15
ATOM     15  C   UNL     1      11.022   4.409  -5.805  0.00  0.00    +0.179 C 
BRANCH  15  16
ATOM     16  C   UNL     1      11.820   5.514  -6.447  0.00  0.00    +0.122 A 
ATOM     17  C   UNL     1      12.386   6.551  -5.804  0.00  0.00    +0.046 A 
ATOM     18  C   UNL     1      13.032   7.338  -6.785  0.00  0.00    +0.041 A 
ATOM     19  C   UNL     1      12.822   6.735  -7.968  0.00  0.00    +0.195 A 
ATOM     20  O   UNL     1      12.093   5.628  -7.757  0.00  0.00    -0.466 OA
ENDBRANCH  15  16
ENDBRANCH  13  15
ENDBRANCH  10  11
ENDBRANCH   3   5
BRANCH   1  21
ATOM     21  C   UNL     1       6.414   0.461  -2.346  0.00  0.00    +0.214 C 
BRANCH  21  34
ATOM     22  C   UNL     1       0.002   1.416   0.050  0.00  0.00    +0.000 A 
ATOM     23  C   UNL     1       1.199   2.108   0.037  0.00  0.00    +0.000 A 
ATOM     24  C   UNL     1       2.391   1.415   0.008  0.00  0.00    +0.006 A 
ATOM     25  C   UNL     1       2.400   0.026  -0.008  0.00  0.00    -0.012 A 
ATOM     26  C   UNL     1       1.207  -0.664   0.009  0.00  0.00    -0.042 A 
ATOM     27  C   UNL     1       0.008   0.037   0.036  0.00  0.00    +0.004 A 
ATOM     28  C   UNL     1       1.144  -2.168   0.010  0.00  0.00    +0.035 C 
ATOM     29  C   UNL     1       2.468  -2.765  -0.463  0.00  0.00    +0.008 C 
ATOM     30  C   UNL     1       3.604  -2.136   0.353  0.00  0.00    +0.040 C 
ATOM     31  C   UNL     1       3.730  -0.671  -0.048  0.00  0.00    +0.138 C 
ATOM     32  C   UNL     1       4.339  -0.557  -1.428  0.00  0.00    +0.251 C 
ATOM     33  O   UNL     1       3.885  -0.986  -2.468  0.00  0.00    -0.272 OA
ATOM     34  N   UNL     1       5.492   0.122  -1.259  0.00  0.00    -0.215 N 
ATOM     35  C   UNL     1       5.689   0.447   0.024  0.00  0.00    +0.310 C 
ATOM     36  O   UNL     1       6.659   1.060   0.424  0.00  0.00    -0.252 OA
ATOM     37  N   UNL     1       4.693   0.017   0.822  0.00  0.00    -0.281 N 
ATOM     38  H   UNL     1       4.625   0.139   1.782  0.00  0.00    +0.152 HD
ENDBRANCH  21  34
ENDBRANCH   1  21
TORSDOF 6
