REMARK  Name = ZINC58702676
REMARK  6 active torsions:
REMARK  status: ('A' for Active; 'I' for Inactive)
REMARK    1  A    between atoms: C_1  and  C_2
REMARK    2  A    between atoms: C_5  and  C_8
REMARK    3  A    between atoms: C_17  and  C_20
REMARK    4  A    between atoms: N_22  and  C_23
REMARK    5  A    between atoms: C_23  and  C_24
REMARK    6  A    between atoms: C_28  and  C_30
REMARK                            x       y       z     vdW  Elec       q    Type
REMARK                         _______ _______ _______ _____ _____    ______ ____
ROOT
ATOM      1  C   UNL     1       0.059  -4.275  -0.021  0.00  0.00    -0.003 C 
ATOM      2  C   UNL     1      -1.187  -4.798  -0.739  0.00  0.00    +0.015 C 
ATOM      3  C   UNL     1      -1.167  -6.327  -0.747  0.00  0.00    -0.009 C 
ATOM      4  C   UNL     1       0.084  -6.817  -1.478  0.00  0.00    +0.007 C 
ATOM      5  C   UNL     1       1.331  -6.295  -0.761  0.00  0.00    -0.009 C 
ATOM      6  C   UNL     1       1.311  -4.765  -0.752  0.00  0.00    +0.015 C 
ATOM      7  C   UNL     1       1.345  -6.813   0.679  0.00  0.00    +0.019 C 
ATOM      8  C   UNL     1       0.094  -6.323   1.410  0.00  0.00    +0.048 C 
ATOM      9  C   UNL     1      -1.153  -6.845   0.693  0.00  0.00    +0.019 C 
ATOM     10  C   UNL     1       0.074  -4.793   1.418  0.00  0.00    +0.027 C 
ENDROOT
BRANCH   1  15
ATOM     11  C   UNL     1      -0.018   1.503   0.010  0.00  0.00    +0.044 C 
ATOM     12  C   UNL     1       0.002  -0.004   0.002  0.00  0.00    -0.050 A 
ATOM     13  C   UNL     1       0.006  -0.689  -1.199  0.00  0.00    +0.003 A 
ATOM     14  C   UNL     1       0.025  -2.071  -1.206  0.00  0.00    +0.004 A 
ATOM     15  C   UNL     1       0.040  -2.768  -0.013  0.00  0.00    -0.041 A 
ATOM     16  C   UNL     1       0.037  -2.084   1.188  0.00  0.00    +0.004 A 
ATOM     17  C   UNL     1       0.023  -0.702   1.195  0.00  0.00    +0.003 A 
ENDBRANCH   1  15
BRANCH   8  18
ATOM     18  C   UNL     1       0.108  -6.833   2.828  0.00  0.00    +0.220 C 
ATOM     19  O   UNL     1       0.103  -6.050   3.754  0.00  0.00    -0.275 OA
ATOM     20  N   UNL     1       0.127  -8.159   3.067  0.00  0.00    -0.311 N 
ATOM     21  H   UNL     1       0.131  -8.786   2.326  0.00  0.00    +0.149 HD
BRANCH  20  22
ATOM     22  C   UNL     1       0.141  -8.655   4.445  0.00  0.00    +0.139 C 
BRANCH  22  23
ATOM     23  C   UNL     1       0.160 -10.162   4.437  0.00  0.00    -0.030 A 
ATOM     24  C   UNL     1      -1.030 -10.868   4.434  0.00  0.00    +0.005 A 
ATOM     25  C   UNL     1      -1.021 -12.251   4.426  0.00  0.00    +0.001 A 
ATOM     26  C   UNL     1       0.176 -12.936   4.421  0.00  0.00    +0.013 A 
ATOM     27  C   UNL     1       1.380 -12.230   4.424  0.00  0.00    +0.037 A 
ATOM     28  C   UNL     1       1.364 -10.835   4.427  0.00  0.00    +0.018 A 
BRANCH  27  29
ATOM     29  C   UNL     1       2.667 -12.958   4.420  0.00  0.00    +0.242 C 
ATOM     30  O   UNL     1       3.715 -12.341   4.422  0.00  0.00    -0.270 OA
ATOM     31  N   UNL     1       2.680 -14.306   4.413  0.00  0.00    -0.325 N 
ATOM     32  H   UNL     1       1.844 -14.798   4.411  0.00  0.00    +0.145 HD
ATOM     33  H   UNL     1       3.524 -14.783   4.410  0.00  0.00    +0.145 HD
ENDBRANCH  27  29
ENDBRANCH  22  23
ENDBRANCH  20  22
ENDBRANCH   8  18
TORSDOF 5
