REMARK  Name = ZINC57371635
REMARK  12 active torsions:
REMARK  status: ('A' for Active; 'I' for Inactive)
REMARK    1  A    between atoms: C_1  and  C_2
REMARK    2  A    between atoms: C_5  and  C_8
REMARK    3  A    between atoms: C_8  and  C_10
REMARK    4  A    between atoms: C_8  and  O_16
REMARK    5  A    between atoms: O_16  and  C_17
REMARK    6  A    between atoms: C_17  and  C_18
REMARK    7  A    between atoms: C_18  and  C_20
REMARK    8  A    between atoms: C_18  and  O_34
REMARK    9  A    between atoms: C_20  and  N_21
REMARK   10  A    between atoms: N_30  and  C_31
REMARK   11  A    between atoms: C_31  and  C_32
REMARK   12  A    between atoms: C_32  and  O_33
REMARK                            x       y       z     vdW  Elec       q    Type
REMARK                         _______ _______ _______ _____ _____    ______ ____
ROOT
ATOM      1  C   UNL     1      -2.279  -6.462   1.890  0.00  0.00    +0.160 C 
ENDROOT
BRANCH   1   2
ATOM      2  O   UNL     1      -1.469  -6.683   3.047  0.00  0.00    -0.388 OA
ATOM      3  H   UNL     1      -0.798  -7.369   2.933  0.00  0.00    +0.210 HD
ENDBRANCH   1   2
BRANCH   1   4
ATOM      4  C   UNL     1      -1.390  -6.034   0.721  0.00  0.00    +0.194 C 
BRANCH   4   5
ATOM      5  O   UNL     1      -0.795  -4.768   1.013  0.00  0.00    -0.365 OA
BRANCH   5   6
ATOM      6  C   UNL     1       0.059  -4.275  -0.021  0.00  0.00    +0.178 C 
BRANCH   6  11
ATOM      7  C   UNL     1      -0.018   1.503   0.010  0.00  0.00    +0.044 C 
ATOM      8  C   UNL     1       0.002  -0.004   0.002  0.00  0.00    -0.050 A 
ATOM      9  C   UNL     1       0.006  -0.689  -1.199  0.00  0.00    +0.004 A 
ATOM     10  C   UNL     1       0.025  -2.071  -1.206  0.00  0.00    +0.007 A 
ATOM     11  C   UNL     1       0.040  -2.768  -0.013  0.00  0.00    -0.014 A 
ATOM     12  C   UNL     1       0.037  -2.084   1.188  0.00  0.00    +0.007 A 
ATOM     13  C   UNL     1       0.023  -0.702   1.195  0.00  0.00    +0.004 A 
ENDBRANCH   6  11
BRANCH   6  14
ATOM     14  C   UNL     1       1.466  -4.761   0.215  0.00  0.00    -0.015 A 
ATOM     15  C   UNL     1       1.942  -4.899   1.505  0.00  0.00    +0.006 A 
ATOM     16  C   UNL     1       3.233  -5.345   1.722  0.00  0.00    +0.000 A 
ATOM     17  C   UNL     1       4.047  -5.652   0.648  0.00  0.00    +0.000 A 
ATOM     18  C   UNL     1       3.571  -5.514  -0.642  0.00  0.00    +0.000 A 
ATOM     19  C   UNL     1       2.279  -5.073  -0.859  0.00  0.00    +0.006 A 
ENDBRANCH   6  14
ENDBRANCH   5   6
ENDBRANCH   4   5
ENDBRANCH   1   4
BRANCH   1  20
ATOM     20  C   UNL     1      -3.013  -7.754   1.527  0.00  0.00    +0.158 C 
BRANCH  20  21
ATOM     21  N   UNL     1      -3.952  -8.099   2.597  0.00  0.00    -0.311 N 
ATOM     22  C   UNL     1      -3.681  -8.883   3.707  0.00  0.00    +0.068 A 
ATOM     23  C   UNL     1      -2.554  -9.551   4.160  0.00  0.00    +0.028 A 
ATOM     24  C   UNL     1      -2.608 -10.267   5.339  0.00  0.00    +0.002 A 
ATOM     25  C   UNL     1      -3.783 -10.323   6.074  0.00  0.00    +0.002 A 
ATOM     26  C   UNL     1      -4.912  -9.666   5.638  0.00  0.00    +0.028 A 
ATOM     27  C   UNL     1      -4.874  -8.937   4.447  0.00  0.00    +0.065 A 
ATOM     28  N   UNL     1      -5.797  -8.201   3.773  0.00  0.00    -0.327 N 
ATOM     29  C   UNL     1      -5.256  -7.704   2.689  0.00  0.00    +0.174 A 
ATOM     30  N   UNL     1      -5.907  -6.903   1.775  0.00  0.00    -0.314 N 
ATOM     31  H   UNL     1      -5.434  -6.576   0.993  0.00  0.00    +0.149 HD
ATOM     32  H   UNL     1      -6.715  -8.063   4.054  0.00  0.00    +0.169 HD
BRANCH  30  33
ATOM     33  C   UNL     1      -7.312  -6.545   1.984  0.00  0.00    +0.132 C 
BRANCH  33  34
ATOM     34  C   UNL     1      -7.789  -5.656   0.833  0.00  0.00    +0.174 C 
BRANCH  34  35
ATOM     35  O   UNL     1      -7.765  -6.402  -0.386  0.00  0.00    -0.393 OA
ATOM     36  H   UNL     1      -8.056  -5.899  -1.160  0.00  0.00    +0.209 HD
ENDBRANCH  34  35
ENDBRANCH  33  34
ENDBRANCH  30  33
ENDBRANCH  20  21
ENDBRANCH   1  20
TORSDOF 11
