REMARK  Name = ZINC63362652
REMARK  6 active torsions:
REMARK  status: ('A' for Active; 'I' for Inactive)
REMARK    1  A    between atoms: C_1  and  C_2
REMARK    2  A    between atoms: C_2  and  C_4
REMARK    3  A    between atoms: C_2  and  N_10
REMARK    4  A    between atoms: C_11  and  C_13
REMARK    5  A    between atoms: C_17  and  N_19
REMARK    6  A    between atoms: C_22  and  C_38
REMARK                            x       y       z     vdW  Elec       q    Type
REMARK                         _______ _______ _______ _____ _____    ______ ____
ROOT
ATOM      1  N   UNL     1      -6.150  -1.923  -3.513  0.00  0.00    -0.192 N 
ATOM      2  C   UNL     1      -7.382  -2.467  -3.604  0.00  0.00    +0.253 C 
ATOM      3  O   UNL     1      -8.043  -2.937  -2.704  0.00  0.00    -0.272 OA
ATOM      4  C   UNL     1      -7.764  -2.367  -5.064  0.00  0.00    +0.137 C 
ATOM      5  C   UNL     1      -8.041  -3.753  -5.646  0.00  0.00    +0.139 C 
ATOM      6  C   UNL     1      -6.922  -4.065  -6.627  0.00  0.00    -0.034 C 
ATOM      7  C   UNL     1      -6.389  -5.218  -6.228  0.00  0.00    -0.001 A 
ATOM      8  C   UNL     1      -5.324  -6.053  -6.806  0.00  0.00    +0.010 A 
ATOM      9  C   UNL     1      -5.014  -7.186  -6.122  0.00  0.00    +0.001 A 
ATOM     10  C   UNL     1      -5.648  -7.565  -4.934  0.00  0.00    +0.002 A 
ATOM     11  C   UNL     1      -6.639  -6.859  -4.334  0.00  0.00    +0.026 A 
ATOM     12  C   UNL     1      -7.056  -5.650  -4.964  0.00  0.00    +0.043 A 
ATOM     13  N   UNL     1      -7.994  -4.795  -4.619  0.00  0.00    -0.375 N 
ATOM     14  C   UNL     1      -6.520  -3.149  -7.757  0.00  0.00    +0.052 C 
ATOM     15  C   UNL     1      -6.309  -1.749  -7.147  0.00  0.00    +0.115 C 
ATOM     16  N   UNL     1      -6.538  -1.847  -5.703  0.00  0.00    -0.268 N 
ATOM     17  C   UNL     1      -5.692  -1.534  -4.711  0.00  0.00    +0.316 C 
ATOM     18  O   UNL     1      -4.630  -0.967  -4.879  0.00  0.00    -0.252 OA
ATOM     19  C   UNL     1      -8.945  -1.416  -5.266  0.00  0.00    +0.044 C 
ATOM     20  H   UNL     1      -8.553  -4.838  -3.827  0.00  0.00    +0.160 HD
ENDROOT
BRANCH   1  25
ATOM     21  C   UNL     1      -5.336  -1.946   0.084  0.00  0.00    +0.038 A 
ATOM     22  C   UNL     1      -4.019  -1.483   0.054  0.00  0.00    +0.013 A 
ATOM     23  C   UNL     1      -3.425  -1.173  -1.152  0.00  0.00    +0.003 A 
ATOM     24  C   UNL     1      -4.129  -1.318  -2.333  0.00  0.00    +0.024 A 
ATOM     25  C   UNL     1      -5.440  -1.778  -2.313  0.00  0.00    +0.046 A 
ATOM     26  C   UNL     1      -6.044  -2.098  -1.107  0.00  0.00    +0.037 A 
BRANCH  21  28
ATOM     27  N   UNL     1      -5.289  -2.131   2.526  0.00  0.00    -0.305 N 
ATOM     28  C   UNL     1      -5.976  -2.279   1.375  0.00  0.00    +0.245 C 
ATOM     29  O   UNL     1      -7.120  -2.687   1.399  0.00  0.00    -0.270 OA
ATOM     30  H   UNL     1      -4.375  -1.806   2.507  0.00  0.00    +0.150 HD
BRANCH  27  32
ATOM     31  C   UNL     1      -5.770  -3.959   4.077  0.00  0.00    +0.033 C 
ATOM     32  C   UNL     1      -5.923  -2.461   3.804  0.00  0.00    +0.100 C 
BRANCH  32  33
ATOM     33  C   UNL     1      -5.261  -1.679   4.910  0.00  0.00    -0.027 A 
ATOM     34  C   UNL     1      -3.890  -1.500   4.905  0.00  0.00    +0.005 A 
ATOM     35  C   UNL     1      -3.283  -0.783   5.918  0.00  0.00    +0.000 A 
ATOM     36  C   UNL     1      -4.047  -0.245   6.937  0.00  0.00    +0.000 A 
ATOM     37  C   UNL     1      -5.418  -0.423   6.942  0.00  0.00    +0.000 A 
ATOM     38  C   UNL     1      -6.025  -1.137   5.926  0.00  0.00    +0.005 A 
ENDBRANCH  32  33
ENDBRANCH  27  32
ENDBRANCH  21  28
ENDBRANCH   1  25
TORSDOF 4
