REMARK  Name = ZINC38594568
REMARK  6 active torsions:
REMARK  status: ('A' for Active; 'I' for Inactive)
REMARK    1  A    between atoms: C_1  and  C_2
REMARK    2  A    between atoms: C_2  and  C_3
REMARK    3  A    between atoms: C_9  and  C_11
REMARK    4  A    between atoms: C_11  and  C_12
REMARK    5  A    between atoms: C_12  and  N_13
REMARK    6  A    between atoms: C_17  and  C_18
REMARK                            x       y       z     vdW  Elec       q    Type
REMARK                         _______ _______ _______ _____ _____    ______ ____
ROOT
ATOM      1  N   UNL     1      -3.923  -1.746   7.905  0.00  0.00    -0.255 N 
ATOM      2  C   UNL     1      -2.928  -2.521   8.299  0.00  0.00    +0.258 C 
ATOM      3  O   UNL     1      -2.612  -3.521   7.681  0.00  0.00    -0.269 OA
ATOM      4  C   UNL     1      -2.217  -2.112   9.529  0.00  0.00    +0.077 C 
ATOM      5  C   UNL     1      -1.173  -2.703  10.162  0.00  0.00    +0.028 C 
ATOM      6  S   UNL     1      -3.112  -0.624   9.953  0.00  0.00    -0.061 S 
ATOM      7  C   UNL     1      -4.266  -0.636   8.590  0.00  0.00    +0.121 C 
ATOM      8  S   UNL     1      -5.508   0.488   8.240  0.00  0.00    -0.027 S 
ENDROOT
BRANCH   5   9
ATOM      9  C   UNL     1      -0.746  -2.221  11.483  0.00  0.00    -0.024 A 
ATOM     10  C   UNL     1      -1.522  -1.283  12.174  0.00  0.00    +0.009 A 
ATOM     11  C   UNL     1      -1.115  -0.836  13.412  0.00  0.00    +0.020 A 
ATOM     12  C   UNL     1       0.059  -1.312  13.973  0.00  0.00    +0.041 A 
ATOM     13  C   UNL     1       0.833  -2.240  13.295  0.00  0.00    +0.020 A 
ATOM     14  C   UNL     1       0.436  -2.701  12.058  0.00  0.00    +0.009 A 
ATOM     15 CL   UNL     1       0.563  -0.743  15.534  0.00  0.00    -0.084 Cl
ENDBRANCH   5   9
BRANCH   1  16
ATOM     16  C   UNL     1      -4.668  -2.097   6.693  0.00  0.00    +0.124 C 
BRANCH  16  17
ATOM     17  C   UNL     1      -4.003  -1.444   5.479  0.00  0.00    +0.115 C 
BRANCH  17  24
ATOM     18  C   UNL     1      -4.747  -1.243   0.524  0.00  0.00    +0.126 A 
ATOM     19  C   UNL     1      -5.071  -1.674   1.880  0.00  0.00    +0.192 A 
ATOM     20  N   UNL     1      -6.137  -2.425   1.830  0.00  0.00    -0.033 NA
ATOM     21  O   UNL     1      -6.539  -2.512   0.473  0.00  0.00    -0.241 OA
ATOM     22  N   UNL     1      -5.627  -1.743  -0.290  0.00  0.00    -0.052 NA
ATOM     23  N   UNL     1      -4.363  -1.340   3.034  0.00  0.00    -0.266 N 
ATOM     24  C   UNL     1      -4.768  -1.805   4.233  0.00  0.00    +0.220 C 
ATOM     25  O   UNL     1      -5.749  -2.514   4.307  0.00  0.00    -0.275 OA
ATOM     26  H   UNL     1      -3.578  -0.772   2.975  0.00  0.00    +0.156 HD
BRANCH  18  28
ATOM     27  C   UNL     1      -4.026   1.105   0.181  0.00  0.00    +0.010 C 
ATOM     28  C   UNL     1      -3.589  -0.360   0.134  0.00  0.00    +0.059 C 
ENDBRANCH  18  28
ENDBRANCH  17  24
ENDBRANCH  16  17
ENDBRANCH   1  16
TORSDOF 5
