REMARK  Name = ZINC32103682
REMARK  6 active torsions:
REMARK  status: ('A' for Active; 'I' for Inactive)
REMARK    1  A    between atoms: C_1  and  C_2
REMARK    2  A    between atoms: C_7  and  N_8
REMARK    3  A    between atoms: C_15  and  O_17
REMARK    4  A    between atoms: C_22  and  C_30
REMARK    5  A    between atoms: N_24  and  C_27
REMARK    6  A    between atoms: C_27  and  C_28
REMARK                            x       y       z     vdW  Elec       q    Type
REMARK                         _______ _______ _______ _____ _____    ______ ____
ROOT
ATOM      1  N   UNL     1      -0.054   0.360   2.275  0.00  0.00    -0.214 N 
ATOM      2  C   UNL     1       0.152  -0.175   3.500  0.00  0.00    +0.164 A 
ATOM      3  C   UNL     1       0.225   0.882   4.401  0.00  0.00    +0.036 A 
ATOM      4  C   UNL     1       0.066   2.056   3.689  0.00  0.00    +0.142 A 
ATOM      5  N   UNL     1      -0.095   1.756   2.420  0.00  0.00    -0.173 NA
ATOM      6  C   UNL     1       0.436   0.641   5.869  0.00  0.00    +0.112 C 
ATOM      7  C   UNL     1       1.217  -0.660   6.045  0.00  0.00    +0.121 C 
ATOM      8  C   UNL     1       0.730  -1.723   5.100  0.00  0.00    +0.191 C 
ATOM      9  N   UNL     1       0.262  -1.469   3.915  0.00  0.00    -0.197 NA
ATOM     10  C   UNL     1      -0.862   0.599   6.608  0.00  0.00    -0.006 A 
ATOM     11  C   UNL     1      -1.955  -0.233   6.491  0.00  0.00    +0.007 A 
ATOM     12  C   UNL     1      -3.023   0.004   7.351  0.00  0.00    +0.001 A 
ATOM     13  C   UNL     1      -2.986   1.026   8.277  0.00  0.00    +0.005 A 
ATOM     14  C   UNL     1      -1.891   1.866   8.401  0.00  0.00    -0.029 A 
ATOM     15  C   UNL     1      -0.812   1.639   7.544  0.00  0.00    +0.044 A 
ATOM     16  N   UNL     1       0.393   2.314   7.450  0.00  0.00    -0.266 N 
ATOM     17  C   UNL     1       1.190   1.795   6.491  0.00  0.00    +0.236 C 
ATOM     18  O   UNL     1       2.299   2.181   6.187  0.00  0.00    -0.274 OA
ATOM     19  C   UNL     1      -1.865   2.978   9.418  0.00  0.00    +0.045 C 
ENDROOT
BRANCH   1  26
ATOM     20  C   UNL     1      -2.204   1.057   0.545  0.00  0.00    +0.046 C 
ATOM     21  C   UNL     1      -1.231  -0.043   0.204  0.00  0.00    -0.025 A 
ATOM     22  C   UNL     1      -1.366  -0.742  -0.980  0.00  0.00    +0.005 A 
ATOM     23  C   UNL     1      -0.474  -1.751  -1.294  0.00  0.00    +0.000 A 
ATOM     24  C   UNL     1       0.555  -2.063  -0.424  0.00  0.00    +0.002 A 
ATOM     25  C   UNL     1       0.694  -1.369   0.761  0.00  0.00    +0.028 A 
ATOM     26  C   UNL     1      -0.196  -0.351   1.076  0.00  0.00    +0.071 A 
ENDBRANCH   1  26
BRANCH   8  27
ATOM     27  O   UNL     1       0.782  -3.009   5.505  0.00  0.00    -0.495 OA
ATOM     28  H   UNL     1       0.454  -3.640   4.850  0.00  0.00    +0.293 HD
ENDBRANCH   8  27
BRANCH  16  29
ATOM     29  C   UNL     1       0.760   3.456   8.291  0.00  0.00    +0.140 C 
BRANCH  29  30
ATOM     30  C   UNL     1       0.424   4.737   7.572  0.00  0.00    -0.015 C 
ATOM     31  C   UNL     1      -0.321   5.641   8.159  0.00  0.00    +0.005 C 
ENDBRANCH  29  30
ENDBRANCH  16  29
TORSDOF 4
