REMARK  Name = ZINC13816256
REMARK  10 active torsions:
REMARK  status: ('A' for Active; 'I' for Inactive)
REMARK    1  A    between atoms: C_5  and  C_7
REMARK    2  A    between atoms: C_7  and  C_9
REMARK    3  A    between atoms: C_7  and  C_24
REMARK    4  A    between atoms: C_9  and  C_10
REMARK    5  A    between atoms: C_10  and  C_11
REMARK    6  A    between atoms: C_11  and  N_12
REMARK    7  A    between atoms: N_14  and  C_15
REMARK    8  A    between atoms: C_15  and  C_16
REMARK    9  A    between atoms: C_16  and  C_17
REMARK   10  A    between atoms: C_17  and  C_18
REMARK                            x       y       z     vdW  Elec       q    Type
REMARK                         _______ _______ _______ _____ _____    ______ ____
ROOT
ATOM      1  C   UNL     1       4.568   2.591   3.772  0.00  0.00    +0.115 C 
ENDROOT
BRANCH   1   2
ATOM      2  N   UNL     1       4.686   1.206   4.236  0.00  0.00    -0.358 N 
ATOM      3  C   UNL     1       4.993   0.945   5.551  0.00  0.00    +0.169 C 
ATOM      4  N   UNL     1       5.104  -0.354   5.986  0.00  0.00    -0.358 N 
ATOM      5  H   UNL     1       4.547   0.473   3.616  0.00  0.00    +0.162 HD
ATOM      6  H   UNL     1       5.399   1.848   7.331  0.00  0.00    +0.159 HD
ATOM      7  H   UNL     1       4.965  -1.087   5.366  0.00  0.00    +0.162 HD
ATOM      8  N   UNL     1       5.170   1.990   6.347  0.00  0.00    -0.371 N 
ATOM      9  H   UNL     1       5.076   2.942   5.974  0.00  0.00    +0.159 HD
BRANCH   4  10
ATOM     10  C   UNL     1       5.431  -0.632   7.387  0.00  0.00    +0.116 C 
BRANCH  10  11
ATOM     11  C   UNL     1       5.493  -2.145   7.606  0.00  0.00    +0.027 C 
BRANCH  11  12
ATOM     12  C   UNL     1       5.834  -2.435   9.069  0.00  0.00    +0.058 C 
BRANCH  12  13
ATOM     13  C   UNL     1       5.895  -3.925   9.285  0.00  0.00    +0.059 A 
ATOM     14  C   UNL     1       6.936  -4.608   9.798  0.00  0.00    +0.107 A 
ATOM     15  N   UNL     1       6.572  -5.928   9.819  0.00  0.00    -0.351 N 
ATOM     16  H   UNL     1       7.128  -6.692  10.145  0.00  0.00    +0.166 HD
ATOM     17  C   UNL     1       5.321  -6.005   9.317  0.00  0.00    +0.196 A 
ATOM     18  N   UNL     1       4.920  -4.803   9.004  0.00  0.00    -0.241 NA
ENDBRANCH  12  13
ENDBRANCH  11  12
ENDBRANCH  10  11
ENDBRANCH   4  10
ENDBRANCH   1   2
BRANCH   1  19
ATOM     19  C   UNL     1       4.222   2.601   2.282  0.00  0.00    +0.022 C 
BRANCH  19  20
ATOM     20  C   UNL     1       4.099   4.047   1.797  0.00  0.00    +0.016 C 
BRANCH  20  21
ATOM     21  C   UNL     1       3.753   4.058   0.307  0.00  0.00    +0.068 C 
BRANCH  21  22
ATOM     22  C   UNL     1       3.752   5.477  -0.199  0.00  0.00    -0.037 A 
ATOM     23  C   UNL     1       2.969   6.432   0.423  0.00  0.00    +0.006 A 
ATOM     24  C   UNL     1       2.971   7.735  -0.036  0.00  0.00    +0.022 A 
ATOM     25  C   UNL     1       3.749   8.083  -1.126  0.00  0.00    +0.059 A 
ATOM     26  C   UNL     1       4.530   7.126  -1.752  0.00  0.00    +0.060 A 
ATOM     27  C   UNL     1       4.530   5.823  -1.287  0.00  0.00    +0.025 A 
ATOM     28 CL   UNL     1       5.507   7.561  -3.119  0.00  0.00    -0.082 Cl
ATOM     29 CL   UNL     1       3.747   9.719  -1.708  0.00  0.00    -0.082 Cl
ENDBRANCH  21  22
BRANCH  21  34
ATOM     30  C   UNL     1       0.145   3.110   0.844  0.00  0.00    +0.003 A 
ATOM     31  C   UNL     1      -0.064   2.344  -0.293  0.00  0.00    +0.020 A 
ATOM     32  C   UNL     1       0.976   2.167  -1.186  0.00  0.00    +0.111 A 
ATOM     33  N   UNL     1       2.155   2.717  -0.967  0.00  0.00    -0.259 NA
ATOM     34  C   UNL     1       2.389   3.451   0.103  0.00  0.00    +0.049 A 
ATOM     35  C   UNL     1       1.397   3.671   1.041  0.00  0.00    +0.024 A 
ENDBRANCH  21  34
ENDBRANCH  20  21
ENDBRANCH  19  20
ENDBRANCH   1  19
TORSDOF 10
