REMARK  Name = ZINC01926226
REMARK  8 active torsions:
REMARK  status: ('A' for Active; 'I' for Inactive)
REMARK    1  A    between atoms: C_1  and  O_2
REMARK    2  A    between atoms: O_2  and  C_3
REMARK    3  A    between atoms: C_6  and  S_9
REMARK    4  A    between atoms: S_9  and  N_12
REMARK    5  A    between atoms: C_16  and  O_29
REMARK    6  A    between atoms: C_26  and  C_27
REMARK    7  A    between atoms: C_26  and  N_52
REMARK    8  A    between atoms: C_27  and  O_28
REMARK                            x       y       z     vdW  Elec       q    Type
REMARK                         _______ _______ _______ _____ _____    ______ ____
ROOT
ATOM      1  N   UNL     1      -5.625  -2.985   1.622  0.00  0.00    -0.128 NA
ATOM      2  C   UNL     1      -6.752  -3.581   1.919  0.00  0.00    +0.095 C 
ATOM      3  C   UNL     1      -7.702  -4.064   0.887  0.00  0.00    +0.052 C 
ATOM      4  C   UNL     1      -8.328  -5.243   1.153  0.00  0.00    +0.057 C 
ATOM      5  C   UNL     1      -8.006  -5.986   2.413  0.00  0.00    +0.234 C 
ATOM      6  C   UNL     1      -7.841  -5.046   3.569  0.00  0.00    +0.026 A 
ATOM      7  C   UNL     1      -7.189  -3.826   3.325  0.00  0.00    +0.011 A 
ATOM      8  C   UNL     1      -6.981  -2.922   4.348  0.00  0.00    +0.010 A 
ATOM      9  C   UNL     1      -7.430  -3.227   5.622  0.00  0.00    +0.001 A 
ATOM     10  C   UNL     1      -8.080  -4.424   5.861  0.00  0.00    +0.000 A 
ATOM     11  C   UNL     1      -8.287  -5.333   4.835  0.00  0.00    +0.010 A 
ATOM     12  O   UNL     1      -8.840  -7.075   2.691  0.00  0.00    -0.339 OA
ATOM     13  C   UNL     1     -10.084  -7.200   2.033  0.00  0.00    +0.181 C 
ATOM     14  C   UNL     1      -9.959  -6.967   0.532  0.00  0.00    +0.113 C 
ATOM     15  N   UNL     1      -9.033  -5.858   0.097  0.00  0.00    -0.389 NA
ATOM     16  H   UNL     1      -8.298  -6.336  -0.437  0.00  0.00    +0.126 HD
ENDROOT
BRANCH   1  17
ATOM     17  S   UNL     1      -5.207  -2.748   0.037  0.00  0.00    +0.099 S 
ATOM     18  O   UNL     1      -6.152  -1.833  -0.500  0.00  0.00    -0.146 OA
ATOM     19  O   UNL     1      -4.991  -4.036  -0.523  0.00  0.00    -0.146 OA
BRANCH  17  23
ATOM     20  C   UNL     1      -1.200  -0.637   0.010  0.00  0.00    +0.120 A 
ATOM     21  C   UNL     1      -2.374   0.101   0.031  0.00  0.00    +0.047 A 
ATOM     22  C   UNL     1      -3.595  -0.545   0.033  0.00  0.00    +0.032 A 
ATOM     23  C   UNL     1      -3.648  -1.927   0.026  0.00  0.00    +0.113 A 
ATOM     24  C   UNL     1      -2.479  -2.665   0.011  0.00  0.00    +0.032 A 
ATOM     25  C   UNL     1      -1.255  -2.024   0.003  0.00  0.00    +0.047 A 
BRANCH  20  27
ATOM     26  C   UNL     1      -0.017   1.425   0.010  0.00  0.00    +0.277 C 
ATOM     27  O   UNL     1       0.002  -0.004   0.002  0.00  0.00    -0.495 OA
ENDBRANCH  20  27
ENDBRANCH  17  23
ENDBRANCH   1  17
BRANCH   5  28
ATOM     28  O   UNL     1      -6.710  -6.542   2.186  0.00  0.00    -0.356 OA
ATOM     29  H   UNL     1      -6.351  -7.024   2.944  0.00  0.00    +0.213 HD
ENDBRANCH   5  28
BRANCH  15  30
ATOM     30  C   UNL     1      -9.643  -4.894  -0.891  0.00  0.00    +0.113 C 
BRANCH  30  31
ATOM     31  C   UNL     1     -10.780  -3.934  -0.532  0.00  0.00    +0.173 C 
BRANCH  31  32
ATOM     32  O   UNL     1     -10.320  -2.993   0.439  0.00  0.00    -0.394 OA
ATOM     33  H   UNL     1     -10.990  -2.352   0.714  0.00  0.00    +0.209 HD
ENDBRANCH  31  32
ENDBRANCH  30  31
ENDBRANCH  15  30
TORSDOF 7
