REMARK  Name = ZINC05158312
REMARK  9 active torsions:
REMARK  status: ('A' for Active; 'I' for Inactive)
REMARK    1  A    between atoms: C_1  and  C_2
REMARK    2  A    between atoms: C_2  and  C_3
REMARK    3  A    between atoms: C_3  and  C_28
REMARK    4  A    between atoms: C_10  and  N_17
REMARK    5  A    between atoms: C_12  and  S_14
REMARK    6  A    between atoms: S_14  and  C_15
REMARK    7  A    between atoms: C_15  and  C_16
REMARK    8  A    between atoms: N_17  and  N_18
REMARK    9  A    between atoms: C_19  and  C_21
REMARK                            x       y       z     vdW  Elec       q    Type
REMARK                         _______ _______ _______ _____ _____    ______ ____
ROOT
ATOM      1  C   UNL     1      -1.127   1.331  -1.215  0.00  0.00    +0.071 C 
ATOM      2  C   UNL     1      -0.377   0.828  -2.451  0.00  0.00    +0.071 C 
ATOM      3  C   UNL     1      -0.946   1.541  -3.676  0.00  0.00    -0.020 A 
ATOM      4  C   UNL     1      -1.668   2.674  -3.508  0.00  0.00    +0.021 A 
ATOM      5  S   UNL     1      -2.138   3.174  -5.143  0.00  0.00    -0.071 S 
ATOM      6  C   UNL     1      -1.369   1.869  -6.049  0.00  0.00    +0.115 A 
ATOM      7  C   UNL     1      -0.764   1.077  -5.039  0.00  0.00    +0.052 A 
ATOM      8  C   UNL     1      -0.049  -0.079  -5.468  0.00  0.00    +0.148 A 
ATOM      9  N   UNL     1      -0.025  -0.296  -6.781  0.00  0.00    -0.205 NA
ATOM     10  C   UNL     1      -0.615   0.489  -7.670  0.00  0.00    +0.191 A 
ATOM     11  N   UNL     1      -1.299   1.585  -7.334  0.00  0.00    -0.215 NA
ATOM     12  C   UNL     1      -1.984   3.338  -2.204  0.00  0.00    +0.203 C 
ATOM     13  O   UNL     1      -1.140   2.761  -1.196  0.00  0.00    -0.368 OA
ATOM     14  C   UNL     1      -2.565   0.811  -1.251  0.00  0.00    +0.042 C 
ENDROOT
BRANCH   1  16
ATOM     15  C   UNL     1      -1.257   1.195   1.276  0.00  0.00    +0.007 C 
ATOM     16  C   UNL     1      -0.432   0.813   0.046  0.00  0.00    +0.032 C 
ENDBRANCH   1  16
BRANCH   8  17
ATOM     17  N   UNL     1       0.581  -0.924  -4.574  0.00  0.00    -0.247 N 
ATOM     18  H   UNL     1       0.683  -0.660  -3.646  0.00  0.00    +0.172 HD
BRANCH  17  19
ATOM     19  N   UNL     1       1.073  -2.162  -5.008  0.00  0.00    -0.229 N 
ATOM     20  C   UNL     1       1.688  -2.986  -4.137  0.00  0.00    +0.295 C 
ATOM     21  O   UNL     1       1.816  -2.655  -2.973  0.00  0.00    -0.265 OA
ATOM     22  H   UNL     1       0.971  -2.426  -5.936  0.00  0.00    +0.173 HD
BRANCH  20  23
ATOM     23  C   UNL     1       2.203  -4.282  -4.591  0.00  0.00    +0.190 A 
ATOM     24  C   UNL     1       2.847  -5.205  -3.818  0.00  0.00    +0.054 A 
ATOM     25  C   UNL     1       3.157  -6.288  -4.657  0.00  0.00    +0.042 A 
ATOM     26  C   UNL     1       2.702  -5.978  -5.891  0.00  0.00    +0.196 A 
ATOM     27  O   UNL     1       2.128  -4.769  -5.847  0.00  0.00    -0.458 OA
ENDBRANCH  20  23
ENDBRANCH  17  19
ENDBRANCH   8  17
BRANCH  10  28
ATOM     28  S   UNL     1      -0.493   0.066  -9.377  0.00  0.00    -0.086 S 
BRANCH  28  29
ATOM     29  C   UNL     1      -1.442   1.423 -10.106  0.00  0.00    +0.074 C 
ATOM     30  C   UNL     1      -1.474   1.264 -11.627  0.00  0.00    +0.016 C 
ENDBRANCH  28  29
ENDBRANCH  10  28
TORSDOF 6
