REMARK  Name = ZINC13572932
REMARK  7 active torsions:
REMARK  status: ('A' for Active; 'I' for Inactive)
REMARK    1  A    between atoms: C_1  and  O_2
REMARK    2  A    between atoms: O_2  and  C_3
REMARK    3  A    between atoms: C_3  and  C_4
REMARK    4  A    between atoms: C_4  and  N_5
REMARK    5  A    between atoms: C_10  and  C_28
REMARK    6  A    between atoms: C_28  and  C_29
REMARK    7  A    between atoms: C_32  and  O_35
REMARK                            x       y       z     vdW  Elec       q    Type
REMARK                         _______ _______ _______ _____ _____    ______ ____
ROOT
ATOM      1  N   UNL     1      -0.776  -2.556  -1.119  0.00  0.00    -0.239 N 
ATOM      2  C   UNL     1      -1.550  -2.704  -0.038  0.00  0.00    +0.227 C 
ATOM      3  O   UNL     1      -1.209  -2.483   1.104  0.00  0.00    -0.275 OA
ATOM      4  C   UNL     1      -2.918  -3.189  -0.463  0.00  0.00    +0.107 C 
ATOM      5  C   UNL     1      -3.118  -4.638   0.033  0.00  0.00    +0.072 C 
ATOM      6  N   UNL     1      -3.679  -5.366  -1.136  0.00  0.00    -0.295 NA
ATOM      7  C   UNL     1      -2.949  -4.810  -2.291  0.00  0.00    +0.136 C 
ATOM      8  C   UNL     1      -2.796  -3.295  -2.009  0.00  0.00    +0.122 C 
ATOM      9  C   UNL     1      -1.375  -2.856  -2.277  0.00  0.00    +0.228 C 
ATOM     10  O   UNL     1      -0.858  -2.789  -3.371  0.00  0.00    -0.275 OA
ATOM     11  C   UNL     1      -1.619  -5.483  -2.475  0.00  0.00    +0.006 A 
ATOM     12  C   UNL     1      -0.506  -5.620  -1.675  0.00  0.00    +0.046 A 
ATOM     13  C   UNL     1       0.597  -6.319  -2.136  0.00  0.00    +0.124 A 
ATOM     14  C   UNL     1       0.578  -6.879  -3.403  0.00  0.00    +0.040 A 
ATOM     15  C   UNL     1      -0.535  -6.742  -4.207  0.00  0.00    +0.026 A 
ATOM     16  C   UNL     1      -1.648  -6.040  -3.750  0.00  0.00    +0.039 A 
ATOM     17  N   UNL     1      -2.872  -5.769  -4.368  0.00  0.00    -0.283 N 
ATOM     18  C   UNL     1      -3.692  -5.051  -3.576  0.00  0.00    +0.243 C 
ATOM     19  O   UNL     1      -4.812  -4.672  -3.848  0.00  0.00    -0.273 OA
ATOM     20  F   UNL     1       1.689  -6.455  -1.352  0.00  0.00    -0.205 F 
ATOM     21  H   UNL     1      -3.521  -6.359  -1.053  0.00  0.00    +0.124 HD
ATOM     22  H   UNL     1      -3.105  -6.065  -5.262  0.00  0.00    +0.155 HD
ENDROOT
BRANCH   1  23
ATOM     23  C   UNL     1       0.613  -2.097  -1.041  0.00  0.00    +0.144 C 
BRANCH  23  24
ATOM     24  C   UNL     1       0.652  -0.570  -1.138  0.00  0.00    +0.179 C 
BRANCH  24  26
ATOM     25  C   UNL     1      -0.017   1.425   0.010  0.00  0.00    +0.194 C 
ATOM     26  O   UNL     1       0.002  -0.004   0.002  0.00  0.00    -0.381 OA
ENDBRANCH  24  26
ENDBRANCH  23  24
ENDBRANCH   1  23
BRANCH   5  27
ATOM     27  C   UNL     1      -4.102  -4.668   1.204  0.00  0.00    +0.054 C 
BRANCH  27  28
ATOM     28  C   UNL     1      -4.189  -6.070   1.751  0.00  0.00    -0.046 A 
ATOM     29  C   UNL     1      -5.121  -6.954   1.238  0.00  0.00    +0.007 A 
ATOM     30  C   UNL     1      -5.203  -8.239   1.738  0.00  0.00    +0.045 A 
ATOM     31  C   UNL     1      -4.349  -8.643   2.754  0.00  0.00    +0.117 A 
ATOM     32  C   UNL     1      -3.415  -7.754   3.266  0.00  0.00    +0.045 A 
ATOM     33  C   UNL     1      -3.334  -6.472   2.760  0.00  0.00    +0.007 A 
BRANCH  31  34
ATOM     34  O   UNL     1      -4.428  -9.907   3.248  0.00  0.00    -0.507 OA
ATOM     35  H   UNL     1      -3.864 -10.544   2.789  0.00  0.00    +0.292 HD
ENDBRANCH  31  34
ENDBRANCH  27  28
ENDBRANCH   5  27
TORSDOF 6
