REMARK  Name = ZINC05907076
REMARK  5 active torsions:
REMARK  status: ('A' for Active; 'I' for Inactive)
REMARK    1  A    between atoms: C_1  and  C_2
REMARK    2  A    between atoms: C_2  and  O_3
REMARK    3  A    between atoms: O_3  and  C_4
REMARK    4  A    between atoms: C_9  and  C_10
REMARK    5  A    between atoms: C_22  and  O_24
REMARK                            x       y       z     vdW  Elec       q    Type
REMARK                         _______ _______ _______ _____ _____    ______ ____
ROOT
ATOM      1  C   UNL     1      -3.981  -1.497   0.032  0.00  0.00    +0.227 C 
ATOM      2  N   UNL     1      -5.133  -2.228  -0.527  0.00  0.00    -0.313 N 
ATOM      3  C   UNL     1      -5.239  -2.241  -1.900  0.00  0.00    +0.080 A 
ATOM      4  C   UNL     1      -4.670  -1.239  -2.695  0.00  0.00    +0.068 A 
ATOM      5  C   UNL     1      -4.854  -1.393  -4.127  0.00  0.00    -0.023 A 
ATOM      6  C   UNL     1      -5.561  -2.488  -4.488  0.00  0.00    -0.005 A 
ATOM      7  S   UNL     1      -5.967  -3.288  -2.959  0.00  0.00    -0.078 S 
ATOM      8  C   UNL     1      -5.914  -2.915  -5.878  0.00  0.00    +0.043 C 
ATOM      9  C   UNL     1      -5.676  -1.727  -6.823  0.00  0.00    +0.005 C 
ATOM     10  C   UNL     1      -4.297  -1.130  -6.530  0.00  0.00    +0.005 C 
ATOM     11  C   UNL     1      -4.312  -0.427  -5.171  0.00  0.00    +0.037 C 
ATOM     12  C   UNL     1      -3.956  -0.136  -2.002  0.00  0.00    +0.220 C 
ATOM     13  N   UNL     1      -3.687  -0.293  -0.735  0.00  0.00    -0.223 NA
ATOM     14  H   UNL     1      -5.779  -2.676   0.040  0.00  0.00    +0.149 HD
ENDROOT
BRANCH   1  20
ATOM     15  C   UNL     1      -1.498  -1.848   0.006  0.00  0.00    +0.127 A 
ATOM     16  C   UNL     1      -0.387  -2.679  -0.003  0.00  0.00    +0.046 A 
ATOM     17  C   UNL     1      -0.552  -4.051  -0.008  0.00  0.00    +0.004 A 
ATOM     18  C   UNL     1      -1.823  -4.596  -0.004  0.00  0.00    +0.001 A 
ATOM     19  C   UNL     1      -2.932  -3.769   0.004  0.00  0.00    +0.011 A 
ATOM     20  C   UNL     1      -2.772  -2.397   0.016  0.00  0.00    +0.036 A 
BRANCH  15  21
ATOM     21  O   UNL     1      -1.339  -0.499   0.012  0.00  0.00    -0.492 OA
BRANCH  21  23
ATOM     22  C   UNL     1      -0.019   1.526   0.010  0.00  0.00    +0.048 C 
ATOM     23  C   UNL     1       0.002  -0.004   0.002  0.00  0.00    +0.225 C 
ENDBRANCH  21  23
ENDBRANCH  15  21
ENDBRANCH   1  20
BRANCH  12  24
ATOM     24  O   UNL     1      -3.598   0.990  -2.660  0.00  0.00    -0.492 OA
ATOM     25  H   UNL     1      -3.139   1.639  -2.110  0.00  0.00    +0.294 HD
ENDBRANCH  12  24
TORSDOF 4
