REMARK  Name = ZINC55226884
REMARK  5 active torsions:
REMARK  status: ('A' for Active; 'I' for Inactive)
REMARK    1  A    between atoms: C_4  and  O_17
REMARK    2  A    between atoms: C_5  and  C_7
REMARK    3  A    between atoms: C_7  and  C_9
REMARK    4  A    between atoms: C_7  and  N_16
REMARK    5  A    between atoms: O_17  and  C_18
REMARK                            x       y       z     vdW  Elec       q    Type
REMARK                         _______ _______ _______ _____ _____    ______ ____
ROOT
ATOM      1  C   UNL     1       0.392   1.496  -0.008  0.00  0.00    +0.001 A 
ATOM      2  C   UNL     1       1.650   2.067   0.049  0.00  0.00    +0.004 A 
ATOM      3  C   UNL     1       2.774   1.264   0.082  0.00  0.00    +0.046 A 
ATOM      4  C   UNL     1       2.639  -0.117   0.060  0.00  0.00    +0.135 A 
ATOM      5  C   UNL     1       1.377  -0.687   0.003  0.00  0.00    +0.016 A 
ATOM      6  C   UNL     1       0.256   0.120  -0.031  0.00  0.00    +0.009 A 
ENDROOT
BRANCH   5   7
ATOM      7  C   UNL     1       1.227  -2.187  -0.022  0.00  0.00    +0.116 C 
BRANCH   7   8
ATOM      8  C   UNL     1       1.343  -2.679  -1.441  0.00  0.00    -0.012 A 
ATOM      9  C   UNL     1       1.205  -1.794  -2.494  0.00  0.00    +0.006 A 
ATOM     10  C   UNL     1       1.312  -2.245  -3.796  0.00  0.00    +0.000 A 
ATOM     11  C   UNL     1       1.557  -3.583  -4.046  0.00  0.00    +0.001 A 
ATOM     12  C   UNL     1       1.695  -4.469  -2.994  0.00  0.00    +0.015 A 
ATOM     13  C   UNL     1       1.593  -4.016  -1.691  0.00  0.00    +0.023 A 
ATOM     14 BR   UNL     1       1.790  -5.227  -0.252  0.00  0.00    -0.050 Br
ENDBRANCH   7   8
BRANCH   7  15
ATOM     15  N   UNL     1      -0.088  -2.557   0.519  0.00  0.00    -0.320 NA
ATOM     16  H   UNL     1      -0.832  -2.148  -0.027  0.00  0.00    +0.119 HD
ATOM     17  H   UNL     1      -0.188  -3.559   0.573  0.00  0.00    +0.119 HD
ENDBRANCH   7  15
ENDBRANCH   5   7
BRANCH   4  18
ATOM     18  O   UNL     1       3.743  -0.908   0.092  0.00  0.00    -0.405 OA
BRANCH  18  19
ATOM     19  C   UNL     1       5.011  -0.252   0.150  0.00  0.00    +0.575 C 
ATOM     20  F   UNL     1       5.078   0.534   1.305  0.00  0.00    -0.133 F 
ATOM     21  F   UNL     1       6.031  -1.209   0.177  0.00  0.00    -0.133 F 
ATOM     22  F   UNL     1       5.166   0.562  -0.977  0.00  0.00    -0.133 F 
ENDBRANCH  18  19
ENDBRANCH   4  18
TORSDOF 5
