REMARK  Name = ZINC36758753
REMARK  9 active torsions:
REMARK  status: ('A' for Active; 'I' for Inactive)
REMARK    1  A    between atoms: C_1  and  C_2
REMARK    2  A    between atoms: C_2  and  C_4
REMARK    3  A    between atoms: C_2  and  N_14
REMARK    4  A    between atoms: C_15  and  C_17
REMARK    5  A    between atoms: C_17  and  C_19
REMARK    6  A    between atoms: C_17  and  N_23
REMARK    7  A    between atoms: C_19  and  C_20
REMARK    8  A    between atoms: C_20  and  C_21
REMARK    9  A    between atoms: C_20  and  C_22
REMARK                            x       y       z     vdW  Elec       q    Type
REMARK                         _______ _______ _______ _____ _____    ______ ____
ROOT
ATOM      1  N   UNL     1       0.347  -0.124  -1.456  0.00  0.00    -0.307 N 
ATOM      2  C   UNL     1      -0.161  -0.341  -2.686  0.00  0.00    +0.234 C 
ATOM      3  O   UNL     1      -1.293   0.009  -2.944  0.00  0.00    -0.274 OA
ATOM      4  H   UNL     1       1.252  -0.404  -1.249  0.00  0.00    +0.149 HD
ENDROOT
BRANCH   1   6
ATOM      5  C   UNL     1      -0.354   2.052  -0.586  0.00  0.00    +0.033 C 
ATOM      6  C   UNL     1      -0.469   0.534  -0.432  0.00  0.00    +0.100 C 
BRANCH   6   7
ATOM      7  C   UNL     1       0.019   0.130   0.935  0.00  0.00    -0.024 A 
ATOM      8  C   UNL     1       1.376   0.023   1.180  0.00  0.00    +0.009 A 
ATOM      9  C   UNL     1       1.827  -0.348   2.432  0.00  0.00    +0.050 A 
ATOM     10  C   UNL     1       0.920  -0.616   3.447  0.00  0.00    +0.162 A 
ATOM     11  C   UNL     1      -0.443  -0.506   3.201  0.00  0.00    +0.162 A 
ATOM     12  C   UNL     1      -0.890  -0.129   1.944  0.00  0.00    +0.055 A 
ATOM     13  O   UNL     1      -1.350  -0.756   4.185  0.00  0.00    -0.485 OA
ATOM     14  C   UNL     1      -0.880  -1.485   5.324  0.00  0.00    +0.270 C 
ATOM     15  C   UNL     1       0.459  -0.878   5.765  0.00  0.00    +0.270 C 
ATOM     16  O   UNL     1       1.380  -0.985   4.674  0.00  0.00    -0.485 OA
ENDBRANCH   6   7
ENDBRANCH   1   6
BRANCH   2  17
ATOM     17  C   UNL     1       0.678  -1.017  -3.739  0.00  0.00    +0.170 C 
BRANCH  17  18
ATOM     18  N   UNL     1      -0.095  -1.135  -4.978  0.00  0.00    -0.230 N 
ATOM     19  C   UNL     1      -0.569  -0.069  -5.652  0.00  0.00    +0.227 C 
ATOM     20  O   UNL     1      -0.269   1.091  -5.466  0.00  0.00    -0.275 OA
ATOM     21  C   UNL     1      -1.560  -0.599  -6.702  0.00  0.00    +0.091 C 
ATOM     22  C   UNL     1      -2.908  -0.648  -5.977  0.00  0.00    +0.040 C 
ATOM     23  C   UNL     1      -3.767  -1.787  -6.404  0.00  0.00    -0.030 C 
ATOM     24  C   UNL     1      -3.347  -2.833  -7.035  0.00  0.00    -0.030 C 
ATOM     25  C   UNL     1      -1.926  -3.016  -7.467  0.00  0.00    +0.040 C 
ATOM     26  C   UNL     1      -0.973  -2.005  -6.900  0.00  0.00    +0.091 C 
ATOM     27  C   UNL     1      -0.393  -2.322  -5.552  0.00  0.00    +0.227 C 
ATOM     28  O   UNL     1      -0.228  -3.423  -5.072  0.00  0.00    -0.275 OA
ENDBRANCH  17  18
BRANCH  17  29
ATOM     29  C   UNL     1       1.936  -0.187  -3.999  0.00  0.00    +0.035 C 
BRANCH  29  30
ATOM     30  C   UNL     1       2.821  -0.909  -5.018  0.00  0.00    -0.015 C 
ATOM     31  C   UNL     1       4.006  -0.014  -5.389  0.00  0.00    +0.007 C 
ATOM     32  C   UNL     1       3.338  -2.214  -4.410  0.00  0.00    +0.007 C 
ENDBRANCH  29  30
ENDBRANCH  17  29
ENDBRANCH   2  17
TORSDOF 6
