REMARK  Name = ZINC01767764
REMARK  6 active torsions:
REMARK  status: ('A' for Active; 'I' for Inactive)
REMARK    1  A    between atoms: C_4  and  N_9
REMARK    2  A    between atoms: C_5  and  C_7
REMARK    3  A    between atoms: C_10  and  C_12
REMARK    4  A    between atoms: C_12  and  C_13
REMARK    5  A    between atoms: C_13  and  N_14
REMARK    6  A    between atoms: C_18  and  C_19
REMARK                            x       y       z     vdW  Elec       q    Type
REMARK                         _______ _______ _______ _____ _____    ______ ____
ROOT
ATOM      1  N   UNL     1      -2.205   2.675  -2.115  0.00  0.00    -0.255 N 
ATOM      2  C   UNL     1      -3.267   2.264  -1.443  0.00  0.00    +0.258 C 
ATOM      3  O   UNL     1      -3.983   3.042  -0.839  0.00  0.00    -0.269 OA
ATOM      4  C   UNL     1      -3.545   0.814  -1.467  0.00  0.00    +0.077 C 
ATOM      5  C   UNL     1      -4.548   0.115  -0.877  0.00  0.00    +0.028 C 
ATOM      6  S   UNL     1      -2.196   0.231  -2.485  0.00  0.00    -0.061 S 
ATOM      7  C   UNL     1      -1.419   1.810  -2.787  0.00  0.00    +0.121 C 
ATOM      8  S   UNL     1      -0.014   2.145  -3.707  0.00  0.00    -0.027 S 
ENDROOT
BRANCH   5   9
ATOM      9  C   UNL     1      -4.714  -1.316  -1.163  0.00  0.00    -0.020 A 
ATOM     10  C   UNL     1      -3.959  -1.921  -2.175  0.00  0.00    +0.012 A 
ATOM     11  C   UNL     1      -4.112  -3.265  -2.437  0.00  0.00    +0.050 A 
ATOM     12  C   UNL     1      -5.022  -4.021  -1.708  0.00  0.00    +0.166 A 
ATOM     13  C   UNL     1      -5.782  -3.423  -0.702  0.00  0.00    +0.167 A 
ATOM     14  C   UNL     1      -5.631  -2.078  -0.429  0.00  0.00    +0.057 A 
ATOM     15  O   UNL     1      -6.590  -4.372  -0.145  0.00  0.00    -0.453 OA
ATOM     16  C   UNL     1      -6.614  -5.458  -1.090  0.00  0.00    +0.466 C 
ATOM     17  O   UNL     1      -5.355  -5.342  -1.778  0.00  0.00    -0.453 OA
ENDBRANCH   5   9
BRANCH   1  18
ATOM     18  C   UNL     1      -1.877   4.103  -2.131  0.00  0.00    +0.124 C 
BRANCH  18  19
ATOM     19  C   UNL     1      -0.949   4.425  -0.958  0.00  0.00    +0.115 C 
BRANCH  19  21
ATOM     20  N   UNL     1       0.199   6.409  -0.028  0.00  0.00    -0.285 N 
ATOM     21  C   UNL     1      -0.610   5.893  -0.974  0.00  0.00    +0.219 C 
ATOM     22  O   UNL     1      -1.066   6.611  -1.839  0.00  0.00    -0.275 OA
ATOM     23  H   UNL     1       0.630   5.823   0.613  0.00  0.00    +0.155 HD
BRANCH  20  27
ATOM     24  C   UNL     1       0.851  10.524   0.140  0.00  0.00    +0.001 A 
ATOM     25  C   UNL     1       0.814   9.872  -1.082  0.00  0.00    +0.002 A 
ATOM     26  C   UNL     1       0.599   8.510  -1.140  0.00  0.00    +0.024 A 
ATOM     27  C   UNL     1       0.417   7.783   0.029  0.00  0.00    +0.048 A 
ATOM     28  C   UNL     1       0.448   8.442   1.268  0.00  0.00    +0.084 A 
ATOM     29  C   UNL     1       0.673   9.820   1.311  0.00  0.00    +0.017 A 
BRANCH  28  30
ATOM     30  C   UNL     1       0.250   7.683   2.516  0.00  0.00    +0.388 C 
ATOM     31  O   UNL     1       0.015   6.492   2.472  0.00  0.00    -0.241 OA
ATOM     32  O   UNL     1       0.330   8.310   3.705  0.00  0.00    -0.241 OA
ENDBRANCH  28  30
ENDBRANCH  20  27
ENDBRANCH  19  21
ENDBRANCH  18  19
ENDBRANCH   1  18
TORSDOF 6
