REMARK  Name = ZINC04104643
REMARK  4 active torsions:
REMARK  status: ('A' for Active; 'I' for Inactive)
REMARK    1  A    between atoms: C_1  and  C_2
REMARK    2  A    between atoms: C_13  and  O_15
REMARK    3  A    between atoms: C_20  and  C_27
REMARK    4  A    between atoms: C_23  and  O_26
REMARK                            x       y       z     vdW  Elec       q    Type
REMARK                         _______ _______ _______ _____ _____    ______ ____
ROOT
ATOM      1  C   UNL     1      -0.437   4.904  -2.661  0.00  0.00    +0.014 C 
ATOM      2  C   UNL     1      -1.929   4.750  -2.358  0.00  0.00    -0.003 C 
ATOM      3  C   UNL     1      -2.420   5.805  -1.401  0.00  0.00    +0.010 C 
ATOM      4  C   UNL     1      -2.221   5.378   0.058  0.00  0.00    +0.005 C 
ATOM      5  C   UNL     1      -1.211   4.244   0.190  0.00  0.00    +0.000 C 
ATOM      6  C   UNL     1      -1.708   3.000  -0.532  0.00  0.00    -0.002 C 
ATOM      7  C   UNL     1      -2.307   3.337  -1.864  0.00  0.00    +0.001 C 
ATOM      8  C   UNL     1      -1.927   2.468  -3.066  0.00  0.00    +0.007 C 
ATOM      9  C   UNL     1      -2.301   3.346  -4.290  0.00  0.00    +0.032 C 
ATOM     10  C   UNL     1      -2.678   4.740  -3.718  0.00  0.00    +0.121 C 
ATOM     11  C   UNL     1      -0.642   1.919  -0.593  0.00  0.00    +0.025 C 
ATOM     12  C   UNL     1       0.070   1.768   0.754  0.00  0.00    +0.102 C 
ATOM     13  C   UNL     1      -0.719   2.435   1.861  0.00  0.00    +0.069 C 
ATOM     14  C   UNL     1      -0.902   3.934   1.649  0.00  0.00    -0.008 C 
ATOM     15  C   UNL     1      -1.992   4.406   2.611  0.00  0.00    +0.011 C 
ATOM     16  C   UNL     1      -1.535   4.152   4.050  0.00  0.00    +0.032 C 
ATOM     17  C   UNL     1      -1.106   2.712   4.292  0.00  0.00    +0.116 C 
ATOM     18  C   UNL     1      -0.106   2.210   3.247  0.00  0.00    +0.056 C 
ATOM     19  C   UNL     1       0.385   4.698   1.992  0.00  0.00    +0.013 C 
ATOM     20 CL   UNL     1      -2.360   1.659   1.916  0.00  0.00    -0.116 Cl
ATOM     21 CL   UNL     1       1.748   2.411   0.648  0.00  0.00    -0.120 Cl
ENDROOT
BRANCH  10  22
ATOM     22  O   UNL     1      -2.189   5.785  -4.555  0.00  0.00    -0.391 OA
ATOM     23  H   UNL     1      -2.551   5.773  -5.452  0.00  0.00    +0.210 HD
ENDBRANCH  10  22
BRANCH  17  24
ATOM     24  O   UNL     1      -0.503   2.617   5.590  0.00  0.00    -0.392 OA
ATOM     25  H   UNL     1      -1.090   2.870   6.315  0.00  0.00    +0.210 HD
ENDBRANCH  17  24
TORSDOF 2
