REMARK  Name = ZINC59292939
REMARK  8 active torsions:
REMARK  status: ('A' for Active; 'I' for Inactive)
REMARK    1  A    between atoms: C_1  and  C_2
REMARK    2  A    between atoms: C_20  and  C_24
REMARK    3  A    between atoms: C_21  and  N_23
REMARK    4  A    between atoms: C_24  and  O_26
REMARK    5  A    between atoms: O_26  and  C_27
REMARK    6  A    between atoms: C_27  and  C_28
REMARK    7  A    between atoms: C_27  and  C_29
REMARK    8  A    between atoms: C_27  and  C_30
REMARK                            x       y       z     vdW  Elec       q    Type
REMARK                         _______ _______ _______ _____ _____    ______ ____
ROOT
ATOM      1  C   UNL     1       0.007   1.496   0.069  0.00  0.00    +0.086 C 
ATOM      2  C   UNL     1       0.018  -0.009   0.015  0.00  0.00    +0.110 A 
ATOM      3  C   UNL     1      -1.149  -0.675   0.089  0.00  0.00    +0.088 A 
ATOM      4  C   UNL     1      -1.152  -2.087   0.038  0.00  0.00    +0.145 A 
ATOM      5  C   UNL     1       0.056  -2.742  -0.091  0.00  0.00    +0.103 A 
ATOM      6  C   UNL     1       1.232  -1.985  -0.163  0.00  0.00    +0.345 A 
ATOM      7  O   UNL     1       2.307  -2.551  -0.278  0.00  0.00    -0.245 OA
ATOM      8  O   UNL     1       1.188  -0.645  -0.112  0.00  0.00    -0.427 OA
ATOM      9  C   UNL     1       0.110  -4.241  -0.153  0.00  0.00    +0.145 C 
ATOM     10  C   UNL     1       0.681  -4.809   1.109  0.00  0.00    -0.001 A 
ATOM     11  C   UNL     1       0.247  -4.746   2.416  0.00  0.00    +0.022 A 
ATOM     12  C   UNL     1       1.025  -5.394   3.371  0.00  0.00    +0.018 A 
ATOM     13  C   UNL     1       2.178  -6.068   3.021  0.00  0.00    +0.017 A 
ATOM     14  C   UNL     1       2.620  -6.135   1.709  0.00  0.00    +0.025 A 
ATOM     15  C   UNL     1       1.848  -5.489   0.742  0.00  0.00    +0.038 A 
ATOM     16  N   UNL     1       2.050  -5.394  -0.624  0.00  0.00    -0.284 N 
ATOM     17  C   UNL     1       1.080  -4.679  -1.231  0.00  0.00    +0.237 C 
ATOM     18  O   UNL     1       1.000  -4.433  -2.416  0.00  0.00    -0.274 OA
ATOM     19 BR   UNL     1       0.492  -5.350   5.184  0.00  0.00    -0.050 Br
ATOM     20  C   UNL     1      -1.253  -4.808  -0.430  0.00  0.00    +0.117 C 
ATOM     21  C   UNL     1      -2.370  -4.051  -0.283  0.00  0.00    +0.196 C 
ATOM     22  O   UNL     1      -2.312  -2.769   0.116  0.00  0.00    -0.441 OA
ATOM     23  H   UNL     1       2.801  -5.794  -1.090  0.00  0.00    +0.155 HD
ENDROOT
BRANCH  21  24
ATOM     24  N   UNL     1      -3.591  -4.609  -0.550  0.00  0.00    -0.329 N 
ATOM     25  H   UNL     1      -3.659  -5.556  -0.751  0.00  0.00    +0.145 HD
ATOM     26  H   UNL     1      -4.390  -4.058  -0.537  0.00  0.00    +0.145 HD
ENDBRANCH  21  24
BRANCH  20  27
ATOM     27  C   UNL     1      -1.373  -6.143  -0.847  0.00  0.00    +0.342 C 
ATOM     28  O   UNL     1      -1.296  -7.045  -0.032  0.00  0.00    -0.245 OA
BRANCH  27  29
ATOM     29  O   UNL     1      -1.573  -6.426  -2.152  0.00  0.00    -0.455 OA
BRANCH  29  30
ATOM     30  C   UNL     1      -1.687  -7.806  -2.506  0.00  0.00    +0.106 C 
ATOM     31  C   UNL     1      -2.871  -8.428  -1.764  0.00  0.00    +0.055 C 
ATOM     32  C   UNL     1      -1.909  -7.929  -4.015  0.00  0.00    +0.055 C 
ATOM     33  C   UNL     1      -0.401  -8.539  -2.119  0.00  0.00    +0.055 C 
ENDBRANCH  29  30
ENDBRANCH  27  29
ENDBRANCH  20  27
TORSDOF 4
