REMARK  Name = ZINC13272396
REMARK  7 active torsions:
REMARK  status: ('A' for Active; 'I' for Inactive)
REMARK    1  A    between atoms: C_1  and  N_2
REMARK    2  A    between atoms: C_3  and  C_21
REMARK    3  A    between atoms: C_6  and  S_7
REMARK    4  A    between atoms: S_7  and  C_8
REMARK    5  A    between atoms: C_8  and  C_9
REMARK    6  A    between atoms: N_11  and  C_12
REMARK    7  A    between atoms: C_17  and  C_18
REMARK                            x       y       z     vdW  Elec       q    Type
REMARK                         _______ _______ _______ _____ _____    ______ ____
ROOT
ATOM      1  C   UNL     1       3.729  10.701   0.220  0.00  0.00    +0.228 C 
ATOM      2  O   UNL     1       4.873  10.445   0.532  0.00  0.00    -0.275 OA
ATOM      3  N   UNL     1       3.354  11.980   0.022  0.00  0.00    -0.284 N 
ATOM      4  H   UNL     1       2.458  12.180  -0.291  0.00  0.00    +0.155 HD
ENDROOT
BRANCH   3   5
ATOM      5  C   UNL     1       4.254  13.015   0.268  0.00  0.00    +0.048 A 
ATOM      6  C   UNL     1       5.605  12.843   0.001  0.00  0.00    +0.025 A 
ATOM      7  C   UNL     1       6.495  13.869   0.244  0.00  0.00    +0.017 A 
ATOM      8  C   UNL     1       6.048  15.079   0.755  0.00  0.00    +0.019 A 
ATOM      9  C   UNL     1       4.710  15.268   1.026  0.00  0.00    +0.032 A 
ATOM     10  C   UNL     1       3.797  14.239   0.780  0.00  0.00    +0.085 A 
ATOM     11 BR   UNL     1       7.281  16.474   1.083  0.00  0.00    -0.050 Br
BRANCH  10  12
ATOM     12  C   UNL     1       2.364  14.436   1.062  0.00  0.00    +0.388 C 
ATOM     13  O   UNL     1       1.588  13.509   0.942  0.00  0.00    -0.241 OA
ATOM     14  O   UNL     1       1.914  15.645   1.451  0.00  0.00    -0.241 OA
ENDBRANCH  10  12
ENDBRANCH   3   5
BRANCH   1  15
ATOM     15  C   UNL     1       2.727   9.588   0.052  0.00  0.00    +0.173 C 
BRANCH  15  16
ATOM     16  S   UNL     1       3.529   7.999   0.384  0.00  0.00    -0.077 S 
BRANCH  16  22
ATOM     17  C   UNL     1       3.332   4.704   0.595  0.00  0.00    +0.153 C 
ATOM     18  N   UNL     1       2.189   5.547   0.236  0.00  0.00    -0.305 N 
ATOM     19  C   UNL     1       0.909   5.132  -0.059  0.00  0.00    +0.171 A 
ATOM     20  N   UNL     1       0.208   6.211  -0.330  0.00  0.00    -0.128 NA
ATOM     21  N   UNL     1       0.949   7.255  -0.218  0.00  0.00    -0.122 NA
ATOM     22  C   UNL     1       2.170   6.909   0.123  0.00  0.00    +0.192 A 
BRANCH  19  23
ATOM     23  C   UNL     1       0.421   3.744  -0.074  0.00  0.00    +0.056 A 
ATOM     24  C   UNL     1      -0.871   3.282  -0.083  0.00  0.00    +0.019 A 
ATOM     25  C   UNL     1      -1.086   1.922  -0.102  0.00  0.00    +0.008 A 
ATOM     26  C   UNL     1      -0.019   1.082  -0.103  0.00  0.00    +0.046 A 
ATOM     27  S   UNL     1       1.355   2.222  -0.087  0.00  0.00    -0.094 S 
ENDBRANCH  19  23
ENDBRANCH  16  22
ENDBRANCH  15  16
ENDBRANCH   1  15
TORSDOF 6
