REMARK  Name = ZINC35591873
REMARK  15 active torsions:
REMARK  status: ('A' for Active; 'I' for Inactive)
REMARK    1  A    between atoms: C_1  and  C_2
REMARK    2  A    between atoms: C_6  and  C_8
REMARK    3  A    between atoms: C_8  and  O_9
REMARK    4  A    between atoms: O_9  and  C_10
REMARK    5  A    between atoms: C_10  and  C_31
REMARK    6  A    between atoms: C_12  and  O_30
REMARK    7  A    between atoms: C_14  and  O_29
REMARK    8  A    between atoms: C_16  and  O_19
REMARK    9  A    between atoms: O_19  and  C_20
REMARK   10  A    between atoms: C_20  and  C_21
REMARK   11  A    between atoms: N_33  and  C_34
REMARK   12  A    between atoms: C_34  and  C_35
REMARK   13  A    between atoms: C_35  and  N_36
REMARK   14  A    between atoms: N_36  and  C_37
REMARK   15  A    between atoms: N_36  and  C_38
REMARK                            x       y       z     vdW  Elec       q    Type
REMARK                         _______ _______ _______ _____ _____    ______ ____
ROOT
ATOM      1  C   UNL     1       1.535  -3.684   4.175  0.00  0.00    +0.150 C 
ATOM      2  C   UNL     1       1.149  -5.158   4.318  0.00  0.00    +0.078 C 
ATOM      3  C   UNL     1       1.515  -5.648   5.720  0.00  0.00    +0.149 C 
ATOM      4  C   UNL     1       3.022  -5.492   5.938  0.00  0.00    +0.172 C 
ATOM      5  C   UNL     1       3.407  -4.018   5.796  0.00  0.00    +0.153 C 
ATOM      6  C   UNL     1       3.042  -3.528   4.393  0.00  0.00    +0.079 C 
ENDROOT
BRANCH   1   7
ATOM      7  C   UNL     1       0.792  -2.869   5.202  0.00  0.00    +0.245 C 
ATOM      8  O   UNL     1       0.304  -3.412   6.170  0.00  0.00    -0.273 OA
ATOM      9  N   UNL     1       0.669  -1.536   5.044  0.00  0.00    -0.315 N 
ATOM     10  H   UNL     1       1.120  -1.091   4.309  0.00  0.00    +0.149 HD
BRANCH   9  11
ATOM     11  C   UNL     1      -0.145  -0.759   5.982  0.00  0.00    +0.086 C 
BRANCH  11  12
ATOM     12  C   UNL     1      -0.118   0.717   5.579  0.00  0.00    -0.061 C 
BRANCH  12  13
ATOM     13  N   UNL     1      -0.934   1.496   6.520  0.00  0.00    +0.377 N 
ATOM     14  C   UNL     1      -0.812   2.926   6.206  0.00  0.00    -0.097 C 
ATOM     15  C   UNL     1      -2.340   1.087   6.402  0.00  0.00    -0.097 C 
ATOM     16  H   UNL     1      -0.613   1.329   7.462  0.00  0.00    -0.083 HD
ENDBRANCH  12  13
ENDBRANCH  11  12
ENDBRANCH   9  11
ENDBRANCH   1   7
BRANCH   4  17
ATOM     17  O   UNL     1       3.727  -6.265   4.965  0.00  0.00    -0.387 OA
ATOM     18  H   UNL     1       3.530  -7.211   4.997  0.00  0.00    +0.210 HD
ENDBRANCH   4  17
BRANCH   3  19
ATOM     19  O   UNL     1       1.155  -7.024   5.853  0.00  0.00    -0.389 OA
ATOM     20  H   UNL     1       1.359  -7.402   6.720  0.00  0.00    +0.210 HD
ENDBRANCH   3  19
BRANCH   1  21
ATOM     21  O   UNL     1       1.194  -3.227   2.865  0.00  0.00    -0.359 OA
BRANCH  21  22
ATOM     22  C   UNL     1      -0.204  -3.291   2.573  0.00  0.00    +0.196 C 
BRANCH  22  28
ATOM     23  C   UNL     1      -1.282   0.710  -0.233  0.00  0.00    +0.044 C 
ATOM     24  C   UNL     1      -0.980  -0.762  -0.120  0.00  0.00    -0.050 A 
ATOM     25  C   UNL     1      -0.941  -1.549  -1.257  0.00  0.00    +0.003 A 
ATOM     26  C   UNL     1      -0.664  -2.899  -1.153  0.00  0.00    +0.001 A 
ATOM     27  C   UNL     1      -0.425  -3.463   0.086  0.00  0.00    +0.006 A 
ATOM     28  C   UNL     1      -0.463  -2.676   1.222  0.00  0.00    -0.022 A 
ATOM     29  C   UNL     1      -0.736  -1.325   1.118  0.00  0.00    +0.009 A 
ENDBRANCH  22  28
ENDBRANCH  21  22
ENDBRANCH   1  21
BRANCH   5  30
ATOM     30  O   UNL     1       4.814  -3.872   6.000  0.00  0.00    -0.369 OA
BRANCH  30  31
ATOM     31  C   UNL     1       5.183  -3.636   7.360  0.00  0.00    +0.198 C 
BRANCH  31  32
ATOM     32  C   UNL     1       6.681  -3.499   7.457  0.00  0.00    +0.016 A 
ATOM     33  C   UNL     1       7.460  -3.601   6.320  0.00  0.00    +0.009 A 
ATOM     34  C   UNL     1       8.834  -3.475   6.408  0.00  0.00    +0.003 A 
ATOM     35  C   UNL     1       9.431  -3.247   7.633  0.00  0.00    +0.041 A 
ATOM     36  C   UNL     1       8.654  -3.143   8.774  0.00  0.00    +0.159 A 
ATOM     37  C   UNL     1       7.276  -3.264   8.685  0.00  0.00    +0.164 A 
ATOM     38  F   UNL     1       6.514  -3.159   9.796  0.00  0.00    -0.202 F 
ATOM     39  F   UNL     1       9.238  -2.921   9.972  0.00  0.00    -0.202 F 
ENDBRANCH  31  32
ENDBRANCH  30  31
ENDBRANCH   5  30
TORSDOF 12
