REMARK  Name = ZINC39663304
REMARK  7 active torsions:
REMARK  status: ('A' for Active; 'I' for Inactive)
REMARK    1  A    between atoms: C_1  and  C_2
REMARK    2  A    between atoms: C_2  and  C_3
REMARK    3  A    between atoms: C_3  and  C_5
REMARK    4  A    between atoms: C_3  and  C_6
REMARK    5  A    between atoms: C_6  and  C_7
REMARK    6  A    between atoms: C_11  and  C_20
REMARK    7  A    between atoms: N_22  and  C_23
REMARK                            x       y       z     vdW  Elec       q    Type
REMARK                         _______ _______ _______ _____ _____    ______ ____
ROOT
ATOM      1  C   UNL     1      -2.530  -2.590  -0.335  0.00  0.00    +0.216 C 
ATOM      2  O   UNL     1      -3.391  -1.737  -0.336  0.00  0.00    -0.276 OA
ATOM      3  N   UNL     1      -2.870  -3.891  -0.426  0.00  0.00    -0.300 N 
ATOM      4  C   UNL     1      -1.969  -5.067  -0.435  0.00  0.00    +0.121 C 
ATOM      5  C   UNL     1      -2.705  -6.129   0.413  0.00  0.00    +0.100 C 
ATOM      6  C   UNL     1      -4.189  -5.732   0.338  0.00  0.00    -0.004 C 
ATOM      7  C   UNL     1      -4.231  -4.469  -0.535  0.00  0.00    +0.115 C 
ATOM      8  C   UNL     1      -4.724  -5.421   1.732  0.00  0.00    -0.010 C 
ATOM      9  C   UNL     1      -6.215  -5.084   1.638  0.00  0.00    -0.082 C 
ATOM     10  N   UNL     1      -6.939  -6.221   1.056  0.00  0.00    +0.379 N 
ATOM     11  C   UNL     1      -6.483  -6.454  -0.319  0.00  0.00    -0.082 C 
ATOM     12  C   UNL     1      -5.003  -6.849  -0.308  0.00  0.00    -0.010 C 
ATOM     13  H   UNL     1      -6.768  -7.046   1.611  0.00  0.00    -0.086 HD
ATOM     14  H   UNL     1      -7.928  -6.020   1.051  0.00  0.00    -0.086 HD
ENDROOT
BRANCH   5  15
ATOM     15  C   UNL     1      -2.220  -6.090   1.839  0.00  0.00    +0.218 C 
ATOM     16  O   UNL     1      -1.828  -5.047   2.318  0.00  0.00    -0.275 OA
ATOM     17  N   UNL     1      -2.223  -7.214   2.583  0.00  0.00    -0.314 N 
ATOM     18  H   UNL     1      -2.537  -8.048   2.200  0.00  0.00    +0.149 HD
BRANCH  17  19
ATOM     19  C   UNL     1      -1.752  -7.176   3.970  0.00  0.00    +0.059 C 
ATOM     20  C   UNL     1      -0.231  -7.343   4.000  0.00  0.00    -0.056 C 
ATOM     21  N   UNL     1       0.127  -8.537   4.770  0.00  0.00    +0.381 N 
ATOM     22  C   UNL     1      -0.435  -9.739   4.149  0.00  0.00    -0.078 C 
ATOM     23  C   UNL     1      -1.962  -9.651   4.124  0.00  0.00    -0.014 C 
ATOM     24  C   UNL     1      -2.395  -8.321   4.763  0.00  0.00    +0.004 C 
ATOM     25  C   UNL     1      -1.855  -8.278   6.199  0.00  0.00    -0.014 C 
ATOM     26  C   UNL     1      -0.329  -8.412   6.157  0.00  0.00    -0.078 C 
ATOM     27  H   UNL     1       1.132  -8.627   4.771  0.00  0.00    -0.082 HD
ENDBRANCH  17  19
ENDBRANCH   5  15
BRANCH   1  28
ATOM     28  C   UNL     1      -1.079  -2.197  -0.232  0.00  0.00    +0.099 C 
BRANCH  28  29
ATOM     29  C   UNL     1      -0.969  -0.673  -0.141  0.00  0.00    -0.006 C 
ATOM     30  C   UNL     1      -1.613  -0.192   1.161  0.00  0.00    +0.008 C 
BRANCH  29  32
ATOM     31  C   UNL     1       0.613   1.260  -0.197  0.00  0.00    +0.004 C 
ATOM     32  C   UNL     1       0.505  -0.266  -0.162  0.00  0.00    +0.000 C 
ENDBRANCH  29  32
ENDBRANCH  28  29
ENDBRANCH   1  28
TORSDOF 5
