REMARK  Name = ZINC20679787
REMARK  2 active torsions:
REMARK  status: ('A' for Active; 'I' for Inactive)
REMARK    1  A    between atoms: C_3  and  O_25
REMARK    2  A    between atoms: C_6  and  C_7
REMARK                            x       y       z     vdW  Elec       q    Type
REMARK                         _______ _______ _______ _____ _____    ______ ____
ROOT
ATOM      1  C   UNL     1      -0.018   1.510   0.010  0.00  0.00    +0.105 C 
ATOM      2  C   UNL     1       0.002  -0.004   0.002  0.00  0.00    +0.029 C 
ATOM      3  C   UNL     1      -1.338  -0.742   0.100  0.00  0.00    +0.033 C 
ATOM      4  C   UNL     1      -0.921  -2.037   0.802  0.00  0.00    -0.030 C 
ATOM      5  C   UNL     1       0.171  -1.827   1.529  0.00  0.00    -0.023 C 
ATOM      6  C   UNL     1       0.549  -0.398   1.410  0.00  0.00    +0.050 C 
ATOM      7  C   UNL     1       1.953   0.063   1.464  0.00  0.00    +0.000 A 
ATOM      8  C   UNL     1       2.917  -0.626   2.173  0.00  0.00    +0.047 A 
ATOM      9  C   UNL     1       4.220  -0.164   2.218  0.00  0.00    +0.022 A 
ATOM     10  C   UNL     1       4.556   0.998   1.547  0.00  0.00    +0.023 A 
ATOM     11  C   UNL     1       3.602   1.689   0.833  0.00  0.00    +0.062 A 
ATOM     12  C   UNL     1       2.283   1.231   0.772  0.00  0.00    +0.051 A 
ATOM     13  N   UNL     1       1.382   1.962  -0.001  0.00  0.00    -0.335 N 
ATOM     14 CL   UNL     1       4.043   3.146  -0.001  0.00  0.00    -0.082 Cl
ATOM     15 CL   UNL     1       2.490  -2.082   3.015  0.00  0.00    -0.083 Cl
ATOM     16  H   UNL     1       1.673   2.838  -0.599  0.00  0.00    +0.147 HD
ENDROOT
BRANCH   1  22
ATOM     17  C   UNL     1      -0.068   2.082  -2.426  0.00  0.00    +0.009 A 
ATOM     18  C   UNL     1      -0.722   2.544  -3.551  0.00  0.00    +0.046 A 
ATOM     19  C   UNL     1      -2.043   2.959  -3.463  0.00  0.00    +0.117 A 
ATOM     20  C   UNL     1      -2.706   2.902  -2.245  0.00  0.00    +0.046 A 
ATOM     21  C   UNL     1      -2.049   2.434  -1.124  0.00  0.00    +0.009 A 
ATOM     22  C   UNL     1      -0.733   2.021  -1.214  0.00  0.00    -0.027 A 
BRANCH  19  23
ATOM     23  O   UNL     1      -2.687   3.419  -4.568  0.00  0.00    -0.507 OA
ATOM     24  H   UNL     1      -3.735   3.748  -4.497  0.00  0.00    +0.292 HD
ENDBRANCH  19  23
ENDBRANCH   1  22
TORSDOF 2
