REMARK  Name = ZINC05649831
REMARK  4 active torsions:
REMARK  status: ('A' for Active; 'I' for Inactive)
REMARK    1  A    between atoms: C_5  and  N_7
REMARK    2  A    between atoms: C_8  and  O_21
REMARK    3  A    between atoms: C_10  and  C_12
REMARK    4  A    between atoms: C_15  and  N_18
REMARK                            x       y       z     vdW  Elec       q    Type
REMARK                         _______ _______ _______ _____ _____    ______ ____
ROOT
ATOM      1  N   UNL     1      -0.706   3.158  -0.043  0.00  0.00    -0.199 N 
ATOM      2  C   UNL     1      -1.120   1.862  -0.022  0.00  0.00    +0.216 A 
ATOM      3  C   UNL     1      -0.016   1.076   0.053  0.00  0.00    +0.097 A 
ATOM      4  C   UNL     1       1.113   1.919   0.069  0.00  0.00    +0.097 A 
ATOM      5  N   UNL     1       0.694   3.166   0.011  0.00  0.00    -0.163 NA
ENDROOT
BRANCH   1  10
ATOM      6  C   UNL     1      -3.374   5.452  -1.115  0.00  0.00    +0.002 A 
ATOM      7  C   UNL     1      -3.171   6.513  -0.251  0.00  0.00    +0.001 A 
ATOM      8  C   UNL     1      -2.151   6.463   0.681  0.00  0.00    +0.017 A 
ATOM      9  C   UNL     1      -1.335   5.350   0.757  0.00  0.00    +0.043 A 
ATOM     10  C   UNL     1      -1.534   4.286  -0.113  0.00  0.00    +0.083 A 
ATOM     11  C   UNL     1      -2.559   4.340  -1.049  0.00  0.00    +0.029 A 
ATOM     12 BR   UNL     1       0.054   5.280   2.038  0.00  0.00    -0.048 Br
ENDBRANCH   1  10
BRANCH   4  13
ATOM     13  C   UNL     1       2.528   1.479   0.138  0.00  0.00    +0.002 A 
ATOM     14  C   UNL     1       2.835   0.121   0.201  0.00  0.00    +0.012 A 
ATOM     15  C   UNL     1       4.153  -0.284   0.260  0.00  0.00    +0.033 A 
ATOM     16  C   UNL     1       5.168   0.656   0.268  0.00  0.00    +0.126 A 
ATOM     17  C   UNL     1       4.868   2.006   0.212  0.00  0.00    +0.033 A 
ATOM     18  C   UNL     1       3.554   2.421   0.147  0.00  0.00    +0.012 A 
BRANCH  16  19
ATOM     19  N   UNL     1       6.580   0.217   0.337  0.00  0.00    +0.056 N 
ATOM     20  O   UNL     1       7.475   1.042   0.345  0.00  0.00    -0.126 OA
ATOM     21  O   UNL     1       6.846  -0.971   0.387  0.00  0.00    -0.126 OA
ENDBRANCH  16  19
ENDBRANCH   4  13
BRANCH   2  22
ATOM     22  O   UNL     1      -2.407   1.432  -0.066  0.00  0.00    -0.492 OA
ATOM     23  H   UNL     1      -2.628   0.354  -0.043  0.00  0.00    +0.294 HD
ENDBRANCH   2  22
TORSDOF 4
