REMARK  Name = ZINC43223360
REMARK  7 active torsions:
REMARK  status: ('A' for Active; 'I' for Inactive)
REMARK    1  A    between atoms: C_4  and  O_7
REMARK    2  A    between atoms: O_7  and  C_8
REMARK    3  A    between atoms: C_8  and  C_9
REMARK    4  A    between atoms: C_9  and  N_10
REMARK    5  A    between atoms: C_11  and  C_13
REMARK    6  A    between atoms: C_18  and  C_20
REMARK    7  A    between atoms: N_22  and  C_23
REMARK                            x       y       z     vdW  Elec       q    Type
REMARK                         _______ _______ _______ _____ _____    ______ ____
ROOT
ATOM      1  C   UNL     1       7.609  -2.295   2.676  0.00  0.00    +0.068 C 
ATOM      2  C   UNL     1       6.891  -2.937   3.882  0.00  0.00    -0.069 C 
ATOM      3  N   UNL     1       7.632  -4.201   4.129  0.00  0.00    +0.380 N 
ATOM      4  C   UNL     1       9.056  -3.837   3.912  0.00  0.00    -0.069 C 
ATOM      5  C   UNL     1       9.035  -2.885   2.694  0.00  0.00    +0.068 C 
ATOM      6  H   UNL     1       7.489  -4.514   5.078  0.00  0.00    -0.086 HD
ATOM      7  H   UNL     1       7.346  -4.912   3.474  0.00  0.00    -0.086 HD
ENDROOT
BRANCH   1   9
ATOM      8  N   UNL     1       5.636  -2.268   1.185  0.00  0.00    -0.312 N 
ATOM      9  C   UNL     1       6.908  -2.661   1.393  0.00  0.00    +0.215 C 
ATOM     10  O   UNL     1       7.488  -3.309   0.548  0.00  0.00    -0.276 OA
ATOM     11  H   UNL     1       5.171  -1.750   1.861  0.00  0.00    +0.149 HD
BRANCH   8  12
ATOM     12  C   UNL     1       4.954  -2.624  -0.061  0.00  0.00    +0.145 C 
BRANCH  12  13
ATOM     13  C   UNL     1       3.531  -2.060  -0.044  0.00  0.00    +0.247 C 
BRANCH  13  14
ATOM     14  O   UNL     1       3.586  -0.632  -0.037  0.00  0.00    -0.490 OA
BRANCH  14  18
ATOM     15  C   UNL     1      -0.017   1.378   0.010  0.00  0.00    +0.000 A 
ATOM     16  C   UNL     1       1.170   2.088   0.002  0.00  0.00    +0.004 A 
ATOM     17  C   UNL     1       2.377   1.417  -0.013  0.00  0.00    +0.045 A 
ATOM     18  C   UNL     1       2.399   0.030  -0.021  0.00  0.00    +0.121 A 
ATOM     19  C   UNL     1       1.207  -0.680  -0.013  0.00  0.00    +0.045 A 
ATOM     20  C   UNL     1       0.002  -0.004   0.002  0.00  0.00    +0.004 A 
ENDBRANCH  14  18
ENDBRANCH  13  14
ENDBRANCH  12  13
ENDBRANCH   8  12
ENDBRANCH   1   9
BRANCH   5  21
ATOM     21  C   UNL     1      10.053  -1.788   2.867  0.00  0.00    +0.215 C 
ATOM     22  O   UNL     1       9.691  -0.635   2.969  0.00  0.00    -0.276 OA
ATOM     23  N   UNL     1      11.366  -2.088   2.910  0.00  0.00    -0.308 N 
ATOM     24  H   UNL     1      11.656  -3.010   2.829  0.00  0.00    +0.149 HD
BRANCH  23  25
ATOM     25  C   UNL     1      12.356  -1.021   3.078  0.00  0.00    +0.104 C 
ATOM     26  C   UNL     1      13.661  -1.591   3.676  0.00  0.00    +0.032 C 
ATOM     27  C   UNL     1      14.743  -0.733   2.988  0.00  0.00    +0.037 C 
ATOM     28  C   UNL     1      14.124  -0.289   1.680  0.00  0.00    -0.042 A 
ATOM     29  C   UNL     1      12.751  -0.453   1.732  0.00  0.00    -0.024 A 
ATOM     30  C   UNL     1      11.971  -0.108   0.641  0.00  0.00    +0.006 A 
ATOM     31  C   UNL     1      12.560   0.401  -0.501  0.00  0.00    +0.000 A 
ATOM     32  C   UNL     1      13.931   0.567  -0.555  0.00  0.00    +0.000 A 
ATOM     33  C   UNL     1      14.714   0.219   0.535  0.00  0.00    +0.004 A 
ENDBRANCH  23  25
ENDBRANCH   5  21
TORSDOF 7
