REMARK  Name = ZINC20718816
REMARK  6 active torsions:
REMARK  status: ('A' for Active; 'I' for Inactive)
REMARK    1  A    between atoms: C_1  and  N_2
REMARK    2  A    between atoms: N_5  and  S_8
REMARK    3  A    between atoms: S_8  and  C_11
REMARK    4  A    between atoms: C_24  and  C_27
REMARK    5  A    between atoms: C_36  and  O_37
REMARK    6  A    between atoms: O_37  and  C_38
REMARK                            x       y       z     vdW  Elec       q    Type
REMARK                         _______ _______ _______ _____ _____    ______ ____
ROOT
ATOM      1  C   UNL     1       4.058   0.345   0.103  0.00  0.00    +0.106 A 
ATOM      2  C   UNL     1       3.944   0.071  -1.248  0.00  0.00    +0.030 A 
ATOM      3  C   UNL     1       2.761   0.328  -1.909  0.00  0.00    +0.025 A 
ATOM      4  C   UNL     1       1.677   0.864  -1.226  0.00  0.00    +0.031 A 
ATOM      5  C   UNL     1       1.804   1.152   0.138  0.00  0.00    -0.018 A 
ATOM      6  C   UNL     1       2.988   0.886   0.791  0.00  0.00    +0.034 A 
ATOM      7  C   UNL     1       0.635   1.745   0.822  0.00  0.00    +0.049 C 
ATOM      8  C   UNL     1       0.414   1.586   2.282  0.00  0.00    -0.023 C 
ATOM      9  C   UNL     1      -0.893   1.582   2.515  0.00  0.00    -0.030 C 
ATOM     10  C   UNL     1      -1.660   1.708   1.197  0.00  0.00    +0.033 C 
ATOM     11  C   UNL     1      -0.651   1.127   0.197  0.00  0.00    +0.029 C 
ATOM     12  C   UNL     1      -0.692   1.638  -1.233  0.00  0.00    +0.109 C 
ATOM     13  N   UNL     1       0.475   1.081  -1.910  0.00  0.00    -0.336 N 
ATOM     14  H   UNL     1       0.419   0.823  -2.978  0.00  0.00    +0.147 HD
ENDROOT
BRANCH  12  15
ATOM     15  C   UNL     1      -0.600   3.142  -1.250  0.00  0.00    +0.022 A 
ATOM     16  C   UNL     1      -1.751   3.922  -1.049  0.00  0.00    -0.009 A 
ATOM     17  C   UNL     1      -3.005   3.328  -0.827  0.00  0.00    +0.009 A 
ATOM     18  C   UNL     1      -4.099   4.114  -0.635  0.00  0.00    +0.001 A 
ATOM     19  C   UNL     1      -3.995   5.504  -0.654  0.00  0.00    +0.001 A 
ATOM     20  C   UNL     1      -2.797   6.115  -0.865  0.00  0.00    +0.008 A 
ATOM     21  C   UNL     1      -1.645   5.336  -1.068  0.00  0.00    -0.017 A 
ATOM     22  C   UNL     1      -0.392   5.932  -1.289  0.00  0.00    +0.012 A 
ATOM     23  C   UNL     1       0.704   5.149  -1.480  0.00  0.00    +0.046 A 
ATOM     24  C   UNL     1       0.603   3.755  -1.456  0.00  0.00    +0.126 A 
BRANCH  24  25
ATOM     25  O   UNL     1       1.716   2.999  -1.646  0.00  0.00    -0.495 OA
ATOM     26  C   UNL     1       2.946   3.696  -1.857  0.00  0.00    +0.277 C 
ENDBRANCH  24  25
ENDBRANCH  12  15
BRANCH   1  27
ATOM     27  S   UNL     1       5.568   0.006   0.947  0.00  0.00    +0.061 S 
ATOM     28  O   UNL     1       6.593   0.011  -0.037  0.00  0.00    -0.153 OA
ATOM     29  O   UNL     1       5.598   0.858   2.083  0.00  0.00    -0.153 OA
BRANCH  27  34
ATOM     30  C   UNL     1       3.462  -5.194   2.037  0.00  0.00    -0.096 C 
ATOM     31  N   UNL     1       4.408  -4.070   2.031  0.00  0.00    +0.380 N 
ATOM     32  C   UNL     1       4.813  -3.729   0.661  0.00  0.00    -0.062 C 
ATOM     33  C   UNL     1       5.929  -2.680   0.707  0.00  0.00    +0.091 C 
ATOM     34  N   UNL     1       5.470  -1.544   1.520  0.00  0.00    -0.180 NA
ATOM     35  C   UNL     1       4.927  -1.821   2.859  0.00  0.00    +0.091 C 
ATOM     36  C   UNL     1       3.844  -2.904   2.725  0.00  0.00    -0.062 C 
ATOM     37  H   UNL     1       5.309  -4.381   2.579  0.00  0.00    -0.082 HD
ENDBRANCH  27  34
ENDBRANCH   1  27
TORSDOF 4
