REMARK  Name = ZINC41514942
REMARK  7 active torsions:
REMARK  status: ('A' for Active; 'I' for Inactive)
REMARK    1  A    between atoms: C_1  and  C_2
REMARK    2  A    between atoms: C_2  and  N_3
REMARK    3  A    between atoms: N_6  and  C_9
REMARK    4  A    between atoms: C_9  and  C_10
REMARK    5  A    between atoms: C_11  and  O_33
REMARK    6  A    between atoms: C_13  and  C_32
REMARK    7  A    between atoms: C_18  and  C_19
REMARK                            x       y       z     vdW  Elec       q    Type
REMARK                         _______ _______ _______ _____ _____    ______ ____
ROOT
ATOM      1  C   UNL     1       2.932  -4.136  -2.768  0.00  0.00    +0.051 A 
ATOM      2  C   UNL     1       3.904  -4.769  -2.009  0.00  0.00    +0.125 A 
ATOM      3  C   UNL     1       4.061  -6.151  -2.069  0.00  0.00    +0.050 A 
ATOM      4  C   UNL     1       3.256  -6.899  -2.881  0.00  0.00    -0.033 A 
ATOM      5  C   UNL     1       2.273  -6.275  -3.651  0.00  0.00    +0.071 A 
ATOM      6  C   UNL     1       2.101  -4.883  -3.594  0.00  0.00    +0.148 A 
ATOM      7  O   UNL     1       1.094  -4.515  -4.415  0.00  0.00    -0.451 OA
ATOM      8  C   UNL     1       0.543  -5.580  -5.044  0.00  0.00    +0.176 C 
ATOM      9  C   UNL     1      -0.485  -5.544  -5.931  0.00  0.00    +0.061 C 
ATOM     10  C   UNL     1       1.267  -6.780  -4.603  0.00  0.00    +0.232 C 
ATOM     11  O   UNL     1       1.072  -7.935  -4.940  0.00  0.00    -0.283 OA
ATOM     12  C   UNL     1       3.429  -8.394  -2.945  0.00  0.00    +0.045 C 
ENDROOT
BRANCH   9  13
ATOM     13  C   UNL     1      -1.167  -4.275  -6.213  0.00  0.00    +0.022 A 
ATOM     14  C   UNL     1      -0.560  -3.060  -5.876  0.00  0.00    +0.027 A 
ATOM     15  C   UNL     1      -1.208  -1.873  -6.143  0.00  0.00    +0.019 A 
ATOM     16  C   UNL     1      -2.457  -1.878  -6.744  0.00  0.00    +0.024 A 
ATOM     17  C   UNL     1      -3.069  -3.071  -7.082  0.00  0.00    +0.022 A 
ATOM     18  C   UNL     1      -2.430  -4.273  -6.830  0.00  0.00    +0.136 A 
ATOM     19  O   UNL     1      -3.012  -5.451  -7.171  0.00  0.00    -0.465 OA
ATOM     20  C   UNL     1      -4.414  -5.423  -7.452  0.00  0.00    +0.395 C 
ATOM     21  O   UNL     1      -4.681  -4.328  -8.337  0.00  0.00    -0.339 OA
ATOM     22  C   UNL     1      -4.430  -3.052  -7.731  0.00  0.00    +0.202 C 
ATOM     23 BR   UNL     1      -0.388  -0.230  -5.689  0.00  0.00    -0.050 Br
ENDBRANCH   9  13
BRANCH   2  24
ATOM     24  O   UNL     1       4.709  -4.035  -1.200  0.00  0.00    -0.506 OA
ATOM     25  H   UNL     1       4.364  -3.916  -0.304  0.00  0.00    +0.292 HD
ENDBRANCH   2  24
BRANCH   1  26
ATOM     26  C   UNL     1       2.772  -2.640  -2.692  0.00  0.00    +0.126 C 
BRANCH  26  30
ATOM     27  N   UNL     1      -0.496  -1.009  -0.564  0.00  0.00    +0.381 N 
ATOM     28  C   UNL     1       0.855  -0.555  -0.209  0.00  0.00    -0.063 C 
ATOM     29  C   UNL     1       1.815  -0.857  -1.363  0.00  0.00    +0.066 C 
ATOM     30  N   UNL     1       1.819  -2.302  -1.627  0.00  0.00    -0.301 NA
ATOM     31  C   UNL     1       0.468  -2.776  -1.959  0.00  0.00    +0.066 C 
ATOM     32  C   UNL     1      -0.480  -2.459  -0.801  0.00  0.00    -0.063 C 
ATOM     33  H   UNL     1      -0.800  -0.535  -1.401  0.00  0.00    -0.082 HD
BRANCH  27  35
ATOM     34  C   UNL     1      -1.531   0.814   0.701  0.00  0.00    -0.017 C 
ATOM     35  C   UNL     1      -1.420  -0.703   0.536  0.00  0.00    -0.082 C 
ENDBRANCH  27  35
ENDBRANCH  26  30
ENDBRANCH   1  26
TORSDOF 5
