REMARK  Name = ZINC01129235
REMARK  5 active torsions:
REMARK  status: ('A' for Active; 'I' for Inactive)
REMARK    1  A    between atoms: C_9  and  C_12
REMARK    2  A    between atoms: C_12  and  N_13
REMARK    3  A    between atoms: C_14  and  C_16
REMARK    4  A    between atoms: C_19  and  N_22
REMARK    5  A    between atoms: C_23  and  C_25
REMARK                            x       y       z     vdW  Elec       q    Type
REMARK                         _______ _______ _______ _____ _____    ______ ____
ROOT
ATOM      1  C   UNL     1      -1.815  12.183  -0.515  0.00  0.00    +0.037 A 
ATOM      2  C   UNL     1      -2.929  11.729   0.196  0.00  0.00    +0.015 A 
ATOM      3  C   UNL     1      -3.061  10.390   0.485  0.00  0.00    +0.024 A 
ATOM      4  C   UNL     1      -2.086   9.488   0.070  0.00  0.00    +0.034 A 
ATOM      5  C   UNL     1      -0.973   9.937  -0.634  0.00  0.00    +0.024 A 
ATOM      6  C   UNL     1      -0.838  11.275  -0.931  0.00  0.00    +0.015 A 
ENDROOT
BRANCH   1   8
ATOM      7  N   UNL     1      -0.596  14.054  -1.514  0.00  0.00    -0.308 N 
ATOM      8  C   UNL     1      -1.671  13.618  -0.828  0.00  0.00    +0.244 C 
ATOM      9  O   UNL     1      -2.523  14.408  -0.466  0.00  0.00    -0.270 OA
ATOM     10  H   UNL     1       0.083  13.425  -1.802  0.00  0.00    +0.149 HD
BRANCH   7  11
ATOM     11  C   UNL     1      -0.453  15.479  -1.823  0.00  0.00    +0.152 C 
BRANCH  11  20
ATOM     12  C   UNL     1       5.717  16.469  -3.055  0.00  0.00    +0.004 A 
ATOM     13  C   UNL     1       5.577  15.422  -2.163  0.00  0.00    +0.004 A 
ATOM     14  C   UNL     1       4.319  15.025  -1.751  0.00  0.00    +0.049 A 
ATOM     15  C   UNL     1       3.193  15.676  -2.233  0.00  0.00    +0.163 A 
ATOM     16  C   UNL     1       3.333  16.726  -3.132  0.00  0.00    +0.162 A 
ATOM     17  C   UNL     1       4.599  17.120  -3.540  0.00  0.00    +0.049 A 
ATOM     18  O   UNL     1       2.241  17.375  -3.621  0.00  0.00    -0.485 OA
ATOM     19  C   UNL     1       1.014  17.199  -2.904  0.00  0.00    +0.275 C 
ATOM     20  C   UNL     1       0.844  15.704  -2.603  0.00  0.00    +0.228 C 
ATOM     21  O   UNL     1       1.960  15.275  -1.816  0.00  0.00    -0.480 OA
ENDBRANCH  11  20
ENDBRANCH   7  11
ENDBRANCH   1   8
BRANCH   4  22
ATOM     22  N   UNL     1      -2.222   8.132   0.364  0.00  0.00    -0.282 N 
ATOM     23  C   UNL     1      -1.763   7.205  -0.500  0.00  0.00    +0.261 C 
ATOM     24  O   UNL     1      -1.318   7.546  -1.575  0.00  0.00    -0.271 OA
ATOM     25  H   UNL     1      -2.648   7.856   1.191  0.00  0.00    +0.155 HD
BRANCH  23  26
ATOM     26  C   UNL     1      -1.802   5.745  -0.130  0.00  0.00    +0.296 C 
ATOM     27  C   UNL     1      -3.260   5.285   0.009  0.00  0.00    +0.283 C 
ATOM     28  O   UNL     1      -3.260   3.894   0.347  0.00  0.00    -0.484 OA
ATOM     29  C   UNL     1      -2.436   3.088  -0.378  0.00  0.00    +0.162 A 
ATOM     30  C   UNL     1      -2.644   1.717  -0.368  0.00  0.00    +0.049 A 
ATOM     31  C   UNL     1      -1.810   0.885  -1.091  0.00  0.00    +0.004 A 
ATOM     32  C   UNL     1      -0.774   1.419  -1.836  0.00  0.00    +0.004 A 
ATOM     33  C   UNL     1      -0.566   2.785  -1.855  0.00  0.00    +0.049 A 
ATOM     34  C   UNL     1      -1.396   3.625  -1.127  0.00  0.00    +0.163 A 
ATOM     35  O   UNL     1      -1.183   4.969  -1.162  0.00  0.00    -0.473 OA
ENDBRANCH  23  26
ENDBRANCH   4  22
TORSDOF 5
