REMARK  Name = ZINC63913310
REMARK  10 active torsions:
REMARK  status: ('A' for Active; 'I' for Inactive)
REMARK    1  A    between atoms: C_1  and  C_2
REMARK    2  A    between atoms: N_6  and  C_14
REMARK    3  A    between atoms: C_14  and  C_15
REMARK    4  A    between atoms: C_15  and  C_16
REMARK    5  A    between atoms: N_18  and  C_19
REMARK    6  A    between atoms: C_19  and  C_20
REMARK    7  A    between atoms: C_20  and  C_22
REMARK    8  A    between atoms: C_20  and  C_30
REMARK    9  A    between atoms: C_25  and  O_28
REMARK   10  A    between atoms: O_28  and  C_29
REMARK                            x       y       z     vdW  Elec       q    Type
REMARK                         _______ _______ _______ _____ _____    ______ ____
ROOT
ATOM      1  C   UNL     1       5.100   0.150  -6.552  0.00  0.00    +0.116 C 
ENDROOT
BRANCH   1   4
ATOM      2  C   UNL     1       3.914  -0.328  -4.478  0.00  0.00    +0.215 C 
ATOM      3  O   UNL     1       4.069  -1.511  -4.696  0.00  0.00    -0.276 OA
ATOM      4  N   UNL     1       4.393   0.586  -5.345  0.00  0.00    -0.314 N 
ATOM      5  H   UNL     1       4.269   1.532  -5.171  0.00  0.00    +0.149 HD
BRANCH   2   6
ATOM      6  C   UNL     1       3.188   0.120  -3.236  0.00  0.00    +0.115 C 
BRANCH   6   7
ATOM      7  C   UNL     1       2.752  -1.105  -2.430  0.00  0.00    +0.123 C 
BRANCH   7  12
ATOM      8  C   UNL     1      -0.019   1.526   0.010  0.00  0.00    +0.062 C 
ATOM      9  C   UNL     1       0.002  -0.004   0.002  0.00  0.00    +0.256 C 
ATOM     10  C   UNL     1       0.706  -0.490  -1.239  0.00  0.00    +0.260 C 
ATOM     11  O   UNL     1       0.074  -0.718  -2.249  0.00  0.00    -0.271 OA
ATOM     12  N   UNL     1       2.045  -0.669  -1.223  0.00  0.00    -0.265 N 
ATOM     13  C   UNL     1       2.748  -0.433  -0.033  0.00  0.00    +0.078 A 
ATOM     14  C   UNL     1       4.126  -0.291  -0.041  0.00  0.00    +0.027 A 
ATOM     15  C   UNL     1       4.800  -0.060   1.144  0.00  0.00    +0.002 A 
ATOM     16  C   UNL     1       4.102   0.031   2.335  0.00  0.00    +0.004 A 
ATOM     17  C   UNL     1       2.726  -0.109   2.349  0.00  0.00    +0.047 A 
ATOM     18  C   UNL     1       2.045  -0.340   1.167  0.00  0.00    +0.143 A 
ATOM     19  O   UNL     1       0.692  -0.477   1.161  0.00  0.00    -0.478 OA
ENDBRANCH   7  12
ENDBRANCH   6   7
ENDBRANCH   2   6
ENDBRANCH   1   4
BRANCH   1  20
ATOM     20  C   UNL     1       5.535   1.375  -7.359  0.00  0.00    +0.064 C 
BRANCH  20  21
ATOM     21  C   UNL     1       4.316   2.110  -7.854  0.00  0.00    -0.033 C 
ATOM     22  C   UNL     1       3.973   3.390  -7.584  0.00  0.00    -0.000 A 
ATOM     23  C   UNL     1       4.607   4.441  -6.778  0.00  0.00    +0.010 A 
ATOM     24  C   UNL     1       4.011   5.652  -6.694  0.00  0.00    +0.001 A 
ATOM     25  C   UNL     1       2.807   5.928  -7.355  0.00  0.00    +0.002 A 
ATOM     26  C   UNL     1       2.165   5.015  -8.114  0.00  0.00    +0.026 A 
ATOM     27  C   UNL     1       2.702   3.707  -8.272  0.00  0.00    +0.043 A 
ATOM     28  N   UNL     1       2.276   2.664  -8.942  0.00  0.00    -0.380 N 
ATOM     29  C   UNL     1       3.233   1.567  -8.759  0.00  0.00    +0.145 C 
ATOM     30  H   UNL     1       1.465   2.625  -9.473  0.00  0.00    +0.160 HD
ENDBRANCH  20  21
BRANCH  20  31
ATOM     31  C   UNL     1       6.367   0.932  -8.535  0.00  0.00    -0.038 A 
ATOM     32  C   UNL     1       5.825   0.088  -9.485  0.00  0.00    +0.008 A 
ATOM     33  C   UNL     1       6.585  -0.320 -10.564  0.00  0.00    +0.046 A 
ATOM     34  C   UNL     1       7.895   0.120 -10.693  0.00  0.00    +0.120 A 
ATOM     35  C   UNL     1       8.437   0.968  -9.738  0.00  0.00    +0.046 A 
ATOM     36  C   UNL     1       7.670   1.377  -8.664  0.00  0.00    +0.008 A 
BRANCH  34  37
ATOM     37  O   UNL     1       8.646  -0.280 -11.753  0.00  0.00    -0.495 OA
ATOM     38  C   UNL     1       9.986   0.212 -11.822  0.00  0.00    +0.277 C 
ENDBRANCH  34  37
ENDBRANCH  20  31
ENDBRANCH   1  20
TORSDOF 8
