REMARK  Name = ZINC59310246
REMARK  9 active torsions:
REMARK  status: ('A' for Active; 'I' for Inactive)
REMARK    1  A    between atoms: C_1  and  C_2
REMARK    2  A    between atoms: C_2  and  C_3
REMARK    3  A    between atoms: C_2  and  C_4
REMARK    4  A    between atoms: C_2  and  N_5
REMARK    5  A    between atoms: C_6  and  C_8
REMARK    6  A    between atoms: C_8  and  S_9
REMARK    7  A    between atoms: S_9  and  C_10
REMARK    8  A    between atoms: N_15  and  N_16
REMARK    9  A    between atoms: C_17  and  C_18
REMARK                            x       y       z     vdW  Elec       q    Type
REMARK                         _______ _______ _______ _____ _____    ______ ____
ROOT
ATOM      1  C   UNL     1       5.078  -0.684  -4.142  0.00  0.00    +0.211 A 
ATOM      2  N   UNL     1       6.324  -0.476  -4.581  0.00  0.00    -0.186 NA
ATOM      3  C   UNL     1       6.495  -1.088  -5.734  0.00  0.00    +0.232 A 
ATOM      4  N   UNL     1       5.339  -1.708  -6.053  0.00  0.00    -0.245 N 
ATOM      5  N   UNL     1       4.441  -1.436  -5.008  0.00  0.00    -0.144 NA
ATOM      6  N   UNL     1       7.656  -1.095  -6.487  0.00  0.00    -0.205 N 
ATOM      7  H   UNL     1       7.686  -1.577  -7.328  0.00  0.00    +0.177 HD
ATOM      8  H   UNL     1       5.164  -2.238  -6.846  0.00  0.00    +0.192 HD
ENDROOT
BRANCH   6   9
ATOM      9  N   UNL     1       8.789  -0.406  -6.034  0.00  0.00    -0.188 NA
ATOM     10  C   UNL     1       9.863  -0.412  -6.730  0.00  0.00    +0.139 C 
BRANCH  10  11
ATOM     11  C   UNL     1      11.053   0.313  -6.254  0.00  0.00    +0.002 A 
ATOM     12  C   UNL     1      12.327   0.204  -6.988  0.00  0.00    +0.010 A 
ATOM     13  C   UNL     1      13.398   0.848  -6.571  0.00  0.00    +0.009 A 
ATOM     14  C   UNL     1      13.322   1.685  -5.361  0.00  0.00    -0.017 A 
ATOM     15  C   UNL     1      14.501   2.418  -4.870  0.00  0.00    +0.009 A 
ATOM     16  C   UNL     1      14.411   3.163  -3.785  0.00  0.00    +0.009 A 
ATOM     17  C   UNL     1      13.133   3.263  -3.061  0.00  0.00    -0.017 A 
ATOM     18  C   UNL     1      13.010   4.089  -1.848  0.00  0.00    +0.008 A 
ATOM     19  C   UNL     1      11.854   4.161  -1.220  0.00  0.00    +0.001 A 
ATOM     20  C   UNL     1      10.682   3.422  -1.723  0.00  0.00    +0.008 A 
ATOM     21  C   UNL     1      10.788   2.684  -2.806  0.00  0.00    -0.017 A 
ATOM     22  C   UNL     1      12.085   2.608  -3.502  0.00  0.00    -0.002 A 
ATOM     23  C   UNL     1      12.184   1.777  -4.713  0.00  0.00    -0.002 A 
ATOM     24  C   UNL     1      10.981   1.063  -5.176  0.00  0.00    -0.008 A 
ATOM     25  C   UNL     1       9.726   1.200  -4.421  0.00  0.00    +0.010 A 
ATOM     26  C   UNL     1       9.640   1.933  -3.337  0.00  0.00    +0.009 A 
ENDBRANCH  10  11
ENDBRANCH   6   9
BRANCH   1  27
ATOM     27  S   UNL     1       4.403  -0.056  -2.640  0.00  0.00    -0.075 S 
BRANCH  27  28
ATOM     28  C   UNL     1       2.704  -0.692  -2.623  0.00  0.00    +0.173 C 
BRANCH  28  30
ATOM     29  N   UNL     1       0.724  -0.574  -1.146  0.00  0.00    -0.310 N 
ATOM     30  C   UNL     1       2.005  -0.222  -1.374  0.00  0.00    +0.224 C 
ATOM     31  O   UNL     1       2.594   0.473  -0.574  0.00  0.00    -0.275 OA
ATOM     32  H   UNL     1       0.252  -1.130  -1.786  0.00  0.00    +0.149 HD
BRANCH  29  34
ATOM     33  C   UNL     1       0.017   1.413   0.094  0.00  0.00    +0.031 C 
ATOM     34  C   UNL     1       0.044  -0.117   0.069  0.00  0.00    +0.026 C 
ATOM     35  C   UNL     1       0.794  -0.634   1.298  0.00  0.00    +0.031 C 
ATOM     36  C   UNL     1      -1.389  -0.653   0.083  0.00  0.00    +0.031 C 
ENDBRANCH  29  34
ENDBRANCH  28  30
ENDBRANCH  27  28
ENDBRANCH   1  27
TORSDOF 6
