REMARK  Name = ZINC39632463
REMARK  7 active torsions:
REMARK  status: ('A' for Active; 'I' for Inactive)
REMARK    1  A    between atoms: C_1  and  C_2
REMARK    2  A    between atoms: C_3  and  C_12
REMARK    3  A    between atoms: C_7  and  O_8
REMARK    4  A    between atoms: O_8  and  C_9
REMARK    5  A    between atoms: C_9  and  C_11
REMARK    6  A    between atoms: C_16  and  C_25
REMARK    7  A    between atoms: N_27  and  C_28
REMARK                            x       y       z     vdW  Elec       q    Type
REMARK                         _______ _______ _______ _____ _____    ______ ____
ROOT
ATOM      1  C   UNL     1      -0.375   0.006  -2.845  0.00  0.00    +0.247 C 
ATOM      2  O   UNL     1      -0.328   1.213  -2.987  0.00  0.00    -0.270 OA
ATOM      3  N   UNL     1      -0.553  -0.791  -3.917  0.00  0.00    -0.296 N 
ATOM      4  C   UNL     1      -0.762  -2.259  -3.932  0.00  0.00    +0.121 C 
ATOM      5  C   UNL     1      -1.819  -2.491  -5.034  0.00  0.00    +0.100 C 
ATOM      6  C   UNL     1      -1.697  -1.269  -5.960  0.00  0.00    -0.004 C 
ATOM      7  C   UNL     1      -0.591  -0.399  -5.346  0.00  0.00    +0.115 C 
ATOM      8  C   UNL     1      -3.012  -0.495  -5.991  0.00  0.00    -0.010 C 
ATOM      9  C   UNL     1      -2.883   0.682  -6.961  0.00  0.00    -0.082 C 
ATOM     10  N   UNL     1      -2.555   0.180  -8.301  0.00  0.00    +0.379 N 
ATOM     11  C   UNL     1      -1.245  -0.482  -8.282  0.00  0.00    -0.082 C 
ATOM     12  C   UNL     1      -1.305  -1.708  -7.367  0.00  0.00    -0.010 C 
ATOM     13  H   UNL     1      -3.260  -0.480  -8.593  0.00  0.00    -0.086 HD
ATOM     14  H   UNL     1      -2.531   0.952  -8.951  0.00  0.00    -0.086 HD
ENDROOT
BRANCH   1  17
ATOM     15  C   UNL     1      -1.493   1.381  -0.558  0.00  0.00    +0.048 C 
ATOM     16  C   UNL     1      -0.773   0.068  -0.387  0.00  0.00    +0.004 A 
ATOM     17  C   UNL     1      -0.237  -0.586  -1.497  0.00  0.00    +0.043 A 
ATOM     18  C   UNL     1       0.428  -1.801  -1.331  0.00  0.00    +0.013 A 
ATOM     19  C   UNL     1       0.555  -2.351  -0.072  0.00  0.00    +0.004 A 
ATOM     20  C   UNL     1       0.024  -1.702   1.027  0.00  0.00    +0.047 A 
ATOM     21  C   UNL     1      -0.636  -0.490   0.872  0.00  0.00    +0.135 A 
BRANCH  21  22
ATOM     22  O   UNL     1      -1.151   0.146   1.957  0.00  0.00    -0.426 OA
BRANCH  22  23
ATOM     23  C   UNL     1      -0.486   1.208   2.441  0.00  0.00    +0.309 C 
ATOM     24  O   UNL     1       0.585   1.514   1.972  0.00  0.00    -0.251 OA
ATOM     25  C   UNL     1      -1.075   2.017   3.567  0.00  0.00    +0.136 C 
ENDBRANCH  22  23
ENDBRANCH  21  22
ENDBRANCH   1  17
BRANCH   5  26
ATOM     26  C   UNL     1      -3.199  -2.559  -4.431  0.00  0.00    +0.218 C 
ATOM     27  O   UNL     1      -3.476  -1.872  -3.471  0.00  0.00    -0.275 OA
ATOM     28  N   UNL     1      -4.125  -3.384  -4.959  0.00  0.00    -0.312 N 
ATOM     29  H   UNL     1      -3.904  -3.933  -5.727  0.00  0.00    +0.149 HD
BRANCH  28  30
ATOM     30  C   UNL     1      -5.466  -3.450  -4.373  0.00  0.00    +0.073 C 
ATOM     31  C   UNL     1      -5.496  -4.496  -3.240  0.00  0.00    +0.022 C 
ATOM     32  C   UNL     1      -6.891  -5.156  -3.369  0.00  0.00    +0.002 C 
ATOM     33  C   UNL     1      -7.093  -5.233  -4.903  0.00  0.00    +0.002 C 
ATOM     34  C   UNL     1      -6.481  -3.918  -5.431  0.00  0.00    +0.022 C 
ENDBRANCH  28  30
ENDBRANCH   5  26
TORSDOF 5
