REMARK  Name = ZINC39722779
REMARK  9 active torsions:
REMARK  status: ('A' for Active; 'I' for Inactive)
REMARK    1  A    between atoms: C_1  and  C_2
REMARK    2  A    between atoms: C_2  and  C_3
REMARK    3  A    between atoms: C_2  and  C_4
REMARK    4  A    between atoms: C_4  and  N_5
REMARK    5  A    between atoms: C_6  and  C_29
REMARK    6  A    between atoms: C_10  and  S_12
REMARK    7  A    between atoms: S_12  and  C_13
REMARK    8  A    between atoms: C_13  and  C_14
REMARK    9  A    between atoms: C_22  and  C_26
REMARK                            x       y       z     vdW  Elec       q    Type
REMARK                         _______ _______ _______ _____ _____    ______ ____
ROOT
ATOM      1  N   UNL     1       0.113  -0.140   2.530  0.00  0.00    +0.413 N 
ATOM      2  C   UNL     1       0.811  -0.493   3.788  0.00  0.00    +0.086 C 
ATOM      3  N   UNL     1      -0.288  -0.770   4.750  0.00  0.00    -0.264 NA
ATOM      4  N   UNL     1      -1.294  -1.450   3.918  0.00  0.00    -0.261 NA
ATOM      5  C   UNL     1      -1.230  -0.751   2.615  0.00  0.00    +0.078 C 
ATOM      6  H   UNL     1       0.028  -1.370   5.497  0.00  0.00    +0.139 HD
ATOM      7  H   UNL     1      -1.074  -2.430   3.814  0.00  0.00    +0.140 HD
ATOM      8  H   UNL     1       0.033   0.862   2.446  0.00  0.00    -0.075 HD
ENDROOT
BRANCH   2   9
ATOM      9  C   UNL     1       1.653   0.662   4.265  0.00  0.00    +0.106 A 
ATOM     10  C   UNL     1       1.952   0.941   5.546  0.00  0.00    +0.044 A 
ATOM     11  C   UNL     1       2.760   2.102   5.535  0.00  0.00    +0.041 A 
ATOM     12  C   UNL     1       2.905   2.463   4.248  0.00  0.00    +0.195 A 
ATOM     13  O   UNL     1       2.238   1.584   3.482  0.00  0.00    -0.468 OA
ENDBRANCH   2   9
BRANCH   1  14
ATOM     14  C   UNL     1       0.843  -0.686   1.378  0.00  0.00    -0.069 C 
BRANCH  14  16
ATOM     15  C   UNL     1       0.525   1.387   0.021  0.00  0.00    +0.005 C 
ATOM     16  C   UNL     1       0.255  -0.118   0.085  0.00  0.00    -0.034 C 
ATOM     17  C   UNL     1       0.907  -0.805  -1.117  0.00  0.00    +0.005 C 
ENDBRANCH  14  16
ENDBRANCH   1  14
BRANCH   5  18
ATOM     18  S   UNL     1      -1.461  -1.936   1.261  0.00  0.00    -0.152 S 
BRANCH  18  19
ATOM     19  C   UNL     1      -3.246  -2.256   1.257  0.00  0.00    +0.143 C 
BRANCH  19  20
ATOM     20  C   UNL     1      -3.595  -3.142   0.089  0.00  0.00    +0.120 A 
ATOM     21  N   UNL     1      -4.896  -3.492  -0.089  0.00  0.00    -0.310 N 
ATOM     22  H   UNL     1      -5.569  -3.169   0.531  0.00  0.00    +0.170 HD
ATOM     23  C   UNL     1      -5.261  -4.285  -1.122  0.00  0.00    +0.259 A 
ATOM     24  O   UNL     1      -6.423  -4.606  -1.293  0.00  0.00    -0.267 OA
ATOM     25  C   UNL     1      -4.199  -4.745  -2.033  0.00  0.00    +0.065 A 
ATOM     26  C   UNL     1      -4.472  -5.565  -3.126  0.00  0.00    +0.016 A 
ATOM     27  C   UNL     1      -3.457  -5.968  -3.945  0.00  0.00    +0.016 A 
ATOM     28  C   UNL     1      -2.138  -5.565  -3.696  0.00  0.00    +0.065 A 
ATOM     29  C   UNL     1      -1.844  -4.748  -2.610  0.00  0.00    +0.043 A 
ATOM     30  C   UNL     1      -2.875  -4.330  -1.767  0.00  0.00    +0.079 A 
ATOM     31  N   UNL     1      -2.638  -3.528  -0.699  0.00  0.00    -0.233 NA
BRANCH  28  32
ATOM     32  C   UNL     1      -1.052  -6.012  -4.594  0.00  0.00    +0.387 C 
ATOM     33  O   UNL     1      -1.306  -6.731  -5.550  0.00  0.00    -0.241 OA
ATOM     34  O   UNL     1       0.100  -5.663  -4.381  0.00  0.00    -0.241 OA
ENDBRANCH  28  32
ENDBRANCH  19  20
ENDBRANCH  18  19
ENDBRANCH   5  18
TORSDOF 7
