REMARK  Name = ZINC09711981
REMARK  8 active torsions:
REMARK  status: ('A' for Active; 'I' for Inactive)
REMARK    1  A    between atoms: C_3  and  C_6
REMARK    2  A    between atoms: C_15  and  C_16
REMARK    3  A    between atoms: C_15  and  N_53
REMARK    4  A    between atoms: N_18  and  C_19
REMARK    5  A    between atoms: C_19  and  C_20
REMARK    6  A    between atoms: C_20  and  C_21
REMARK    7  A    between atoms: C_24  and  S_27
REMARK    8  A    between atoms: S_27  and  N_30
REMARK                            x       y       z     vdW  Elec       q    Type
REMARK                         _______ _______ _______ _____ _____    ______ ____
ROOT
ATOM      1  C   UNL     1       3.239   4.114  -3.186  0.00  0.00    +0.197 C 
ATOM      2  O   UNL     1       4.151   4.770  -2.730  0.00  0.00    -0.278 OA
ATOM      3  N   UNL     1       3.111   3.972  -4.520  0.00  0.00    -0.317 N 
ATOM      4  H   UNL     1       2.381   3.446  -4.884  0.00  0.00    +0.149 HD
ENDROOT
BRANCH   1   5
ATOM      5  C   UNL     1       2.248   3.457  -2.259  0.00  0.00    +0.020 C 
BRANCH   5  14
ATOM      6  C   UNL     1       2.344   5.297  -0.689  0.00  0.00    +0.002 C 
ATOM      7  C   UNL     1       2.679   5.651   0.757  0.00  0.00    -0.046 A 
ATOM      8  C   UNL     1       2.268   6.825   1.384  0.00  0.00    +0.010 A 
ATOM      9  C   UNL     1       2.608   7.059   2.672  0.00  0.00    +0.045 A 
ATOM     10  S   UNL     1       3.552   5.596   3.076  0.00  0.00    -0.101 S 
ATOM     11  C   UNL     1       3.422   4.789   1.506  0.00  0.00    -0.010 A 
ATOM     12  C   UNL     1       3.980   3.476   1.063  0.00  0.00    +0.024 C 
ATOM     13  C   UNL     1       3.880   3.417  -0.470  0.00  0.00    -0.072 C 
ATOM     14  N   UNL     1       2.510   3.834  -0.857  0.00  0.00    +0.393 N 
ATOM     15  H   UNL     1       1.835   3.353  -0.251  0.00  0.00    -0.080 HD
BRANCH   6  18
ATOM     16  C   UNL     1      -0.950   6.873  -1.773  0.00  0.00    +0.008 A 
ATOM     17  C   UNL     1       0.418   6.749  -1.618  0.00  0.00    +0.010 A 
ATOM     18  C   UNL     1       0.911   5.659  -0.980  0.00  0.00    -0.019 A 
ATOM     19  S   UNL     1      -0.579   4.763  -0.575  0.00  0.00    -0.103 S 
ATOM     20  C   UNL     1      -1.758   5.902  -1.283  0.00  0.00    +0.045 A 
ENDBRANCH   6  18
ENDBRANCH   5  14
ENDBRANCH   1   5
BRANCH   3  21
ATOM     21  C   UNL     1       4.074   4.610  -5.420  0.00  0.00    +0.109 C 
BRANCH  21  22
ATOM     22  C   UNL     1       3.704   4.294  -6.870  0.00  0.00    +0.054 C 
BRANCH  22  23
ATOM     23  C   UNL     1       4.694   4.951  -7.797  0.00  0.00    -0.046 A 
ATOM     24  C   UNL     1       4.460   6.230  -8.264  0.00  0.00    +0.005 A 
ATOM     25  C   UNL     1       5.371   6.835  -9.111  0.00  0.00    +0.029 A 
ATOM     26  C   UNL     1       6.512   6.156  -9.496  0.00  0.00    +0.105 A 
ATOM     27  C   UNL     1       6.744   4.875  -9.032  0.00  0.00    +0.029 A 
ATOM     28  C   UNL     1       5.835   4.272  -8.183  0.00  0.00    +0.005 A 
BRANCH  26  29
ATOM     29  S   UNL     1       7.671   6.925 -10.578  0.00  0.00    +0.056 S 
ATOM     30  O   UNL     1       7.493   8.327 -10.434  0.00  0.00    -0.153 OA
ATOM     31  O   UNL     1       8.921   6.288 -10.352  0.00  0.00    -0.153 OA
BRANCH  29  32
ATOM     32  N   UNL     1       7.221   6.547 -12.126  0.00  0.00    -0.204 NA
ATOM     33  H   UNL     1       6.440   5.993 -12.283  0.00  0.00    +0.144 HD
ATOM     34  H   UNL     1       7.738   6.879 -12.876  0.00  0.00    +0.144 HD
ENDBRANCH  29  32
ENDBRANCH  26  29
ENDBRANCH  22  23
ENDBRANCH  21  22
ENDBRANCH   3  21
TORSDOF 8
