REMARK  Name = ZINC20859835
REMARK  14 active torsions:
REMARK  status: ('A' for Active; 'I' for Inactive)
REMARK    1  A    between atoms: C_1  and  N_2
REMARK    2  A    between atoms: N_2  and  C_3
REMARK    3  A    between atoms: N_2  and  C_10
REMARK    4  A    between atoms: C_3  and  C_4
REMARK    5  A    between atoms: C_10  and  C_11
REMARK    6  A    between atoms: C_11  and  C_13
REMARK    7  A    between atoms: C_11  and  O_30
REMARK    8  A    between atoms: C_13  and  O_14
REMARK    9  A    between atoms: O_14  and  C_15
REMARK   10  A    between atoms: C_18  and  C_21
REMARK   11  A    between atoms: C_21  and  N_22
REMARK   12  A    between atoms: N_22  and  C_23
REMARK   13  A    between atoms: C_23  and  C_24
REMARK   14  A    between atoms: C_24  and  N_25
REMARK                            x       y       z     vdW  Elec       q    Type
REMARK                         _______ _______ _______ _____ _____    ______ ____
ROOT
ATOM      1  C   UNL     1       1.213  -0.680  -0.013  0.00  0.00    +0.121 A 
ATOM      2  C   UNL     1       0.002  -0.004   0.002  0.00  0.00    +0.046 A 
ATOM      3  C   UNL     1      -0.017   1.377   0.010  0.00  0.00    +0.005 A 
ATOM      4  C   UNL     1       1.171   2.086   0.002  0.00  0.00    -0.064 A 
ATOM      5  C   UNL     1       2.379   1.415  -0.013  0.00  0.00    +0.005 A 
ATOM      6  C   UNL     1       2.403   0.033  -0.021  0.00  0.00    +0.046 A 
ENDROOT
BRANCH   1   7
ATOM      7  O   UNL     1       1.234  -2.039  -0.020  0.00  0.00    -0.489 OA
BRANCH   7   8
ATOM      8  C   UNL     1       2.518  -2.668  -0.036  0.00  0.00    +0.258 C 
BRANCH   8   9
ATOM      9  C   UNL     1       2.341  -4.188  -0.042  0.00  0.00    +0.135 C 
BRANCH   9  10
ATOM     10  O   UNL     1       1.708  -4.589  -1.259  0.00  0.00    -0.390 OA
ATOM     11  H   UNL     1       0.709  -4.204  -1.512  0.00  0.00    +0.210 HD
ENDBRANCH   9  10
BRANCH   9  12
ATOM     12  C   UNL     1       3.710  -4.861   0.067  0.00  0.00    -0.044 C 
BRANCH  12  14
ATOM     13  C   UNL     1       2.832  -6.772   1.266  0.00  0.00    -0.096 C 
ATOM     14  N   UNL     1       3.540  -6.320   0.061  0.00  0.00    +0.382 N 
ATOM     15  H   UNL     1       2.926  -6.585  -0.812  0.00  0.00    -0.082 HD
BRANCH  14  16
ATOM     16  C   UNL     1       4.835  -7.000  -0.074  0.00  0.00    -0.043 C 
BRANCH  16  17
ATOM     17  C   UNL     1       4.608  -8.469  -0.322  0.00  0.00    -0.064 A 
ATOM     18  C   UNL     1       4.526  -9.346   0.743  0.00  0.00    +0.002 A 
ATOM     19  C   UNL     1       4.312 -10.692   0.516  0.00  0.00    +0.000 A 
ATOM     20  C   UNL     1       4.190 -11.164  -0.778  0.00  0.00    +0.000 A 
ATOM     21  C   UNL     1       4.277 -10.288  -1.844  0.00  0.00    +0.000 A 
ATOM     22  C   UNL     1       4.486  -8.941  -1.616  0.00  0.00    +0.002 A 
ENDBRANCH  16  17
ENDBRANCH  14  16
ENDBRANCH  12  14
ENDBRANCH   9  12
ENDBRANCH   8   9
ENDBRANCH   7   8
ENDBRANCH   1   7
BRANCH   4  23
ATOM     23  C   UNL     1       1.147   3.593   0.011  0.00  0.00    -0.047 C 
BRANCH  23  24
ATOM     24  N   UNL     1       1.153   4.075   1.398  0.00  0.00    +0.383 N 
ATOM     25  H   UNL     1       0.265   3.691   1.923  0.00  0.00    -0.085 HD
ATOM     26  H   UNL     1       2.061   3.719   1.906  0.00  0.00    -0.085 HD
BRANCH  24  27
ATOM     27  C   UNL     1       1.130   5.543   1.445  0.00  0.00    -0.060 C 
BRANCH  27  28
ATOM     28  C   UNL     1       1.137   6.006   2.904  0.00  0.00    +0.104 C 
BRANCH  28  29
ATOM     29  N   UNL     1       1.115   7.470   2.951  0.00  0.00    -0.339 N 
ATOM     30  C   UNL     1       2.204   8.299   2.972  0.00  0.00    +0.106 A 
ATOM     31  C   UNL     1       1.733   9.560   3.011  0.00  0.00    +0.130 A 
ATOM     32  N   UNL     1       0.393   9.503   3.023  0.00  0.00    -0.244 NA
ATOM     33  C   UNL     1       0.016   8.254   2.987  0.00  0.00    +0.199 A 
ENDBRANCH  28  29
ENDBRANCH  27  28
ENDBRANCH  24  27
ENDBRANCH  23  24
ENDBRANCH   4  23
TORSDOF 13
