REMARK  Name = ZINC03505082
REMARK  7 active torsions:
REMARK  status: ('A' for Active; 'I' for Inactive)
REMARK    1  A    between atoms: C_10  and  C_13
REMARK    2  A    between atoms: C_13  and  C_14
REMARK    3  A    between atoms: C_14  and  O_16
REMARK    4  A    between atoms: O_16  and  C_17
REMARK    5  A    between atoms: C_17  and  C_18
REMARK    6  A    between atoms: N_20  and  C_21
REMARK    7  A    between atoms: C_23  and  N_28
REMARK                            x       y       z     vdW  Elec       q    Type
REMARK                         _______ _______ _______ _____ _____    ______ ____
ROOT
ATOM      1  O   UNL     1       0.275  -2.702   2.583  0.00  0.00    -0.455 OA
ENDROOT
BRANCH   1   2
ATOM      2  C   UNL     1       0.097  -2.023   1.439  0.00  0.00    +0.309 C 
ATOM      3  O   UNL     1      -0.141  -2.618   0.414  0.00  0.00    -0.251 OA
BRANCH   2   4
ATOM      4  C   UNL     1       0.193  -0.519   1.433  0.00  0.00    +0.144 C 
BRANCH   4  14
ATOM      5  C   UNL     1       4.690   2.213   0.120  0.00  0.00    +0.002 A 
ATOM      6  C   UNL     1       4.972   0.942  -0.349  0.00  0.00    +0.001 A 
ATOM      7  C   UNL     1       3.939   0.098  -0.713  0.00  0.00    +0.016 A 
ATOM      8  C   UNL     1       2.626   0.527  -0.606  0.00  0.00    +0.030 A 
ATOM      9  C   UNL     1       2.334   1.804  -0.129  0.00  0.00    +0.047 A 
ATOM     10  C   UNL     1       3.383   2.644   0.230  0.00  0.00    +0.024 A 
ATOM     11  N   UNL     1       1.025   2.254   0.012  0.00  0.00    -0.284 N 
ATOM     12  C   UNL     1      -0.074   1.507   0.025  0.00  0.00    +0.231 C 
ATOM     13  O   UNL     1      -1.151   2.066   0.041  0.00  0.00    -0.274 OA
ATOM     14  C   UNL     1      -0.048   0.001   0.014  0.00  0.00    +0.148 C 
ATOM     15  S   UNL     1       1.303  -0.544  -1.075  0.00  0.00    -0.110 S 
ATOM     16  H   UNL     1       0.902   3.212   0.111  0.00  0.00    +0.155 HD
ENDBRANCH   4  14
ENDBRANCH   2   4
ENDBRANCH   1   2
BRANCH   1  17
ATOM     17  C   UNL     1       0.167  -4.149   2.515  0.00  0.00    +0.328 C 
BRANCH  17  18
ATOM     18  C   UNL     1       0.395  -4.734   3.885  0.00  0.00    +0.255 C 
ATOM     19  O   UNL     1       0.625  -4.005   4.826  0.00  0.00    -0.272 OA
ATOM     20  N   UNL     1       0.343  -6.069   4.064  0.00  0.00    -0.281 N 
ATOM     21  H   UNL     1       0.095  -6.648   3.326  0.00  0.00    +0.155 HD
BRANCH  20  22
ATOM     22  C   UNL     1       0.647  -6.620   5.314  0.00  0.00    +0.054 A 
ATOM     23  C   UNL     1       0.308  -5.938   6.476  0.00  0.00    +0.057 A 
ATOM     24  C   UNL     1       0.605  -6.486   7.708  0.00  0.00    +0.128 A 
ATOM     25  C   UNL     1       1.247  -7.708   7.787  0.00  0.00    +0.034 A 
ATOM     26  C   UNL     1       1.591  -8.388   6.633  0.00  0.00    +0.024 A 
ATOM     27  C   UNL     1       1.292  -7.847   5.396  0.00  0.00    +0.062 A 
ATOM     28 CL   UNL     1       1.723  -8.701   3.948  0.00  0.00    -0.082 Cl
BRANCH  24  29
ATOM     29  N   UNL     1       0.239  -5.762   8.946  0.00  0.00    +0.056 N 
ATOM     30  O   UNL     1       0.504  -6.243  10.034  0.00  0.00    -0.126 OA
ATOM     31  O   UNL     1      -0.327  -4.686   8.878  0.00  0.00    -0.126 OA
ENDBRANCH  24  29
ENDBRANCH  20  22
ENDBRANCH  17  18
ENDBRANCH   1  17
TORSDOF 7
