REMARK  Name = ZINC42804763
REMARK  4 active torsions:
REMARK  status: ('A' for Active; 'I' for Inactive)
REMARK    1  A    between atoms: C_1  and  C_2
REMARK    2  A    between atoms: C_8  and  C_10
REMARK    3  A    between atoms: C_10  and  N_11
REMARK    4  A    between atoms: N_16  and  C_21
REMARK                            x       y       z     vdW  Elec       q    Type
REMARK                         _______ _______ _______ _____ _____    ______ ____
ROOT
ATOM      1  N   UNL     1       2.921  -0.562   2.352  0.00  0.00    -0.328 N 
ATOM      2  C   UNL     1       4.247  -0.229   2.548  0.00  0.00    +0.133 A 
ATOM      3  C   UNL     1       4.979  -0.781   3.617  0.00  0.00    +0.078 A 
ATOM      4  C   UNL     1       4.684  -1.687   4.659  0.00  0.00    +0.148 A 
ATOM      5  N   UNL     1       5.757  -1.848   5.380  0.00  0.00    -0.177 NA
ATOM      6  N   UNL     1       6.798  -1.070   4.859  0.00  0.00    -0.249 N 
ATOM      7  C   UNL     1       6.327  -0.404   3.767  0.00  0.00    +0.163 A 
ATOM      8  N   UNL     1       6.855   0.456   2.896  0.00  0.00    -0.216 NA
ATOM      9  C   UNL     1       6.131   0.944   1.913  0.00  0.00    +0.225 A 
ATOM     10  N   UNL     1       4.864   0.616   1.730  0.00  0.00    -0.220 NA
ATOM     11  C   UNL     1       8.158  -0.985   5.396  0.00  0.00    +0.174 C 
ATOM     12  H   UNL     1       2.481  -1.180   2.957  0.00  0.00    +0.147 HD
ENDROOT
BRANCH   1  13
ATOM     13  C   UNL     1       2.178   0.019   1.231  0.00  0.00    +0.106 C 
BRANCH  13  20
ATOM     14  C   UNL     1      -0.019   1.526   0.010  0.00  0.00    +0.008 C 
ATOM     15  C   UNL     1       0.002  -0.004   0.002  0.00  0.00    -0.010 C 
ATOM     16  C   UNL     1      -1.433  -0.534   0.013  0.00  0.00    +0.003 C 
ATOM     17  C   UNL     1      -2.149  -0.040   1.272  0.00  0.00    +0.000 C 
ATOM     18  C   UNL     1      -1.409  -0.547   2.511  0.00  0.00    +0.000 C 
ATOM     19  C   UNL     1       0.026  -0.018   2.500  0.00  0.00    +0.005 C 
ATOM     20  C   UNL     1       0.742  -0.511   1.242  0.00  0.00    +0.009 C 
ENDBRANCH  13  20
ENDBRANCH   1  13
TORSDOF 2
