REMARK  Name = ZINC67028436
REMARK  5 active torsions:
REMARK  status: ('A' for Active; 'I' for Inactive)
REMARK    1  A    between atoms: C_1  and  C_2
REMARK    2  A    between atoms: C_7  and  N_8
REMARK    3  A    between atoms: C_9  and  C_11
REMARK    4  A    between atoms: C_12  and  C_24
REMARK    5  A    between atoms: C_17  and  C_19
REMARK                            x       y       z     vdW  Elec       q    Type
REMARK                         _______ _______ _______ _____ _____    ______ ____
ROOT
ATOM      1  C   UNL     1      -0.125  -0.163   5.112  0.00  0.00    +0.057 C 
ATOM      2  C   UNL     1      -0.002  -0.774   6.309  0.00  0.00    +0.017 C 
ATOM      3  N   UNL     1       0.190  -0.053   7.453  0.00  0.00    -0.300 N 
ATOM      4  C   UNL     1       0.269   1.283   7.484  0.00  0.00    +0.135 C 
ATOM      5  S   UNL     1       0.512   2.064   8.988  0.00  0.00    -0.019 S 
ATOM      6  N   UNL     1       0.165   2.033   6.369  0.00  0.00    -0.314 N 
ATOM      7  C   UNL     1      -0.037   1.350   5.080  0.00  0.00    +0.160 C 
ATOM      8  C   UNL     1      -0.077  -2.278   6.385  0.00  0.00    +0.061 C 
ATOM      9  H   UNL     1       0.273  -0.536   8.290  0.00  0.00    +0.154 HD
ATOM     10  H   UNL     1       0.226   3.000   6.414  0.00  0.00    +0.149 HD
ENDROOT
BRANCH   7  11
ATOM     11  C   UNL     1      -1.313   1.877   4.476  0.00  0.00    +0.097 A 
ATOM     12  C   UNL     1      -2.142   2.721   5.143  0.00  0.00    +0.094 A 
ATOM     13  S   UNL     1      -3.366   2.969   4.020  0.00  0.00    +0.028 S 
ATOM     14  N   UNL     1      -2.811   2.042   2.815  0.00  0.00    -0.110 NA
ATOM     15  N   UNL     1      -1.705   1.556   3.261  0.00  0.00    -0.144 NA
ENDBRANCH   7  11
BRANCH   1  17
ATOM     16  N   UNL     1      -1.532  -1.447   3.661  0.00  0.00    -0.281 N 
ATOM     17  C   UNL     1      -0.324  -0.910   3.925  0.00  0.00    +0.248 C 
ATOM     18  O   UNL     1       0.596  -1.067   3.143  0.00  0.00    -0.270 OA
ATOM     19  H   UNL     1      -2.272  -1.297   4.269  0.00  0.00    +0.155 HD
BRANCH  16  26
ATOM     20  C   UNL     1      -3.630  -3.368   3.658  0.00  0.00    +0.045 C 
ATOM     21  C   UNL     1      -2.729  -3.170   2.467  0.00  0.00    -0.029 A 
ATOM     22  C   UNL     1      -2.912  -3.929   1.327  0.00  0.00    +0.005 A 
ATOM     23  C   UNL     1      -2.086  -3.747   0.233  0.00  0.00    +0.000 A 
ATOM     24  C   UNL     1      -1.073  -2.806   0.276  0.00  0.00    +0.002 A 
ATOM     25  C   UNL     1      -0.884  -2.044   1.413  0.00  0.00    +0.023 A 
ATOM     26  C   UNL     1      -1.716  -2.220   2.511  0.00  0.00    +0.037 A 
ENDBRANCH  16  26
ENDBRANCH   1  17
TORSDOF 3
