REMARK  Name = ZINC09337028
REMARK  3 active torsions:
REMARK  status: ('A' for Active; 'I' for Inactive)
REMARK    1  A    between atoms: N_12  and  C_13
REMARK    2  A    between atoms: C_13  and  C_14
REMARK    3  A    between atoms: N_16  and  C_17
REMARK                            x       y       z     vdW  Elec       q    Type
REMARK                         _______ _______ _______ _____ _____    ______ ____
ROOT
ATOM      1  C   UNL     1      -3.601   1.693   0.129  0.00  0.00    +0.234 C 
ATOM      2  O   UNL     1      -3.621   2.905   0.137  0.00  0.00    -0.274 OA
ATOM      3  N   UNL     1      -2.428   1.038   0.018  0.00  0.00    -0.284 N 
ATOM      4  H   UNL     1      -2.418   0.072  -0.065  0.00  0.00    +0.155 HD
ENDROOT
BRANCH   3   5
ATOM      5  C   UNL     1      -1.224   1.754   0.023  0.00  0.00    +0.037 A 
ATOM      6  C   UNL     1      -0.148   1.309  -0.734  0.00  0.00    +0.027 A 
ATOM      7  C   UNL     1       1.043   2.009  -0.725  0.00  0.00    +0.051 A 
ATOM      8  C   UNL     1       1.165   3.160   0.034  0.00  0.00    +0.167 A 
ATOM      9  C   UNL     1       0.084   3.614   0.790  0.00  0.00    +0.169 A 
ATOM     10  C   UNL     1      -1.108   2.912   0.781  0.00  0.00    +0.072 A 
ATOM     11  O   UNL     1       0.465   4.759   1.440  0.00  0.00    -0.447 OA
ATOM     12  C   UNL     1       1.581   5.232   0.672  0.00  0.00    +0.254 C 
ATOM     13  O   UNL     1       2.212   4.027   0.216  0.00  0.00    -0.448 OA
ATOM     14  C   UNL     1       2.533   6.069   1.533  0.00  0.00    +0.093 C 
ATOM     15  C   UNL     1       3.061   7.155   0.559  0.00  0.00    +0.008 C 
ATOM     16  C   UNL     1       1.818   7.473  -0.310  0.00  0.00    +0.008 C 
ATOM     17  C   UNL     1       1.126   6.104  -0.498  0.00  0.00    +0.093 C 
ENDBRANCH   3   5
BRANCH   1  18
ATOM     18  C   UNL     1      -4.888   0.917   0.243  0.00  0.00    +0.199 C 
BRANCH  18  30
ATOM     19  C   UNL     1      -9.662   4.370   0.696  0.00  0.00    +0.001 A 
ATOM     20  C   UNL     1     -10.856   3.679   0.802  0.00  0.00    +0.002 A 
ATOM     21  C   UNL     1     -10.845   2.292   0.795  0.00  0.00    +0.030 A 
ATOM     22  C   UNL     1      -9.659   1.627   0.683  0.00  0.00    +0.123 A 
ATOM     23  C   UNL     1      -8.433   2.299   0.581  0.00  0.00    +0.043 A 
ATOM     24  C   UNL     1      -8.464   3.702   0.584  0.00  0.00    +0.013 A 
ATOM     25  C   UNL     1      -7.298   1.370   0.466  0.00  0.00    +0.150 C 
ATOM     26  N   UNL     1      -7.522   0.094   0.481  0.00  0.00    -0.113 NA
ATOM     27  S   UNL     1      -9.180  -0.078   0.632  0.00  0.00    +0.101 S 
ATOM     28  O   UNL     1      -9.670  -0.629  -0.583  0.00  0.00    -0.146 OA
ATOM     29  O   UNL     1      -9.442  -0.641   1.910  0.00  0.00    -0.146 OA
ATOM     30  N   UNL     1      -6.013   1.851   0.351  0.00  0.00    -0.319 N 
ATOM     31  H   UNL     1      -5.852   2.807   0.341  0.00  0.00    +0.148 HD
ENDBRANCH  18  30
ENDBRANCH   1  18
TORSDOF 3
