REMARK  Name = ZINC20912019
REMARK  10 active torsions:
REMARK  status: ('A' for Active; 'I' for Inactive)
REMARK    1  A    between atoms: C_1  and  C_2
REMARK    2  A    between atoms: C_2  and  C_3
REMARK    3  A    between atoms: C_3  and  N_4
REMARK    4  A    between atoms: C_7  and  N_10
REMARK    5  A    between atoms: C_12  and  N_22
REMARK    6  A    between atoms: C_15  and  C_17
REMARK    7  A    between atoms: N_19  and  C_20
REMARK    8  A    between atoms: C_20  and  C_21
REMARK    9  A    between atoms: N_22  and  C_23
REMARK   10  A    between atoms: C_23  and  C_24
REMARK                            x       y       z     vdW  Elec       q    Type
REMARK                         _______ _______ _______ _____ _____    ______ ____
ROOT
ATOM      1  N   UNL     1      -2.038  -6.051   0.746  0.00  0.00    -0.290 NA
ATOM      2  C   UNL     1      -1.150  -6.492   1.842  0.00  0.00    +0.070 C 
ATOM      3  C   UNL     1      -1.746  -7.841   2.317  0.00  0.00    -0.056 C 
ATOM      4  C   UNL     1      -3.268  -7.574   2.185  0.00  0.00    +0.014 C 
ATOM      5  C   UNL     1      -3.358  -6.683   0.928  0.00  0.00    +0.142 C 
ENDROOT
BRANCH   1   9
ATOM      6  N   UNL     1      -1.482  -2.084  -0.575  0.00  0.00    +0.380 N 
ATOM      7  C   UNL     1      -0.882  -2.440   0.716  0.00  0.00    -0.077 C 
ATOM      8  C   UNL     1      -0.761  -3.961   0.825  0.00  0.00    +0.000 C 
ATOM      9  C   UNL     1      -2.154  -4.587   0.718  0.00  0.00    +0.054 C 
ATOM     10  C   UNL     1      -2.800  -4.149  -0.599  0.00  0.00    +0.000 C 
ATOM     11  C   UNL     1      -2.845  -2.621  -0.655  0.00  0.00    -0.077 C 
ATOM     12  H   UNL     1      -0.924  -2.472  -1.321  0.00  0.00    -0.082 HD
BRANCH   6  13
ATOM     13  C   UNL     1      -1.524  -0.622  -0.708  0.00  0.00    -0.079 C 
BRANCH  13  15
ATOM     14  C   UNL     1      -0.141   1.451  -0.887  0.00  0.00    +0.002 C 
ATOM     15  C   UNL     1      -0.097  -0.072  -0.749  0.00  0.00    -0.022 C 
ENDBRANCH  13  15
ENDBRANCH   6  13
ENDBRANCH   1   9
BRANCH   5  16
ATOM     16  C   UNL     1      -4.410  -5.623   1.125  0.00  0.00    +0.230 C 
ATOM     17  O   UNL     1      -4.364  -4.894   2.094  0.00  0.00    -0.274 OA
ATOM     18  N   UNL     1      -5.404  -5.484   0.225  0.00  0.00    -0.314 N 
ATOM     19  H   UNL     1      -5.442  -6.067  -0.549  0.00  0.00    +0.149 HD
BRANCH  18  20
ATOM     20  C   UNL     1      -6.427  -4.453   0.417  0.00  0.00    +0.101 C 
ATOM     21  C   UNL     1      -7.430  -4.509  -0.738  0.00  0.00    +0.024 C 
ENDBRANCH  18  20
ENDBRANCH   5  16
BRANCH   3  22
ATOM     22  N   UNL     1      -1.378  -8.117   3.712  0.00  0.00    +0.382 N 
ATOM     23  H   UNL     1      -1.637  -7.332   4.290  0.00  0.00    -0.085 HD
ATOM     24  H   UNL     1      -1.862  -8.943   4.030  0.00  0.00    -0.085 HD
BRANCH  22  25
ATOM     25  C   UNL     1       0.072  -8.335   3.802  0.00  0.00    -0.079 C 
BRANCH  25  26
ATOM     26  C   UNL     1       0.455  -8.623   5.255  0.00  0.00    -0.028 C 
ATOM     27  C   UNL     1       0.178  -7.385   6.110  0.00  0.00    +0.002 C 
ATOM     28  C   UNL     1       0.561  -7.673   7.563  0.00  0.00    +0.000 C 
ATOM     29  C   UNL     1       2.049  -8.022   7.638  0.00  0.00    +0.000 C 
ATOM     30  C   UNL     1       2.326  -9.259   6.783  0.00  0.00    +0.000 C 
ATOM     31  C   UNL     1       1.943  -8.972   5.330  0.00  0.00    +0.002 C 
ENDBRANCH  25  26
ENDBRANCH  22  25
ENDBRANCH   3  22
TORSDOF 8
