REMARK  Name = ZINC39276729
REMARK  4 active torsions:
REMARK  status: ('A' for Active; 'I' for Inactive)
REMARK    1  A    between atoms: C_4  and  C_7
REMARK    2  A    between atoms: C_7  and  C_8
REMARK    3  A    between atoms: C_8  and  C_9
REMARK    4  A    between atoms: C_15  and  C_18
REMARK                            x       y       z     vdW  Elec       q    Type
REMARK                         _______ _______ _______ _____ _____    ______ ____
ROOT
ATOM      1  C   UNL     1       5.487  -1.699   1.381  0.00  0.00    +0.152 A 
ATOM      2  N   UNL     1       5.640  -2.990   1.368  0.00  0.00    -0.132 NA
ATOM      3  N   UNL     1       6.892  -3.286   1.367  0.00  0.00    -0.121 NA
ATOM      4  C   UNL     1       7.593  -2.195   1.397  0.00  0.00    +0.211 A 
ATOM      5  N   UNL     1       6.743  -1.119   1.371  0.00  0.00    -0.224 N 
ATOM      6  N   UNL     1       7.264   0.140   1.326  0.00  0.00    -0.262 N 
ATOM      7  C   UNL     1       8.668   0.255   1.803  0.00  0.00    +0.199 C 
ATOM      8  S   UNL     1       9.218  -1.471   1.458  0.00  0.00    -0.055 S 
ATOM      9  H   UNL     1       7.160   0.541   0.406  0.00  0.00    +0.168 HD
ENDROOT
BRANCH   7  10
ATOM     10  C   UNL     1       8.729   0.565   3.277  0.00  0.00    +0.050 A 
ATOM     11  H   UNL     1       6.995  -0.330   4.003  0.00  0.00    +0.166 HD
ATOM     12  C   UNL     1       9.706   1.263   3.877  0.00  0.00    +0.034 A 
ATOM     13  C   UNL     1       9.373   1.327   5.302  0.00  0.00    +0.000 A 
ATOM     14  C   UNL     1       9.985   1.902   6.417  0.00  0.00    +0.010 A 
ATOM     15  C   UNL     1       9.404   1.782   7.648  0.00  0.00    +0.001 A 
ATOM     16  C   UNL     1       8.210   1.091   7.799  0.00  0.00    +0.002 A 
ATOM     17  C   UNL     1       7.588   0.516   6.712  0.00  0.00    +0.026 A 
ATOM     18  C   UNL     1       8.162   0.626   5.450  0.00  0.00    +0.047 A 
ATOM     19  N   UNL     1       7.795   0.181   4.199  0.00  0.00    -0.356 N 
ENDBRANCH   7  10
BRANCH   1  20
ATOM     20  C   UNL     1       4.171  -0.963   1.399  0.00  0.00    +0.082 C 
BRANCH  20  21
ATOM     21  C   UNL     1       3.711  -0.707  -0.038  0.00  0.00    +0.043 C 
BRANCH  21  25
ATOM     22  C   UNL     1      -0.017   1.378   0.010  0.00  0.00    +0.000 A 
ATOM     23  C   UNL     1       1.171   2.086   0.002  0.00  0.00    +0.000 A 
ATOM     24  C   UNL     1       2.377   1.411  -0.013  0.00  0.00    +0.003 A 
ATOM     25  C   UNL     1       2.396   0.029  -0.020  0.00  0.00    -0.047 A 
ATOM     26  C   UNL     1       1.208  -0.679  -0.012  0.00  0.00    +0.003 A 
ATOM     27  C   UNL     1       0.002  -0.004   0.002  0.00  0.00    +0.000 A 
ENDBRANCH  21  25
ENDBRANCH  20  21
ENDBRANCH   1  20
TORSDOF 4
