REMARK  Name = ZINC38664623
REMARK  14 active torsions:
REMARK  status: ('A' for Active; 'I' for Inactive)
REMARK    1  A    between atoms: C_1  and  C_2
REMARK    2  A    between atoms: C_2  and  N_3
REMARK    3  A    between atoms: N_3  and  C_4
REMARK    4  A    between atoms: N_3  and  C_6
REMARK    5  A    between atoms: C_4  and  C_5
REMARK    6  A    between atoms: C_6  and  C_7
REMARK    7  A    between atoms: C_7  and  O_9
REMARK    8  A    between atoms: O_9  and  C_10
REMARK    9  A    between atoms: C_10  and  C_11
REMARK   10  A    between atoms: C_11  and  C_13
REMARK   11  A    between atoms: C_13  and  O_38
REMARK   12  A    between atoms: C_18  and  C_37
REMARK   13  A    between atoms: C_20  and  O_36
REMARK   14  A    between atoms: C_34  and  C_35
REMARK                            x       y       z     vdW  Elec       q    Type
REMARK                         _______ _______ _______ _____ _____    ______ ____
ROOT
ATOM      1  C   UNL     1      -4.552  -5.758  -2.992  0.00  0.00    +0.133 C 
ATOM      2  C   UNL     1      -5.238  -6.199  -1.670  0.00  0.00    +0.043 C 
ATOM      3  C   UNL     1      -5.359  -7.747  -1.735  0.00  0.00    +0.008 C 
ATOM      4  C   UNL     1      -4.303  -8.118  -2.792  0.00  0.00    +0.002 C 
ATOM      5  C   UNL     1      -4.544  -7.029  -3.856  0.00  0.00    +0.009 C 
ATOM      6  C   UNL     1      -3.528  -7.098  -4.965  0.00  0.00    +0.041 C 
ATOM      7  C   UNL     1      -2.897  -8.513  -5.017  0.00  0.00    +0.119 C 
ATOM      8  C   UNL     1      -4.008  -9.531  -4.833  0.00  0.00    +0.031 C 
ATOM      9  C   UNL     1      -4.383  -9.512  -3.338  0.00  0.00    -0.001 C 
ATOM     10  C   UNL     1      -5.675 -10.263  -3.079  0.00  0.00    +0.008 C 
ATOM     11  C   UNL     1      -5.424 -11.743  -3.442  0.00  0.00    +0.032 C 
ATOM     12  C   UNL     1      -4.982 -11.755  -4.896  0.00  0.00    -0.060 C 
ATOM     13  C   UNL     1      -5.705 -12.461  -5.758  0.00  0.00    +0.046 C 
ATOM     14  C   UNL     1      -5.380 -12.445  -7.189  0.00  0.00    +0.156 C 
ATOM     15  O   UNL     1      -5.761 -13.300  -7.957  0.00  0.00    -0.293 OA
ATOM     16  C   UNL     1      -4.564 -11.250  -7.653  0.00  0.00    +0.080 C 
ATOM     17  C   UNL     1      -3.362 -11.144  -6.717  0.00  0.00    +0.019 C 
ATOM     18  C   UNL     1      -3.751 -10.958  -5.271  0.00  0.00    -0.005 C 
ATOM     19  C   UNL     1      -2.584 -11.529  -4.463  0.00  0.00    +0.016 C 
ATOM     20  C   UNL     1      -5.957  -7.149  -4.454  0.00  0.00    +0.015 C 
ENDROOT
BRANCH   1  21
ATOM     21  C   UNL     1      -3.166  -5.261  -2.697  0.00  0.00    +0.202 C 
ATOM     22  O   UNL     1      -2.234  -6.029  -2.712  0.00  0.00    -0.291 OA
BRANCH  21  23
ATOM     23  C   UNL     1      -2.938  -3.805  -2.382  0.00  0.00    +0.309 C 
BRANCH  23  24
ATOM     24  O   UNL     1      -1.547  -3.583  -2.139  0.00  0.00    -0.458 OA
BRANCH  24  25
ATOM     25  C   UNL     1      -1.174  -2.328  -1.842  0.00  0.00    +0.291 C 
ATOM     26  O   UNL     1      -2.000  -1.448  -1.790  0.00  0.00    -0.253 OA
BRANCH  25  27
ATOM     27  C   UNL     1       0.276  -2.017  -1.573  0.00  0.00    +0.044 C 
BRANCH  27  28
ATOM     28  N   UNL     1       0.422  -0.586  -1.275  0.00  0.00    +0.386 N 
ATOM     29  H   UNL     1       0.027  -0.043  -2.028  0.00  0.00    -0.081 HD
BRANCH  28  31
ATOM     30  C   UNL     1      -0.254   1.239   0.211  0.00  0.00    -0.017 C 
ATOM     31  C   UNL     1      -0.280  -0.273  -0.023  0.00  0.00    -0.082 C 
ENDBRANCH  28  31
BRANCH  28  32
ATOM     32  C   UNL     1       1.847  -0.260  -1.131  0.00  0.00    -0.082 C 
ATOM     33  C   UNL     1       2.552  -0.449  -2.476  0.00  0.00    -0.017 C 
ENDBRANCH  28  32
ENDBRANCH  27  28
ENDBRANCH  25  27
ENDBRANCH  24  25
ENDBRANCH  23  24
ENDBRANCH  21  23
ENDBRANCH   1  21
BRANCH   7  34
ATOM     34  O   UNL     1      -2.206  -8.648  -6.251  0.00  0.00    -0.391 OA
ATOM     35  H   UNL     1      -1.496  -8.002  -6.377  0.00  0.00    +0.210 HD
ENDBRANCH   7  34
BRANCH   1  36
ATOM     36  O   UNL     1      -5.327  -4.741  -3.629  0.00  0.00    -0.380 OA
ATOM     37  H   UNL     1      -5.421  -3.933  -3.107  0.00  0.00    +0.211 HD
ENDBRANCH   1  36
TORSDOF 10
