REMARK  Name = ZINC35323982
REMARK  6 active torsions:
REMARK  status: ('A' for Active; 'I' for Inactive)
REMARK    1  A    between atoms: C_1  and  N_2
REMARK    2  A    between atoms: N_2  and  C_3
REMARK    3  A    between atoms: N_2  and  C_4
REMARK    4  A    between atoms: C_11  and  N_25
REMARK    5  A    between atoms: C_12  and  C_23
REMARK    6  A    between atoms: C_13  and  C_15
REMARK                            x       y       z     vdW  Elec       q    Type
REMARK                         _______ _______ _______ _____ _____    ______ ____
ROOT
ATOM      1  C   UNL     1      -1.198  -0.719   0.010  0.00  0.00    +0.033 A 
ATOM      2  C   UNL     1      -1.181  -2.108   0.008  0.00  0.00    +0.023 A 
ATOM      3  C   UNL     1      -2.368  -2.813   0.015  0.00  0.00    +0.010 A 
ATOM      4  C   UNL     1      -3.578  -2.141   0.025  0.00  0.00    +0.008 A 
ATOM      5  C   UNL     1      -3.602  -0.755   0.026  0.00  0.00    +0.136 A 
ATOM      6  C   UNL     1      -2.409  -0.043   0.025  0.00  0.00    +0.069 A 
ATOM      7  O   UNL     1      -4.777  -0.079   0.036  0.00  0.00    -0.441 OA
ATOM      8  C   UNL     1      -5.904  -0.699   0.425  0.00  0.00    +0.199 C 
ATOM      9  C   UNL     1      -6.008  -2.049   0.447  0.00  0.00    +0.098 C 
ATOM     10  C   UNL     1      -4.861  -2.928   0.032  0.00  0.00    +0.101 C 
ENDROOT
BRANCH  10  11
ATOM     11  C   UNL     1      -5.122  -3.471  -1.350  0.00  0.00    +0.002 A 
ATOM     12  C   UNL     1      -5.261  -2.604  -2.419  0.00  0.00    +0.046 A 
ATOM     13  C   UNL     1      -5.500  -3.102  -3.687  0.00  0.00    +0.020 A 
ATOM     14  C   UNL     1      -5.602  -4.466  -3.886  0.00  0.00    +0.003 A 
ATOM     15  C   UNL     1      -5.463  -5.333  -2.818  0.00  0.00    +0.020 A 
ATOM     16  C   UNL     1      -5.218  -4.836  -1.550  0.00  0.00    +0.046 A 
ATOM     17 CL   UNL     1      -5.036  -5.925  -0.211  0.00  0.00    -0.083 Cl
ATOM     18 CL   UNL     1      -5.135  -0.890  -2.169  0.00  0.00    -0.083 Cl
ENDBRANCH  10  11
BRANCH   1  20
ATOM     19  C   UNL     1      -0.018   1.461   0.010  0.00  0.00    +0.129 C 
ATOM     20  N   UNL     1       0.002  -0.004   0.002  0.00  0.00    -0.336 N 
ATOM     21  C   UNL     1       1.281  -0.719  -0.014  0.00  0.00    +0.129 C 
ENDBRANCH   1  20
BRANCH   8  22
ATOM     22  N   UNL     1      -6.981   0.058   0.813  0.00  0.00    -0.328 N 
ATOM     23  H   UNL     1      -6.922   1.026   0.803  0.00  0.00    +0.145 HD
ATOM     24  H   UNL     1      -7.801  -0.375   1.097  0.00  0.00    +0.145 HD
ENDBRANCH   8  22
BRANCH   9  25
ATOM     25  C   UNL     1      -7.235  -2.652   0.874  0.00  0.00    +0.101 C 
ATOM     26  N   UNL     1      -8.208  -3.129   1.212  0.00  0.00    -0.191 NA
ENDBRANCH   9  25
TORSDOF 4
