REMARK  Name = ZINC37538318
REMARK  10 active torsions:
REMARK  status: ('A' for Active; 'I' for Inactive)
REMARK    1  A    between atoms: C_1  and  C_2
REMARK    2  A    between atoms: C_11  and  O_16
REMARK    3  A    between atoms: C_13  and  C_14
REMARK    4  A    between atoms: C_13  and  C_15
REMARK    5  A    between atoms: C_17  and  C_18
REMARK    6  A    between atoms: C_17  and  C_19
REMARK    7  A    between atoms: C_19  and  C_20
REMARK    8  A    between atoms: C_21  and  O_32
REMARK    9  A    between atoms: C_25  and  O_26
REMARK   10  A    between atoms: C_27  and  O_31
REMARK                            x       y       z     vdW  Elec       q    Type
REMARK                         _______ _______ _______ _____ _____    ______ ____
ROOT
ATOM      1  C   UNL     1       0.389   1.356   0.149  0.00  0.00    +0.008 C 
ATOM      2  C   UNL     1       0.539  -0.142   0.423  0.00  0.00    -0.004 C 
ATOM      3  C   UNL     1       1.482  -0.758  -0.612  0.00  0.00    +0.005 C 
ATOM      4  C   UNL     1       2.825  -0.025  -0.588  0.00  0.00    +0.009 C 
ATOM      5  C   UNL     1       3.480  -0.210   0.783  0.00  0.00    +0.023 C 
ATOM      6  C   UNL     1       2.523   0.226   1.854  0.00  0.00    -0.063 C 
ATOM      7  C   UNL     1       2.826   1.066   2.801  0.00  0.00    -0.024 C 
ATOM      8  C   UNL     1       4.178   1.706   2.928  0.00  0.00    +0.059 C 
ATOM      9  C   UNL     1       5.224   0.795   2.277  0.00  0.00    +0.124 C 
ATOM     10  C   UNL     1       4.797   0.545   0.837  0.00  0.00    -0.002 C 
ATOM     11  C   UNL     1       5.880  -0.281   0.141  0.00  0.00    +0.014 C 
ATOM     12  C   UNL     1       4.640   1.883   0.110  0.00  0.00    +0.014 C 
ATOM     13  C   UNL     1       1.117  -0.349   1.826  0.00  0.00    -0.004 C 
ATOM     14  C   UNL     1       1.165  -1.844   2.148  0.00  0.00    +0.016 C 
ENDROOT
BRANCH   9  15
ATOM     15  O   UNL     1       6.501   1.437   2.299  0.00  0.00    -0.391 OA
ATOM     16  H   UNL     1       6.821   1.646   3.188  0.00  0.00    +0.210 HD
ENDBRANCH   9  15
BRANCH  13  17
ATOM     17  C   UNL     1       0.244   0.373   2.854  0.00  0.00    +0.053 C 
BRANCH  17  18
ATOM     18  C   UNL     1      -1.105  -0.294   2.925  0.00  0.00    +0.037 A 
ATOM     19  C   UNL     1      -2.162   0.195   2.172  0.00  0.00    +0.124 A 
ATOM     20  C   UNL     1      -3.404  -0.420   2.237  0.00  0.00    +0.052 A 
ATOM     21  C   UNL     1      -3.588  -1.518   3.051  0.00  0.00    -0.007 A 
ATOM     22  C   UNL     1      -2.534  -2.009   3.805  0.00  0.00    +0.055 A 
ATOM     23  C   UNL     1      -1.290  -1.402   3.738  0.00  0.00    +0.132 A 
ATOM     24  C   UNL     1      -3.051  -3.200   4.578  0.00  0.00    +0.283 C 
ATOM     25  O   UNL     1      -4.268  -3.599   3.921  0.00  0.00    -0.343 OA
ATOM     26  C   UNL     1      -4.788  -2.391   3.337  0.00  0.00    +0.199 C 
BRANCH  23  27
ATOM     27  O   UNL     1      -0.256  -1.888   4.473  0.00  0.00    -0.506 OA
ATOM     28  H   UNL     1      -0.183  -1.499   5.355  0.00  0.00    +0.292 HD
ENDBRANCH  23  27
BRANCH  24  29
ATOM     29  O   UNL     1      -2.098  -4.264   4.539  0.00  0.00    -0.363 OA
ATOM     30  H   UNL     1      -2.374  -5.057   5.019  0.00  0.00    +0.213 HD
ENDBRANCH  24  29
BRANCH  19  31
ATOM     31  O   UNL     1      -1.981   1.278   1.370  0.00  0.00    -0.506 OA
ATOM     32  H   UNL     1      -1.788   1.056   0.448  0.00  0.00    +0.292 HD
ENDBRANCH  19  31
ENDBRANCH  17  18
ENDBRANCH  13  17
TORSDOF 6
