REMARK  Name = ZINC11859149
REMARK  6 active torsions:
REMARK  status: ('A' for Active; 'I' for Inactive)
REMARK    1  A    between atoms: C_3  and  C_6
REMARK    2  A    between atoms: C_6  and  C_8
REMARK    3  A    between atoms: C_10  and  C_22
REMARK    4  A    between atoms: C_16  and  C_17
REMARK    5  A    between atoms: C_16  and  O_21
REMARK    6  A    between atoms: C_25  and  C_28
REMARK                            x       y       z     vdW  Elec       q    Type
REMARK                         _______ _______ _______ _____ _____    ______ ____
ROOT
ATOM      1  C   UNL     1      -1.905   5.865  -0.210  0.00  0.00    +0.145 C 
ATOM      2  C   UNL     1      -2.870   6.521   0.782  0.00  0.00    +0.120 C 
ATOM      3  N   UNL     1      -3.101   7.910   0.381  0.00  0.00    -0.292 N 
ATOM      4  C   UNL     1      -3.029   8.286  -0.904  0.00  0.00    +0.302 C 
ATOM      5  O   UNL     1      -3.239   9.450  -1.185  0.00  0.00    -0.253 OA
ATOM      6  N   UNL     1      -2.734   7.428  -1.893  0.00  0.00    -0.264 N 
ATOM      7  C   UNL     1      -2.483   6.012  -1.622  0.00  0.00    +0.243 C 
ATOM      8  H   UNL     1      -3.309   8.572   1.059  0.00  0.00    +0.151 HD
ATOM      9  H   UNL     1      -2.686   7.754  -2.805  0.00  0.00    +0.153 HD
ENDROOT
BRANCH   2  10
ATOM     10  C   UNL     1      -2.270   6.490   2.164  0.00  0.00    -0.026 A 
ATOM     11  C   UNL     1      -2.569   5.450   3.024  0.00  0.00    +0.006 A 
ATOM     12  C   UNL     1      -2.014   5.418   4.290  0.00  0.00    +0.013 A 
ATOM     13  C   UNL     1      -1.168   6.431   4.699  0.00  0.00    +0.055 A 
ATOM     14  C   UNL     1      -0.873   7.474   3.841  0.00  0.00    +0.013 A 
ATOM     15  C   UNL     1      -1.423   7.503   2.574  0.00  0.00    +0.006 A 
BRANCH  13  16
ATOM     16  C   UNL     1      -0.567   6.399   6.081  0.00  0.00    +0.417 C 
ATOM     17  F   UNL     1      -1.414   7.065   6.974  0.00  0.00    -0.166 F 
ATOM     18  F   UNL     1      -0.409   5.071   6.490  0.00  0.00    -0.166 F 
ATOM     19  F   UNL     1       0.680   7.032   6.062  0.00  0.00    -0.166 F 
ENDBRANCH  13  16
ENDBRANCH   2  10
BRANCH   7  20
ATOM     20  C   UNL     1      -1.483   5.466  -2.643  0.00  0.00    +0.436 C 
ATOM     21  F   UNL     1      -1.238   4.114  -2.379  0.00  0.00    -0.166 F 
ATOM     22  F   UNL     1      -2.012   5.601  -3.932  0.00  0.00    -0.166 F 
ATOM     23  F   UNL     1      -0.286   6.184  -2.553  0.00  0.00    -0.166 F 
ENDBRANCH   7  20
BRANCH   1  24
ATOM     24  C   UNL     1      -0.564   6.548  -0.139  0.00  0.00    +0.179 C 
ATOM     25  O   UNL     1      -0.498   7.760  -0.140  0.00  0.00    -0.291 OA
BRANCH  24  28
ATOM     26  C   UNL     1       2.906   5.233   0.055  0.00  0.00    +0.008 A 
ATOM     27  C   UNL     1       1.941   6.204  -0.001  0.00  0.00    +0.019 A 
ATOM     28  C   UNL     1       0.618   5.777  -0.072  0.00  0.00    +0.055 A 
ATOM     29  S   UNL     1       0.805   4.003  -0.063  0.00  0.00    -0.094 S 
ATOM     30  C   UNL     1       2.534   3.924   0.039  0.00  0.00    +0.046 A 
ENDBRANCH  24  28
ENDBRANCH   1  24
BRANCH   7  31
ATOM     31  O   UNL     1      -3.708   5.283  -1.715  0.00  0.00    -0.364 OA
ATOM     32  H   UNL     1      -4.131   5.332  -2.583  0.00  0.00    +0.212 HD
ENDBRANCH   7  31
TORSDOF 6
