REMARK  Name = ZINC65182879
REMARK  9 active torsions:
REMARK  status: ('A' for Active; 'I' for Inactive)
REMARK    1  A    between atoms: C_1  and  C_2
REMARK    2  A    between atoms: C_6  and  C_8
REMARK    3  A    between atoms: N_10  and  C_11
REMARK    4  A    between atoms: N_10  and  C_12
REMARK    5  A    between atoms: C_12  and  C_13
REMARK    6  A    between atoms: C_13  and  C_14
REMARK    7  A    between atoms: C_17  and  C_20
REMARK    8  A    between atoms: C_22  and  C_31
REMARK    9  A    between atoms: C_25  and  C_30
REMARK                            x       y       z     vdW  Elec       q    Type
REMARK                         _______ _______ _______ _____ _____    ______ ____
ROOT
ATOM      1  C   UNL     1      -2.146  -5.585   5.239  0.00  0.00    +0.139 C 
ATOM      2  N   UNL     1      -1.262  -6.145   5.981  0.00  0.00    -0.072 NA
ATOM      3  O   UNL     1      -1.858  -6.748   7.115  0.00  0.00    -0.367 OA
ATOM      4  C   UNL     1      -3.269  -6.500   7.008  0.00  0.00    +0.318 C 
ATOM      5  N   UNL     1      -3.410  -5.729   5.762  0.00  0.00    -0.291 N 
ATOM      6  H   UNL     1      -4.235  -5.389   5.383  0.00  0.00    +0.151 HD
ENDROOT
BRANCH   4   7
ATOM      7  C   UNL     1      -3.761  -5.680   8.202  0.00  0.00    +0.168 C 
ATOM      8  C   UNL     1      -3.507  -6.431   9.490  0.00  0.00    -0.036 C 
ATOM      9  C   UNL     1      -2.678  -5.651  10.221  0.00  0.00    -0.001 A 
ATOM     10  C   UNL     1      -2.072  -5.815  11.548  0.00  0.00    +0.013 A 
ATOM     11  C   UNL     1      -1.266  -4.840  12.026  0.00  0.00    -0.050 A 
ATOM     12  C   UNL     1      -0.996  -3.679  11.288  0.00  0.00    +0.005 A 
ATOM     13  C   UNL     1      -1.516  -3.457  10.062  0.00  0.00    +0.026 A 
ATOM     14  C   UNL     1      -2.377  -4.416   9.462  0.00  0.00    +0.043 A 
ATOM     15  N   UNL     1      -2.998  -4.431   8.305  0.00  0.00    -0.373 N 
ATOM     16  C   UNL     1      -0.642  -5.005  13.388  0.00  0.00    +0.044 C 
ATOM     17  C   UNL     1      -4.065  -7.775   9.880  0.00  0.00    +0.042 C 
ATOM     18  H   UNL     1      -2.958  -3.734   7.632  0.00  0.00    +0.160 HD
ENDBRANCH   4   7
BRANCH   1  19
ATOM     19  C   UNL     1      -1.838  -4.855   3.957  0.00  0.00    +0.094 C 
BRANCH  19  20
ATOM     20  C   UNL     1      -0.332  -4.900   3.694  0.00  0.00    +0.115 C 
BRANCH  20  23
ATOM     21  C   UNL     1       0.240  -2.871   2.473  0.00  0.00    +0.246 C 
ATOM     22  O   UNL     1       0.324  -2.288   3.536  0.00  0.00    -0.270 OA
ATOM     23  N   UNL     1      -0.032  -4.191   2.448  0.00  0.00    -0.300 N 
ATOM     24  C   UNL     1      -0.028  -4.915   1.175  0.00  0.00    +0.132 C 
BRANCH  21  30
ATOM     25  C   UNL     1      -0.431   1.238  -0.278  0.00  0.00    +0.044 C 
ATOM     26  C   UNL     1       0.116  -0.157  -0.121  0.00  0.00    -0.050 A 
ATOM     27  C   UNL     1       0.804  -0.750  -1.165  0.00  0.00    +0.003 A 
ATOM     28  C   UNL     1       1.310  -2.031  -1.028  0.00  0.00    +0.001 A 
ATOM     29  C   UNL     1       1.131  -2.725   0.150  0.00  0.00    +0.013 A 
ATOM     30  C   UNL     1       0.437  -2.133   1.207  0.00  0.00    +0.037 A 
ATOM     31  C   UNL     1      -0.066  -0.838   1.065  0.00  0.00    +0.016 A 
ENDBRANCH  21  30
ENDBRANCH  20  23
ENDBRANCH  19  20
ENDBRANCH   1  19
TORSDOF 5
