REMARK  Name = ZINC16717859
REMARK  8 active torsions:
REMARK  status: ('A' for Active; 'I' for Inactive)
REMARK    1  A    between atoms: C_1  and  C_2
REMARK    2  A    between atoms: C_2  and  C_4
REMARK    3  A    between atoms: C_2  and  S_16
REMARK    4  A    between atoms: N_6  and  C_7
REMARK    5  A    between atoms: N_6  and  C_8
REMARK    6  A    between atoms: S_16  and  C_17
REMARK    7  A    between atoms: C_20  and  C_23
REMARK    8  A    between atoms: N_21  and  N_22
REMARK                            x       y       z     vdW  Elec       q    Type
REMARK                         _______ _______ _______ _____ _____    ______ ____
ROOT
ATOM      1  C   UNL     1      -2.743  -2.373   0.015  0.00  0.00    +0.209 A 
ATOM      2  N   UNL     1      -3.347  -1.206   0.027  0.00  0.00    -0.121 NA
ATOM      3  N   UNL     1      -2.478  -0.259   0.029  0.00  0.00    -0.127 NA
ATOM      4  C   UNL     1      -1.266  -0.764   0.010  0.00  0.00    +0.183 A 
ATOM      5  N   UNL     1      -1.399  -2.133   0.003  0.00  0.00    -0.224 N 
ENDROOT
BRANCH   4   6
ATOM      6  C   UNL     1       0.002  -0.004   0.002  0.00  0.00    +0.039 A 
ATOM      7  C   UNL     1       1.224  -0.679  -0.013  0.00  0.00    +0.013 A 
ATOM      8  C   UNL     1       2.403   0.036  -0.021  0.00  0.00    +0.001 A 
ATOM      9  C   UNL     1       2.378   1.419  -0.013  0.00  0.00    +0.001 A 
ATOM     10  C   UNL     1       1.172   2.095   0.002  0.00  0.00    +0.021 A 
ATOM     11  C   UNL     1      -0.017   1.392   0.010  0.00  0.00    +0.052 A 
ATOM     12 CL   UNL     1      -1.531   2.242   0.021  0.00  0.00    -0.083 Cl
ENDBRANCH   4   6
BRANCH   5  13
ATOM     13  N   UNL     1      -0.395  -3.060  -0.011  0.00  0.00    -0.295 N 
ATOM     14  H   UNL     1      -0.121  -3.310   0.927  0.00  0.00    +0.163 HD
ATOM     15  H   UNL     1      -0.664  -3.876  -0.539  0.00  0.00    +0.163 HD
ENDBRANCH   5  13
BRANCH   1  16
ATOM     16  S   UNL     1      -3.523  -3.953   0.013  0.00  0.00    -0.072 S 
BRANCH  16  18
ATOM     17  C   UNL     1      -5.567  -2.726   1.347  0.00  0.00    +0.029 C 
ATOM     18  C   UNL     1      -5.261  -3.446   0.033  0.00  0.00    +0.137 C 
BRANCH  18  19
ATOM     19  C   UNL     1      -6.140  -4.663  -0.089  0.00  0.00    +0.229 C 
ATOM     20  O   UNL     1      -5.728  -5.748   0.265  0.00  0.00    -0.274 OA
ATOM     21  N   UNL     1      -7.385  -4.547  -0.593  0.00  0.00    -0.299 N 
ATOM     22  C   UNL     1      -7.883  -3.238  -1.021  0.00  0.00    +0.132 C 
BRANCH  21  23
ATOM     23  C   UNL     1      -8.241  -5.731  -0.712  0.00  0.00    +0.098 C 
ATOM     24  C   UNL     1      -9.518  -5.534   0.120  0.00  0.00    +0.046 C 
ATOM     25  C   UNL     1     -10.560  -6.618  -0.247  0.00  0.00    +0.168 C 
ATOM     26  S   UNL     1     -10.132  -7.015  -1.991  0.00  0.00    -0.029 S 
ATOM     27  O   UNL     1      -9.723  -8.373  -2.069  0.00  0.00    -0.174 OA
ATOM     28  O   UNL     1     -11.172  -6.548  -2.840  0.00  0.00    -0.174 OA
ATOM     29  C   UNL     1      -8.656  -5.931  -2.197  0.00  0.00    +0.188 C 
ENDBRANCH  21  23
ENDBRANCH  18  19
ENDBRANCH  16  18
ENDBRANCH   1  16
TORSDOF 6
