REMARK  Name = ZINC19265227
REMARK  2 active torsions:
REMARK  status: ('A' for Active; 'I' for Inactive)
REMARK    1  A    between atoms: N_11  and  C_15
REMARK    2  A    between atoms: C_15  and  C_16
REMARK                            x       y       z     vdW  Elec       q    Type
REMARK                         _______ _______ _______ _____ _____    ______ ____
ROOT
ATOM      1  C   UNL     1       0.002  -0.004   0.002  0.00  0.00    +0.000 C 
ATOM      2  C   UNL     1      -0.019   1.526   0.010  0.00  0.00    +0.000 C 
ATOM      3  C   UNL     1       1.417   2.056  -0.000  0.00  0.00    +0.003 C 
ATOM      4  C   UNL     1       2.246   1.262  -1.015  0.00  0.00    +0.035 C 
ATOM      5  C   UNL     1       1.880   1.719  -2.426  0.00  0.00    +0.113 C 
ATOM      6  C   UNL     1       0.527   1.138  -2.830  0.00  0.00    +0.035 C 
ATOM      7  C   UNL     1       0.465  -0.338  -2.431  0.00  0.00    +0.003 C 
ATOM      8  C   UNL     1      -0.572  -0.517  -1.321  0.00  0.00    +0.000 C 
ATOM      9  C   UNL     1       2.950   1.313  -3.411  0.00  0.00    +0.247 C 
ATOM     10  O   UNL     1       3.314   0.188  -3.678  0.00  0.00    -0.273 OA
ATOM     11  N   UNL     1       3.415   2.469  -3.930  0.00  0.00    -0.222 N 
ATOM     12  C   UNL     1       2.789   3.531  -3.409  0.00  0.00    +0.309 C 
ATOM     13  O   UNL     1       3.035   4.680  -3.720  0.00  0.00    -0.252 OA
ATOM     14  N   UNL     1       1.857   3.184  -2.502  0.00  0.00    -0.285 N 
ATOM     15  H   UNL     1       1.156   3.756  -1.876  0.00  0.00    +0.151 HD
ENDROOT
BRANCH  11  16
ATOM     16  C   UNL     1       4.474   2.550  -4.940  0.00  0.00    +0.152 C 
BRANCH  16  17
ATOM     17  C   UNL     1       3.852   2.507  -6.337  0.00  0.00    +0.162 C 
ATOM     18  C   UNL     1       4.798   2.494  -7.539  0.00  0.00    +0.193 C 
ATOM     19  O   UNL     1       4.030   3.647  -7.180  0.00  0.00    -0.370 OA
ENDBRANCH  16  17
ENDBRANCH  11  16
TORSDOF 2
