REMARK  Name = ZINC06822169
REMARK  15 active torsions:
REMARK  status: ('A' for Active; 'I' for Inactive)
REMARK    1  A    between atoms: C_1  and  C_2
REMARK    2  A    between atoms: C_2  and  C_3
REMARK    3  A    between atoms: C_6  and  N_9
REMARK    4  A    between atoms: N_9  and  C_10
REMARK    5  A    between atoms: C_10  and  C_12
REMARK    6  A    between atoms: C_10  and  C_19
REMARK    7  A    between atoms: C_15  and  O_18
REMARK    8  A    between atoms: N_21  and  C_22
REMARK    9  A    between atoms: C_22  and  C_23
REMARK   10  A    between atoms: C_22  and  C_24
REMARK   11  A    between atoms: C_22  and  C_25
REMARK   12  A    between atoms: C_26  and  C_28
REMARK   13  A    between atoms: C_28  and  N_29
REMARK   14  A    between atoms: C_31  and  C_34
REMARK   15  A    between atoms: C_37  and  C_39
REMARK                            x       y       z     vdW  Elec       q    Type
REMARK                         _______ _______ _______ _____ _____    ______ ____
ROOT
ATOM      1  N   UNL     1      -2.915   3.053   4.482  0.00  0.00    -0.254 N 
ATOM      2  C   UNL     1      -3.931   2.408   5.088  0.00  0.00    +0.244 C 
ATOM      3  O   UNL     1      -4.469   1.470   4.538  0.00  0.00    -0.273 OA
ENDROOT
BRANCH   1   7
ATOM      4  C   UNL     1      -1.833   2.042   0.588  0.00  0.00    -0.048 A 
ATOM      5  C   UNL     1      -2.419   3.268   0.845  0.00  0.00    +0.005 A 
ATOM      6  C   UNL     1      -2.784   3.604   2.134  0.00  0.00    +0.024 A 
ATOM      7  C   UNL     1      -2.552   2.713   3.174  0.00  0.00    +0.038 A 
ATOM      8  C   UNL     1      -1.959   1.485   2.913  0.00  0.00    +0.024 A 
ATOM      9  C   UNL     1      -1.601   1.153   1.621  0.00  0.00    +0.005 A 
BRANCH   4  11
ATOM     10  C   UNL     1      -2.611   0.969  -1.508  0.00  0.00    +0.009 C 
ATOM     11  C   UNL     1      -1.442   1.677  -0.821  0.00  0.00    +0.032 C 
ENDBRANCH   4  11
ENDBRANCH   1   7
BRANCH   1  12
ATOM     12  C   UNL     1      -2.191   4.110   5.192  0.00  0.00    +0.197 C 
BRANCH  12  13
ATOM     13  C   UNL     1      -1.210   4.764   4.253  0.00  0.00    -0.018 A 
ATOM     14  C   UNL     1      -0.235   4.004   3.634  0.00  0.00    +0.009 A 
ATOM     15  C   UNL     1       0.662   4.600   2.769  0.00  0.00    +0.046 A 
ATOM     16  C   UNL     1       0.592   5.965   2.531  0.00  0.00    +0.117 A 
ATOM     17  C   UNL     1      -0.383   6.727   3.159  0.00  0.00    +0.046 A 
ATOM     18  C   UNL     1      -1.282   6.125   4.018  0.00  0.00    +0.009 A 
BRANCH  16  19
ATOM     19  O   UNL     1       1.477   6.555   1.686  0.00  0.00    -0.507 OA
ATOM     20  H   UNL     1       2.283   6.871   2.118  0.00  0.00    +0.292 HD
ENDBRANCH  16  19
ENDBRANCH  12  13
BRANCH  12  21
ATOM     21  C   UNL     1      -1.448   3.514   6.359  0.00  0.00    +0.239 C 
ATOM     22  O   UNL     1      -1.209   2.325   6.382  0.00  0.00    -0.273 OA
ATOM     23  N   UNL     1      -1.050   4.301   7.378  0.00  0.00    -0.309 N 
ATOM     24  H   UNL     1      -1.242   5.252   7.360  0.00  0.00    +0.149 HD
BRANCH  23  25
ATOM     25  C   UNL     1      -0.329   3.721   8.513  0.00  0.00    +0.026 C 
ATOM     26  C   UNL     1       0.967   3.075   8.018  0.00  0.00    +0.031 C 
ATOM     27  C   UNL     1       0.004   4.822   9.523  0.00  0.00    +0.031 C 
ATOM     28  C   UNL     1      -1.203   2.660   9.185  0.00  0.00    +0.031 C 
ENDBRANCH  23  25
ENDBRANCH  12  21
ENDBRANCH   1  12
BRANCH   2  29
ATOM     29  C   UNL     1      -4.399   2.850   6.451  0.00  0.00    +0.264 C 
BRANCH  29  30
ATOM     30  N   UNL     1      -5.505   1.996   6.889  0.00  0.00    -0.154 N 
ATOM     31  N   UNL     1      -6.754   2.222   6.667  0.00  0.00    -0.127 NA
ATOM     32  C   UNL     1      -7.444   1.236   7.210  0.00  0.00    +0.239 A 
ATOM     33  N   UNL     1      -6.552   0.410   7.777  0.00  0.00    -0.105 NA
ATOM     34  N   UNL     1      -5.381   0.905   7.561  0.00  0.00    -0.045 NA
BRANCH  32  35
ATOM     35  C   UNL     1      -8.915   1.077   7.200  0.00  0.00    +0.175 A 
ATOM     36  C   UNL     1      -9.610   0.055   7.764  0.00  0.00    +0.053 A 
ATOM     37  C   UNL     1     -10.975   0.307   7.517  0.00  0.00    +0.045 A 
ATOM     38  C   UNL     1     -11.043   1.454   6.814  0.00  0.00    +0.103 A 
ATOM     39  O   UNL     1      -9.797   1.917   6.624  0.00  0.00    -0.457 OA
ATOM     40  C   UNL     1     -12.308   2.110   6.322  0.00  0.00    +0.086 C 
ENDBRANCH  32  35
ENDBRANCH  29  30
ENDBRANCH   2  29
TORSDOF 10
