REMARK  Name = ZINC25325927
REMARK  11 active torsions:
REMARK  status: ('A' for Active; 'I' for Inactive)
REMARK    1  A    between atoms: C_1  and  C_2
REMARK    2  A    between atoms: C_2  and  C_31
REMARK    3  A    between atoms: N_9  and  C_30
REMARK    4  A    between atoms: C_11  and  C_12
REMARK    5  A    between atoms: N_13  and  C_14
REMARK    6  A    between atoms: C_14  and  C_16
REMARK    7  A    between atoms: C_14  and  C_18
REMARK    8  A    between atoms: C_16  and  O_17
REMARK    9  A    between atoms: C_18  and  C_20
REMARK   10  A    between atoms: C_18  and  O_29
REMARK   11  A    between atoms: C_23  and  N_26
REMARK                            x       y       z     vdW  Elec       q    Type
REMARK                         _______ _______ _______ _____ _____    ______ ____
ROOT
ATOM      1  C   UNK A   0      -2.574   2.790   2.897  0.00  0.00    +0.080 C 
ATOM      2  N   UNK A   1      -3.199   2.329   1.854  0.00  0.00    -0.382 N 
ATOM      3  H   UNK A   1      -4.037   2.895   1.420  0.00  0.00    +0.160 HD
ENDROOT
BRANCH   1  14
ATOM      4  C   UNK A   0      -2.187   6.926   4.376  0.00  0.00    +0.022 C 
ATOM      5  C   UNK A   0      -2.617   5.780   5.295  0.00  0.00    +0.030 C 
ATOM      6  C   UNK A   0      -1.735   5.723   6.521  0.00  0.00    -0.015 A 
ATOM      7  C   UNK A   0      -1.495   6.621   7.538  0.00  0.00    +0.006 A 
ATOM      8  C   UNK A   0      -0.613   6.296   8.553  0.00  0.00    +0.000 A 
ATOM      9  C   UNK A   0       0.027   5.070   8.542  0.00  0.00    +0.002 A 
ATOM     10  C   UNK A   0      -0.210   4.169   7.525  0.00  0.00    +0.024 A 
ATOM     11  C   UNK A   0      -1.098   4.489   6.499  0.00  0.00    +0.038 A 
ATOM     12  N   UNK A   0      -1.495   3.756   5.381  0.00  0.00    -0.306 N 
ATOM     13  C   UNK A   0      -2.396   4.445   4.615  0.00  0.00    +0.022 C 
ATOM     14  C   UNK A   0      -2.971   4.019   3.473  0.00  0.00    +0.037 C 
ATOM     15  C   UNK A   0      -1.007   2.412   5.066  0.00  0.00    +0.135 C 
ATOM     16  C   UNK A   0      -4.083   5.938   5.700  0.00  0.00    +0.022 C 
ENDBRANCH   1  14
BRANCH   2  17
ATOM     17  C   UNK A   1      -2.788   1.056   1.257  0.00  0.00    +0.137 C 
BRANCH  17  18
ATOM     18  C   UNK A   1      -3.959   0.072   1.296  0.00  0.00    +0.183 C 
BRANCH  18  19
ATOM     19  O   UNK A   1      -5.016   0.555   0.465  0.00  0.00    -0.393 OA
ATOM     20  H   UNK A   1      -5.947  -0.022   0.367  0.00  0.00    +0.209 HD
ENDBRANCH  18  19
ENDBRANCH  17  18
BRANCH  17  21
ATOM     21  C   UNK A   1      -2.365   1.287  -0.196  0.00  0.00    +0.169 C 
BRANCH  21  22
ATOM     22  C   UNK A   1      -1.212   2.256  -0.235  0.00  0.00    -0.017 A 
ATOM     23  C   UNK A   1       0.081   1.787  -0.383  0.00  0.00    +0.008 A 
ATOM     24  C   UNK A   1       1.138   2.676  -0.424  0.00  0.00    +0.033 A 
ATOM     25  C   UNK A   1       0.904   4.034  -0.313  0.00  0.00    +0.126 A 
ATOM     26  C   UNK A   1      -0.388   4.503  -0.161  0.00  0.00    +0.033 A 
ATOM     27  C   UNK A   1      -1.445   3.613  -0.118  0.00  0.00    +0.008 A 
BRANCH  25  28
ATOM     28  N   UNK A   1       2.036   4.986  -0.359  0.00  0.00    +0.056 N 
ATOM     29  O   UNK A   1       3.174   4.573  -0.494  0.00  0.00    -0.126 OA
ATOM     30  O   UNK A   1       1.830   6.183  -0.261  0.00  0.00    -0.126 OA
ENDBRANCH  25  28
ENDBRANCH  21  22
BRANCH  21  31
ATOM     31  O   UNK A   1      -3.465   1.825  -0.932  0.00  0.00    -0.385 OA
ATOM     32  H   UNK A   1      -3.349   2.058  -2.001  0.00  0.00    +0.210 HD
ENDBRANCH  21  31
ENDBRANCH  17  21
ENDBRANCH   2  17
TORSDOF 8
