REMARK  Name = ZINC05519711
REMARK  4 active torsions:
REMARK  status: ('A' for Active; 'I' for Inactive)
REMARK    1  A    between atoms: N_8  and  C_10
REMARK    2  A    between atoms: C_10  and  C_13
REMARK    3  A    between atoms: C_13  and  C_15
REMARK    4  A    between atoms: C_13  and  O_23
REMARK                            x       y       z     vdW  Elec       q    Type
REMARK                         _______ _______ _______ _____ _____    ______ ____
ROOT
ATOM      1  C   UNL     1      -3.023   0.833  -1.416  0.00  0.00    +0.113 C 
ATOM      2  C   UNL     1      -4.295   1.594  -1.795  0.00  0.00    +0.037 C 
ATOM      3  C   UNL     1      -4.335   0.074  -1.627  0.00  0.00    +0.037 C 
ENDROOT
BRANCH   1  11
ATOM      4  C   UNL     1       1.527   0.695  -5.149  0.00  0.00    +0.002 A 
ATOM      5  C   UNL     1       0.693  -0.157  -5.874  0.00  0.00    +0.002 A 
ATOM      6  C   UNL     1      -0.551  -0.482  -5.435  0.00  0.00    +0.032 A 
ATOM      7  C   UNL     1      -1.018   0.050  -4.220  0.00  0.00    +0.113 A 
ATOM      8  C   UNL     1      -0.139   0.949  -3.457  0.00  0.00    +0.113 A 
ATOM      9  C   UNL     1       1.137   1.243  -3.969  0.00  0.00    +0.032 A 
ATOM     10  N   UNL     1      -0.842   1.278  -2.385  0.00  0.00    -0.152 NA
ATOM     11  N   UNL     1      -1.987   0.692  -2.443  0.00  0.00    -0.173 N 
ATOM     12  N   UNL     1      -2.123  -0.036  -3.496  0.00  0.00    -0.152 NA
ENDBRANCH   1  11
BRANCH   1  13
ATOM     13  C   UNL     1      -2.514   0.978   0.019  0.00  0.00    +0.174 C 
BRANCH  13  14
ATOM     14  C   UNL     1      -1.220   1.750   0.017  0.00  0.00    -0.015 A 
ATOM     15  C   UNL     1      -0.013   1.076   0.008  0.00  0.00    +0.008 A 
ATOM     16  C   UNL     1       1.175   1.783   0.000  0.00  0.00    +0.022 A 
ATOM     17  C   UNL     1       1.157   3.166   0.008  0.00  0.00    +0.059 A 
ATOM     18  C   UNL     1      -0.052   3.841   0.022  0.00  0.00    +0.060 A 
ATOM     19  C   UNL     1      -1.240   3.132   0.030  0.00  0.00    +0.027 A 
ATOM     20 CL   UNL     1      -0.076   5.577   0.031  0.00  0.00    -0.082 Cl
ATOM     21 CL   UNL     1       2.648   4.054  -0.001  0.00  0.00    -0.082 Cl
ENDBRANCH  13  14
BRANCH  13  22
ATOM     22  O   UNL     1      -3.485   1.678   0.800  0.00  0.00    -0.385 OA
ATOM     23  H   UNL     1      -3.683   2.567   0.477  0.00  0.00    +0.210 HD
ENDBRANCH  13  22
ENDBRANCH   1  13
TORSDOF 4
