REMARK  Name = ZINC06009070
REMARK  5 active torsions:
REMARK  status: ('A' for Active; 'I' for Inactive)
REMARK    1  A    between atoms: C_1  and  O_2
REMARK    2  A    between atoms: O_2  and  C_3
REMARK    3  A    between atoms: C_6  and  C_9
REMARK    4  A    between atoms: C_16  and  S_27
REMARK    5  A    between atoms: S_27  and  C_28
REMARK                            x       y       z     vdW  Elec       q    Type
REMARK                         _______ _______ _______ _____ _____    ______ ____
ROOT
ATOM      1  C   UNL     1      -6.042  -0.043   1.866  0.00  0.00    +0.092 C 
ATOM      2  C   UNL     1      -6.104  -1.540   1.942  0.00  0.00    +0.069 A 
ATOM      3  C   UNL     1      -5.727  -2.203   3.117  0.00  0.00    +0.258 A 
ATOM      4  O   UNL     1      -5.348  -1.575   4.092  0.00  0.00    -0.267 OA
ATOM      5  N   UNL     1      -5.791  -3.551   3.150  0.00  0.00    -0.302 N 
ATOM      6  H   UNL     1      -5.502  -4.093   4.062  0.00  0.00    +0.171 HD
ATOM      7  C   UNL     1      -6.214  -4.242   2.054  0.00  0.00    +0.171 A 
ATOM      8  N   UNL     1      -6.571  -3.622   0.948  0.00  0.00    -0.208 NA
ATOM      9  C   UNL     1      -6.530  -2.288   0.860  0.00  0.00    +0.135 A 
ATOM     10  N   UNL     1      -6.911  -1.651  -0.304  0.00  0.00    -0.302 N 
ATOM     11  C   UNL     1      -7.251  -0.326  -0.294  0.00  0.00    +0.017 C 
ATOM     12  C   UNL     1      -6.862   0.482   0.715  0.00  0.00    +0.024 C 
ATOM     13  C   UNL     1      -7.208   1.845   0.725  0.00  0.00    +0.162 C 
ATOM     14  O   UNL     1      -6.858   2.542   1.657  0.00  0.00    -0.292 OA
ATOM     15  C   UNL     1      -8.003   2.458  -0.395  0.00  0.00    +0.080 C 
ATOM     16  C   UNL     1      -7.731   1.676  -1.685  0.00  0.00    +0.014 C 
ATOM     17  C   UNL     1      -8.077   0.205  -1.440  0.00  0.00    +0.051 C 
ATOM     18  H   UNL     1      -6.943  -2.210  -1.251  0.00  0.00    +0.153 HD
ENDROOT
BRANCH   1  22
ATOM     19  C   UNL     1      -1.975   1.163   1.348  0.00  0.00    +0.120 A 
ATOM     20  C   UNL     1      -2.589   0.364   0.395  0.00  0.00    +0.046 A 
ATOM     21  C   UNL     1      -3.902  -0.029   0.567  0.00  0.00    +0.008 A 
ATOM     22  C   UNL     1      -4.608   0.382   1.683  0.00  0.00    -0.035 A 
ATOM     23  C   UNL     1      -3.999   1.183   2.632  0.00  0.00    +0.008 A 
ATOM     24  C   UNL     1      -2.685   1.574   2.467  0.00  0.00    +0.046 A 
BRANCH  19  26
ATOM     25  C   UNL     1      -0.013   1.086   0.008  0.00  0.00    +0.277 C 
ATOM     26  O   UNL     1      -0.682   1.547   1.184  0.00  0.00    -0.495 OA
ENDBRANCH  19  26
ENDBRANCH   1  22
BRANCH   7  27
ATOM     27  S   UNL     1      -6.285  -6.002   2.119  0.00  0.00    -0.091 S 
ATOM     28  C   UNL     1      -6.892  -6.353   0.451  0.00  0.00    +0.093 C 
ENDBRANCH   7  27
TORSDOF 3
