REMARK  Name = ZINC39605036
REMARK  9 active torsions:
REMARK  status: ('A' for Active; 'I' for Inactive)
REMARK    1  A    between atoms: C_1  and  C_2
REMARK    2  A    between atoms: C_2  and  C_3
REMARK    3  A    between atoms: C_2  and  O_4
REMARK    4  A    between atoms: O_4  and  C_5
REMARK    5  A    between atoms: C_5  and  C_6
REMARK    6  A    between atoms: C_6  and  C_7
REMARK    7  A    between atoms: C_7  and  N_8
REMARK    8  A    between atoms: C_9  and  C_11
REMARK    9  A    between atoms: C_22  and  C_24
REMARK                            x       y       z     vdW  Elec       q    Type
REMARK                         _______ _______ _______ _____ _____    ______ ____
ROOT
ATOM      1  C   UNL     1       6.601  -2.965  -4.259  0.00  0.00    +0.100 C 
ATOM      2  C   UNL     1       6.115  -4.278  -4.912  0.00  0.00    +0.121 C 
ATOM      3  N   UNL     1       7.328  -4.858  -5.535  0.00  0.00    -0.296 N 
ATOM      4  C   UNL     1       8.409  -4.590  -4.557  0.00  0.00    +0.115 C 
ATOM      5  C   UNL     1       8.107  -3.174  -4.027  0.00  0.00    -0.004 C 
ATOM      6  C   UNL     1       8.910  -2.136  -4.806  0.00  0.00    -0.010 C 
ATOM      7  C   UNL     1      10.401  -2.328  -4.514  0.00  0.00    -0.082 C 
ATOM      8  N   UNL     1      10.643  -2.183  -3.074  0.00  0.00    +0.379 N 
ATOM      9  C   UNL     1       9.940  -3.242  -2.339  0.00  0.00    -0.082 C 
ATOM     10  C   UNL     1       8.430  -3.089  -2.538  0.00  0.00    -0.010 C 
ATOM     11  C   UNL     1       7.426  -5.488  -6.723  0.00  0.00    +0.247 C 
ATOM     12  O   UNL     1       6.471  -5.519  -7.475  0.00  0.00    -0.270 OA
ATOM     13  H   UNL     1      11.633  -2.249  -2.892  0.00  0.00    -0.086 HD
ATOM     14  H   UNL     1      10.306  -1.283  -2.767  0.00  0.00    -0.086 HD
ENDROOT
BRANCH  11  15
ATOM     15  C   UNL     1       8.694  -6.140  -7.111  0.00  0.00    +0.038 A 
ATOM     16  C   UNL     1       9.628  -6.492  -6.135  0.00  0.00    +0.014 A 
ATOM     17  C   UNL     1      10.810  -7.100  -6.503  0.00  0.00    +0.022 A 
ATOM     18  C   UNL     1      11.072  -7.362  -7.837  0.00  0.00    +0.059 A 
ATOM     19  C   UNL     1      10.148  -7.015  -8.811  0.00  0.00    +0.060 A 
ATOM     20  C   UNL     1       8.959  -6.412  -8.454  0.00  0.00    +0.034 A 
ATOM     21 CL   UNL     1      10.485  -7.347 -10.482  0.00  0.00    -0.082 Cl
ATOM     22 CL   UNL     1      12.562  -8.127  -8.292  0.00  0.00    -0.082 Cl
ENDBRANCH  11  15
BRANCH   1  24
ATOM     23  N   UNL     1       5.673  -1.484  -2.509  0.00  0.00    -0.315 N 
ATOM     24  C   UNL     1       5.895  -2.739  -2.947  0.00  0.00    +0.218 C 
ATOM     25  O   UNL     1       5.526  -3.686  -2.286  0.00  0.00    -0.275 OA
ATOM     26  H   UNL     1       5.968  -0.726  -3.037  0.00  0.00    +0.149 HD
BRANCH  23  27
ATOM     27  C   UNL     1       4.986  -1.264  -1.233  0.00  0.00    +0.106 C 
BRANCH  27  28
ATOM     28  C   UNL     1       4.864   0.239  -0.973  0.00  0.00    +0.047 C 
BRANCH  28  29
ATOM     29  C   UNL     1       4.147   0.468   0.359  0.00  0.00    +0.161 C 
BRANCH  29  30
ATOM     30  O   UNL     1       4.032   1.872   0.603  0.00  0.00    -0.377 OA
BRANCH  30  32
ATOM     31  C   UNL     1       4.407   2.298   2.952  0.00  0.00    +0.037 C 
ATOM     32  C   UNL     1       3.373   2.197   1.829  0.00  0.00    +0.112 C 
ATOM     33  C   UNL     1       2.651   3.538   1.679  0.00  0.00    +0.037 C 
ENDBRANCH  30  32
ENDBRANCH  29  30
ENDBRANCH  28  29
ENDBRANCH  27  28
ENDBRANCH  23  27
ENDBRANCH   1  24
TORSDOF 7
