REMARK  Name = ZINC11936661
REMARK  4 active torsions:
REMARK  status: ('A' for Active; 'I' for Inactive)
REMARK    1  A    between atoms: C_6  and  C_7
REMARK    2  A    between atoms: C_8  and  C_13
REMARK    3  A    between atoms: C_13  and  N_50
REMARK    4  A    between atoms: C_17  and  C_19
REMARK                            x       y       z     vdW  Elec       q    Type
REMARK                         _______ _______ _______ _____ _____    ______ ____
ROOT
ATOM      1  C   UNL     1       0.904   5.248   1.856  0.00  0.00    -0.077 C 
ATOM      2  C   UNL     1       1.423   6.112   3.026  0.00  0.00    -0.020 C 
ATOM      3  C   UNL     1       2.950   6.183   2.825  0.00  0.00    -0.010 C 
ATOM      4  C   UNL     1       3.226   5.356   1.551  0.00  0.00    -0.001 C 
ATOM      5  N   UNL     1       2.077   4.457   1.469  0.00  0.00    +0.389 N 
ATOM      6  H   UNL     1       2.201   3.671   2.117  0.00  0.00    -0.080 HD
ENDROOT
BRANCH   4   7
ATOM      7  C   UNL     1       4.513   4.585   1.693  0.00  0.00    +0.095 A 
ATOM      8  N   UNL     1       5.740   5.044   1.329  0.00  0.00    -0.343 N 
ATOM      9  H   UNL     1       5.944   5.936   0.926  0.00  0.00    +0.167 HD
ATOM     10  C   UNL     1       6.654   4.049   1.621  0.00  0.00    +0.066 A 
ATOM     11  C   UNL     1       8.030   3.931   1.481  0.00  0.00    +0.030 A 
ATOM     12  C   UNL     1       8.663   2.771   1.872  0.00  0.00    +0.040 A 
ATOM     13  C   UNL     1       7.932   1.717   2.407  0.00  0.00    +0.126 A 
ATOM     14  C   UNL     1       6.566   1.816   2.552  0.00  0.00    +0.068 A 
ATOM     15  C   UNL     1       5.910   2.986   2.160  0.00  0.00    +0.092 A 
ATOM     16  N   UNL     1       4.611   3.381   2.175  0.00  0.00    -0.234 NA
ATOM     17  F   UNL     1       8.566   0.586   2.786  0.00  0.00    -0.205 F 
ENDBRANCH   4   7
BRANCH   5  18
ATOM     18  C   UNL     1       1.915   3.927   0.078  0.00  0.00    -0.038 C 
BRANCH  18  20
ATOM     19  C   UNL     1       0.529   2.041  -1.052  0.00  0.00    +0.094 A 
ATOM     20  C   UNL     1       1.020   2.715   0.083  0.00  0.00    -0.019 A 
ATOM     21  C   UNL     1       0.546   2.081   1.178  0.00  0.00    +0.107 A 
ATOM     22  N   UNL     1      -0.216   1.046   0.763  0.00  0.00    -0.284 N 
ATOM     23  H   UNL     1      -0.701   0.400   1.353  0.00  0.00    +0.188 HD
ATOM     24  N   UNL     1      -0.210   1.034  -0.638  0.00  0.00    -0.174 NA
BRANCH  19  30
ATOM     25  C   UNL     1       0.780   3.735  -2.864  0.00  0.00    +0.014 A 
ATOM     26  C   UNL     1       1.035   4.067  -4.179  0.00  0.00    +0.050 A 
ATOM     27  C   UNL     1       1.314   3.076  -5.107  0.00  0.00    +0.166 A 
ATOM     28  C   UNL     1       1.338   1.739  -4.714  0.00  0.00    +0.167 A 
ATOM     29  C   UNL     1       1.088   1.402  -3.397  0.00  0.00    +0.059 A 
ATOM     30  C   UNL     1       0.802   2.400  -2.466  0.00  0.00    +0.006 A 
ATOM     31  O   UNL     1       1.634   0.970  -5.803  0.00  0.00    -0.453 OA
ATOM     32  C   UNL     1       1.388   1.810  -6.946  0.00  0.00    +0.466 C 
ATOM     33  O   UNL     1       1.596   3.143  -6.442  0.00  0.00    -0.453 OA
ENDBRANCH  19  30
ENDBRANCH  18  20
ENDBRANCH   5  18
TORSDOF 4
