REMARK  Name = ZINC39533570
REMARK  13 active torsions:
REMARK  status: ('A' for Active; 'I' for Inactive)
REMARK    1  A    between atoms: C_1  and  C_2
REMARK    2  A    between atoms: C_2  and  C_3
REMARK    3  A    between atoms: C_2  and  C_4
REMARK    4  A    between atoms: C_4  and  C_5
REMARK    5  A    between atoms: C_8  and  C_11
REMARK    6  A    between atoms: C_11  and  C_13
REMARK    7  A    between atoms: C_11  and  N_22
REMARK    8  A    between atoms: C_13  and  N_14
REMARK    9  A    between atoms: N_14  and  C_15
REMARK   10  A    between atoms: C_15  and  C_16
REMARK   11  A    between atoms: C_26  and  S_29
REMARK   12  A    between atoms: S_29  and  O_32
REMARK   13  A    between atoms: O_32  and  C_33
REMARK                            x       y       z     vdW  Elec       q    Type
REMARK                         _______ _______ _______ _____ _____    ______ ____
ROOT
ATOM      1  C   UNL     1      -1.367  -6.290  -0.493  0.00  0.00    +0.070 C 
ENDROOT
BRANCH   1   2
ATOM      2  N   UNL     1      -0.348  -6.849   0.405  0.00  0.00    -0.299 NA
ATOM      3  C   UNL     1      -0.679  -6.577   1.811  0.00  0.00    +0.066 C 
ATOM      4  C   UNL     1       0.372  -7.226   2.714  0.00  0.00    -0.064 C 
ATOM      5  N   UNL     1       1.698  -6.682   2.390  0.00  0.00    +0.398 N 
ATOM      6  C   UNL     1       2.025  -6.983   0.990  0.00  0.00    +0.130 C 
ATOM      7  C   UNL     1       0.987  -6.332   0.073  0.00  0.00    +0.095 C 
ATOM      8  H   UNL     1       1.694  -5.683   2.527  0.00  0.00    -0.083 HD
ATOM      9  H   UNL     1       2.389  -7.101   2.994  0.00  0.00    -0.083 HD
BRANCH   6  10
ATOM     10  S   UNL     1       3.671  -6.330   0.600  0.00  0.00    +0.109 S 
ATOM     11  O   UNL     1       4.077  -6.765  -0.691  0.00  0.00    -0.138 OA
ATOM     12  O   UNL     1       3.752  -4.958   0.960  0.00  0.00    -0.138 OA
BRANCH  10  13
ATOM     13  O   UNL     1       4.612  -7.040   1.563  0.00  0.00    -0.347 OA
BRANCH  13  14
ATOM     14  C   UNL     1       4.863  -8.335   1.236  0.00  0.00    +0.156 A 
ATOM     15  C   UNL     1       4.048  -9.345   1.726  0.00  0.00    +0.048 A 
ATOM     16  C   UNL     1       4.305 -10.661   1.392  0.00  0.00    +0.004 A 
ATOM     17  C   UNL     1       5.373 -10.971   0.571  0.00  0.00    +0.000 A 
ATOM     18  C   UNL     1       6.187  -9.966   0.082  0.00  0.00    +0.004 A 
ATOM     19  C   UNL     1       5.931  -8.648   0.408  0.00  0.00    +0.048 A 
ENDBRANCH  13  14
ENDBRANCH  10  13
ENDBRANCH   6  10
ENDBRANCH   1   2
BRANCH   1  23
ATOM     20  C   UNL     1      -1.684  -2.081   0.162  0.00  0.00    -0.047 A 
ATOM     21  C   UNL     1      -2.155  -2.966   1.114  0.00  0.00    +0.004 A 
ATOM     22  C   UNL     1      -2.053  -4.328   0.901  0.00  0.00    +0.005 A 
ATOM     23  C   UNL     1      -1.480  -4.805  -0.263  0.00  0.00    -0.032 A 
ATOM     24  C   UNL     1      -1.009  -3.920  -1.214  0.00  0.00    +0.005 A 
ATOM     25  C   UNL     1      -1.116  -2.558  -1.004  0.00  0.00    +0.004 A 
BRANCH  20  26
ATOM     26  C   UNL     1      -1.796  -0.596   0.394  0.00  0.00    +0.038 C 
BRANCH  26  28
ATOM     27  C   UNL     1      -3.299   1.389   0.185  0.00  0.00    +0.007 C 
ATOM     28  C   UNL     1      -3.130  -0.092  -0.160  0.00  0.00    -0.013 C 
ATOM     29  C   UNL     1      -3.150  -0.267  -1.680  0.00  0.00    +0.007 C 
ENDBRANCH  26  28
ENDBRANCH  20  26
ENDBRANCH   1  23
BRANCH   1  30
ATOM     30  C   UNL     1      -2.716  -6.954  -0.211  0.00  0.00    -0.058 C 
BRANCH  30  31
ATOM     31  N   UNL     1      -2.577  -8.412  -0.319  0.00  0.00    +0.383 N 
ATOM     32  H   UNL     1      -2.272  -8.652  -1.251  0.00  0.00    -0.085 HD
ATOM     33  H   UNL     1      -1.896  -8.736   0.351  0.00  0.00    -0.085 HD
BRANCH  31  34
ATOM     34  C   UNL     1      -3.872  -9.049  -0.048  0.00  0.00    -0.047 C 
BRANCH  34  35
ATOM     35  C   UNL     1      -3.729 -10.545  -0.159  0.00  0.00    -0.064 A 
ATOM     36  C   UNL     1      -3.932 -11.170  -1.375  0.00  0.00    +0.002 A 
ATOM     37  C   UNL     1      -3.801 -12.543  -1.478  0.00  0.00    +0.000 A 
ATOM     38  C   UNL     1      -3.466 -13.290  -0.364  0.00  0.00    +0.000 A 
ATOM     39  C   UNL     1      -3.263 -12.665   0.852  0.00  0.00    +0.000 A 
ATOM     40  C   UNL     1      -3.390 -11.292   0.954  0.00  0.00    +0.002 A 
ENDBRANCH  34  35
ENDBRANCH  31  34
ENDBRANCH  30  31
ENDBRANCH   1  30
TORSDOF 11
