REMARK  Name = ZINC13682348
REMARK  5 active torsions:
REMARK  status: ('A' for Active; 'I' for Inactive)
REMARK    1  A    between atoms: C_1  and  C_2
REMARK    2  A    between atoms: C_4  and  C_32
REMARK    3  A    between atoms: C_11  and  C_13
REMARK    4  A    between atoms: C_19  and  C_25
REMARK    5  A    between atoms: C_22  and  O_24
REMARK                            x       y       z     vdW  Elec       q    Type
REMARK                         _______ _______ _______ _____ _____    ______ ____
ROOT
ATOM      1  C   UNL     1       0.091   2.150   0.591  0.00  0.00    +0.066 C 
ATOM      2  C   UNL     1       0.187   0.654   0.429  0.00  0.00    +0.044 A 
ATOM      3  C   UNL     1       0.192   0.085  -0.835  0.00  0.00    +0.046 A 
ATOM      4  C   UNL     1       0.282  -1.295  -0.939  0.00  0.00    +0.044 A 
ATOM      5  N   UNL     1       0.360  -2.021   0.164  0.00  0.00    -0.216 NA
ATOM      6  C   UNL     1       0.354  -1.445   1.356  0.00  0.00    +0.254 A 
ATOM      7  N   UNL     1       0.274  -0.130   1.490  0.00  0.00    -0.216 NA
ATOM      8  N   UNL     1       0.438  -2.240   2.496  0.00  0.00    -0.179 N 
ATOM      9  C   UNL     1       0.437  -1.800   3.779  0.00  0.00    +0.167 A 
ATOM     10  C   UNL     1       0.524  -2.906   4.593  0.00  0.00    +0.033 A 
ATOM     11  C   UNL     1       0.589  -4.036   3.781  0.00  0.00    +0.099 A 
ATOM     12  N   UNL     1       0.532  -3.641   2.521  0.00  0.00    -0.162 NA
ATOM     13  C   UNL     1       0.532  -2.784   6.096  0.00  0.00    +0.066 C 
ATOM     14  C   UNL     1       1.155  -1.428   6.450  0.00  0.00    +0.108 C 
ATOM     15  C   UNL     1       0.652  -0.343   5.542  0.00  0.00    +0.190 C 
ATOM     16  N   UNL     1       0.347  -0.540   4.294  0.00  0.00    -0.197 NA
ATOM     17  C   UNL     1       0.290  -1.959  -2.291  0.00  0.00    +0.066 C 
ENDROOT
BRANCH  13  18
ATOM     18  C   UNL     1       1.354  -3.897   6.694  0.00  0.00    -0.004 A 
ATOM     19  C   UNL     1       2.651  -4.106   6.266  0.00  0.00    +0.007 A 
ATOM     20  C   UNL     1       3.405  -5.126   6.815  0.00  0.00    +0.000 A 
ATOM     21  C   UNL     1       2.863  -5.939   7.792  0.00  0.00    +0.003 A 
ATOM     22  C   UNL     1       1.566  -5.732   8.223  0.00  0.00    +0.038 A 
ATOM     23  C   UNL     1       0.811  -4.707   7.678  0.00  0.00    +0.127 A 
ATOM     24  F   UNL     1      -0.455  -4.501   8.101  0.00  0.00    -0.205 F 
ENDBRANCH  13  18
BRANCH  11  25
ATOM     25  C   UNL     1       0.697  -5.440   4.249  0.00  0.00    +0.002 A 
ATOM     26  C   UNL     1      -0.113  -5.895   5.287  0.00  0.00    +0.010 A 
ATOM     27  C   UNL     1      -0.009  -7.202   5.719  0.00  0.00    +0.001 A 
ATOM     28  C   UNL     1       0.898  -8.059   5.123  0.00  0.00    +0.000 A 
ATOM     29  C   UNL     1       1.706  -7.613   4.092  0.00  0.00    +0.001 A 
ATOM     30  C   UNL     1       1.605  -6.310   3.649  0.00  0.00    +0.010 A 
ENDBRANCH  11  25
BRANCH  15  31
ATOM     31  O   UNL     1       0.509   0.899   6.047  0.00  0.00    -0.495 OA
ATOM     32  H   UNL     1       0.181   1.548   5.409  0.00  0.00    +0.293 HD
ENDBRANCH  15  31
TORSDOF 3
