REMARK  Name = ZINC67204829
REMARK  8 active torsions:
REMARK  status: ('A' for Active; 'I' for Inactive)
REMARK    1  A    between atoms: C_1  and  O_2
REMARK    2  A    between atoms: O_2  and  C_3
REMARK    3  A    between atoms: C_3  and  C_5
REMARK    4  A    between atoms: C_6  and  C_20
REMARK    5  A    between atoms: C_11  and  C_13
REMARK    6  A    between atoms: C_20  and  N_21
REMARK    7  A    between atoms: N_24  and  C_27
REMARK    8  A    between atoms: C_27  and  C_28
REMARK                            x       y       z     vdW  Elec       q    Type
REMARK                         _______ _______ _______ _____ _____    ______ ____
ROOT
ATOM      1  C   UNL     1       1.308  -2.160  -0.899  0.00  0.00    +0.079 C 
ATOM      2  C   UNL     1       1.167  -2.593  -2.170  0.00  0.00    +0.038 C 
ATOM      3  N   UNL     1       0.568  -3.789  -2.445  0.00  0.00    -0.271 N 
ATOM      4  C   UNL     1       0.084  -4.611  -1.505  0.00  0.00    +0.304 C 
ATOM      5  O   UNL     1      -0.433  -5.656  -1.848  0.00  0.00    -0.252 OA
ATOM      6  N   UNL     1       0.151  -4.316  -0.192  0.00  0.00    -0.288 N 
ATOM      7  C   UNL     1       0.785  -3.050   0.211  0.00  0.00    +0.144 C 
ATOM      8  H   UNL     1       0.489  -4.059  -3.374  0.00  0.00    +0.156 HD
ATOM      9  H   UNL     1      -0.207  -4.926   0.472  0.00  0.00    +0.151 HD
ENDROOT
BRANCH   7  10
ATOM     10  C   UNL     1      -0.227  -2.260   1.001  0.00  0.00    -0.022 A 
ATOM     11  C   UNL     1      -1.519  -2.125   0.528  0.00  0.00    +0.008 A 
ATOM     12  C   UNL     1      -2.448  -1.401   1.252  0.00  0.00    +0.038 A 
ATOM     13  C   UNL     1      -2.084  -0.812   2.451  0.00  0.00    +0.123 A 
ATOM     14  C   UNL     1      -0.789  -0.949   2.924  0.00  0.00    +0.038 A 
ATOM     15  C   UNL     1       0.136  -1.677   2.201  0.00  0.00    +0.008 A 
ATOM     16  F   UNL     1      -2.991  -0.104   3.160  0.00  0.00    -0.205 F 
ENDBRANCH   7  10
BRANCH   1  17
ATOM     17  C   UNL     1       1.928  -0.922  -0.612  0.00  0.00    +0.339 C 
ATOM     18  O   UNL     1       2.448  -0.280  -1.506  0.00  0.00    -0.245 OA
BRANCH  17  20
ATOM     19  C   UNL     1       2.588   0.806   0.869  0.00  0.00    +0.280 C 
ATOM     20  O   UNL     1       1.944  -0.451   0.652  0.00  0.00    -0.465 OA
ENDBRANCH  17  20
ENDBRANCH   1  17
BRANCH   2  21
ATOM     21  C   UNL     1       1.678  -1.742  -3.304  0.00  0.00    +0.136 C 
BRANCH  21  22
ATOM     22  N   UNL     1       3.106  -2.015  -3.517  0.00  0.00    -0.295 NA
ATOM     23  C   UNL     1       3.304  -3.341  -4.118  0.00  0.00    +0.100 C 
ATOM     24  C   UNL     1       4.803  -3.620  -4.249  0.00  0.00    +0.100 C 
ATOM     25  N   UNL     1       5.423  -2.573  -5.074  0.00  0.00    -0.296 NA
ATOM     26  C   UNL     1       5.225  -1.247  -4.472  0.00  0.00    +0.100 C 
ATOM     27  C   UNL     1       3.725  -0.968  -4.341  0.00  0.00    +0.100 C 
BRANCH  25  28
ATOM     28  C   UNL     1       6.851  -2.846  -5.286  0.00  0.00    +0.119 C 
BRANCH  28  29
ATOM     29  C   UNL     1       7.394  -1.900  -6.326  0.00  0.00    -0.030 A 
ATOM     30  C   UNL     1       7.359  -2.250  -7.663  0.00  0.00    +0.009 A 
ATOM     31  C   UNL     1       7.856  -1.385  -8.620  0.00  0.00    +0.050 A 
ATOM     32  C   UNL     1       8.391  -0.164  -8.241  0.00  0.00    +0.166 A 
ATOM     33  C   UNL     1       8.426   0.188  -6.894  0.00  0.00    +0.167 A 
ATOM     34  C   UNL     1       7.921  -0.681  -5.940  0.00  0.00    +0.054 A 
ATOM     35  O   UNL     1       8.995   1.424  -6.781  0.00  0.00    -0.453 OA
ATOM     36  C   UNL     1       9.677   1.649  -8.029  0.00  0.00    +0.466 C 
ATOM     37  O   UNL     1       8.937   0.851  -8.972  0.00  0.00    -0.453 OA
ENDBRANCH  28  29
ENDBRANCH  25  28
ENDBRANCH  21  22
ENDBRANCH   2  21
TORSDOF 7
