REMARK  Name = ZINC25085891
REMARK  8 active torsions:
REMARK  status: ('A' for Active; 'I' for Inactive)
REMARK    1  A    between atoms: C_1  and  N_2
REMARK    2  A    between atoms: C_8  and  C_14
REMARK    3  A    between atoms: N_16  and  C_17
REMARK    4  A    between atoms: C_17  and  C_19
REMARK    5  A    between atoms: C_17  and  C_24
REMARK    6  A    between atoms: C_19  and  C_20
REMARK    7  A    between atoms: C_20  and  O_22
REMARK    8  A    between atoms: O_22  and  C_23
REMARK                            x       y       z     vdW  Elec       q    Type
REMARK                         _______ _______ _______ _____ _____    ______ ____
ROOT
ATOM      1  C   UNL     1      -2.360  -2.934   0.008  0.00  0.00    +0.245 C 
ATOM      2  O   UNL     1      -3.438  -2.374   0.021  0.00  0.00    -0.270 OA
ATOM      3  N   UNL     1      -2.300  -4.280   0.000  0.00  0.00    -0.303 N 
ATOM      4  H   UNL     1      -1.323  -4.787  -0.012  0.00  0.00    +0.150 HD
ENDROOT
BRANCH   1  12
ATOM      5  C   UNL     1       3.522   2.336  -0.019  0.00  0.00    +0.154 C 
ATOM      6  N   UNL     1       2.332   1.482  -0.012  0.00  0.00    -0.290 N 
ATOM      7  C   UNL     1       2.472   0.136  -0.021  0.00  0.00    +0.262 A 
ATOM      8  O   UNL     1       3.572  -0.383  -0.034  0.00  0.00    -0.267 OA
ATOM      9  C   UNL     1       1.245  -0.676  -0.013  0.00  0.00    +0.065 A 
ATOM     10  C   UNL     1       1.290  -2.070  -0.022  0.00  0.00    +0.016 A 
ATOM     11  C   UNL     1       0.128  -2.787  -0.015  0.00  0.00    +0.014 A 
ATOM     12  C   UNL     1      -1.112  -2.137   0.000  0.00  0.00    +0.039 A 
ATOM     13  C   UNL     1      -1.180  -0.750   0.009  0.00  0.00    +0.041 A 
ATOM     14  C   UNL     1       0.002  -0.004   0.002  0.00  0.00    +0.080 A 
ATOM     15  N   UNL     1      -0.016   1.350   0.009  0.00  0.00    -0.222 NA
ATOM     16  C   UNL     1       1.091   2.051   0.003  0.00  0.00    +0.183 A 
ATOM     17  S   UNL     1       0.972   3.808   0.013  0.00  0.00    -0.011 S 
ENDBRANCH   1  12
BRANCH   3  18
ATOM     18  C   UNL     1      -3.534  -5.069   0.008  0.00  0.00    +0.121 C 
BRANCH  18  19
ATOM     19  C   UNL     1      -4.011  -5.242   1.427  0.00  0.00    +0.011 A 
ATOM     20  C   UNL     1      -5.274  -5.194   1.915  0.00  0.00    +0.013 A 
ATOM     21  C   UNL     1      -5.478  -5.388   3.268  0.00  0.00    +0.008 A 
ATOM     22  C   UNL     1      -4.407  -5.610   4.069  0.00  0.00    +0.045 A 
ATOM     23  S   UNL     1      -3.057  -5.557   2.903  0.00  0.00    -0.100 S 
ENDBRANCH  18  19
BRANCH  18  24
ATOM     24  C   UNL     1      -3.266  -6.442  -0.612  0.00  0.00    +0.148 C 
BRANCH  24  25
ATOM     25  C   UNL     1      -2.909  -6.275  -2.066  0.00  0.00    +0.309 C 
ATOM     26  O   UNL     1      -2.872  -5.172  -2.557  0.00  0.00    -0.251 OA
BRANCH  25  27
ATOM     27  O   UNL     1      -2.631  -7.353  -2.817  0.00  0.00    -0.468 OA
ATOM     28  C   UNL     1      -2.294  -7.118  -4.209  0.00  0.00    +0.280 C 
ENDBRANCH  25  27
ENDBRANCH  24  25
ENDBRANCH  18  24
ENDBRANCH   3  18
TORSDOF 6
