REMARK  Name = ZINC03287343
REMARK  6 active torsions:
REMARK  status: ('A' for Active; 'I' for Inactive)
REMARK    1  A    between atoms: C_1  and  C_2
REMARK    2  A    between atoms: C_11  and  N_21
REMARK    3  A    between atoms: C_13  and  C_15
REMARK    4  A    between atoms: C_15  and  N_57
REMARK    5  A    between atoms: N_21  and  C_22
REMARK    6  A    between atoms: C_22  and  C_23
REMARK                            x       y       z     vdW  Elec       q    Type
REMARK                         _______ _______ _______ _____ _____    ______ ____
ROOT
ATOM      1  C   UNL     1      -1.388  -0.227   1.538  0.00  0.00    +0.008 C 
ATOM      2  C   UNL     1      -0.049   0.232   0.958  0.00  0.00    -0.009 C 
ATOM      3  C   UNL     1       1.097  -0.272   1.840  0.00  0.00    +0.008 C 
ATOM      4  C   UNL     1       2.434  -0.035   1.139  0.00  0.00    +0.037 C 
ATOM      5  C   UNL     1       2.523   1.432   0.725  0.00  0.00    -0.025 A 
ATOM      6  C   UNL     1       1.407   2.192   0.643  0.00  0.00    -0.004 A 
ATOM      7  S   UNL     1       1.970   3.798   0.139  0.00  0.00    -0.073 S 
ATOM      8  C   UNL     1       3.696   3.453   0.035  0.00  0.00    +0.114 A 
ATOM      9  C   UNL     1       3.781   2.085   0.401  0.00  0.00    +0.051 A 
ATOM     10  C   UNL     1       5.080   1.501   0.411  0.00  0.00    +0.131 A 
ATOM     11  N   UNL     1       6.082   2.311   0.074  0.00  0.00    -0.219 NA
ATOM     12  C   UNL     1       5.927   3.578  -0.255  0.00  0.00    +0.116 A 
ATOM     13  N   UNL     1       4.745   4.183  -0.284  0.00  0.00    -0.227 NA
ATOM     14  C   UNL     1      -0.002   1.766   0.920  0.00  0.00    +0.046 C 
ENDROOT
BRANCH  10  15
ATOM     15  N   UNL     1       5.288   0.176   0.749  0.00  0.00    -0.324 N 
ATOM     16  H   UNL     1       4.530  -0.408   0.908  0.00  0.00    +0.148 HD
BRANCH  15  17
ATOM     17  C   UNL     1       6.652  -0.344   0.866  0.00  0.00    +0.139 C 
BRANCH  17  18
ATOM     18  C   UNL     1       6.603  -1.803   1.242  0.00  0.00    -0.012 A 
ATOM     19  C   UNL     1       6.807  -2.186   2.554  0.00  0.00    +0.008 A 
ATOM     20  C   UNL     1       6.756  -3.523   2.901  0.00  0.00    +0.020 A 
ATOM     21  C   UNL     1       6.512  -4.480   1.932  0.00  0.00    +0.042 A 
ATOM     22  C   UNL     1       6.313  -4.098   0.617  0.00  0.00    +0.040 A 
ATOM     23  C   UNL     1       6.358  -2.759   0.272  0.00  0.00    +0.047 A 
ATOM     24 CL   UNL     1       6.109  -2.279  -1.377  0.00  0.00    -0.083 Cl
ATOM     25 CL   UNL     1       6.456  -6.160   2.365  0.00  0.00    -0.083 Cl
ENDBRANCH  17  18
ENDBRANCH  15  17
ENDBRANCH  10  15
BRANCH  12  26
ATOM     26  C   UNL     1       7.151   4.380  -0.615  0.00  0.00    -0.001 C 
BRANCH  26  32
ATOM     27  C   UNL     1       7.763   2.904  -2.435  0.00  0.00    -0.050 C 
ATOM     28  C   UNL     1       7.951   2.829  -3.953  0.00  0.00    +0.141 C 
ATOM     29  O   UNL     1       8.939   3.782  -4.353  0.00  0.00    -0.383 OA
ATOM     30  C   UNL     1       8.614   5.130  -4.003  0.00  0.00    +0.141 C 
ATOM     31  C   UNL     1       8.433   5.228  -2.486  0.00  0.00    -0.050 C 
ATOM     32  N   UNL     1       7.374   4.283  -2.073  0.00  0.00    +0.387 N 
ATOM     33  H   UNL     1       6.503   4.524  -2.561  0.00  0.00    -0.081 HD
ENDBRANCH  26  32
ENDBRANCH  12  26
TORSDOF 5
