REMARK  Name = ZINC52852142
REMARK  4 active torsions:
REMARK  status: ('A' for Active; 'I' for Inactive)
REMARK    1  A    between atoms: C_1  and  C_2
REMARK    2  A    between atoms: C_2  and  C_3
REMARK    3  A    between atoms: C_7  and  N_21
REMARK    4  A    between atoms: N_11  and  C_12
REMARK                            x       y       z     vdW  Elec       q    Type
REMARK                         _______ _______ _______ _____ _____    ______ ____
ROOT
ATOM      1  C   UNL     1      -1.412  -0.526   0.013  0.00  0.00    +0.115 A 
ATOM      2  N   UNL     1      -2.103  -0.784   1.085  0.00  0.00    -0.232 NA
ATOM      3  C   UNL     1      -3.335  -1.237   0.737  0.00  0.00    +0.091 A 
ATOM      4  C   UNL     1      -4.450  -1.651   1.471  0.00  0.00    +0.052 A 
ATOM      5  C   UNL     1      -5.590  -2.068   0.810  0.00  0.00    +0.027 A 
ATOM      6  C   UNL     1      -5.632  -2.079  -0.583  0.00  0.00    +0.025 A 
ATOM      7  C   UNL     1      -4.538  -1.673  -1.317  0.00  0.00    +0.030 A 
ATOM      8  C   UNL     1      -3.387  -1.251  -0.667  0.00  0.00    +0.074 A 
ATOM      9  N   UNL     1      -2.154  -0.790  -1.098  0.00  0.00    -0.296 N 
ENDROOT
BRANCH   9  10
ATOM     10  C   UNL     1      -1.746  -0.627  -2.430  0.00  0.00    +0.052 A 
ATOM     11  C   UNL     1      -2.370   0.314  -3.237  0.00  0.00    +0.030 A 
ATOM     12  C   UNL     1      -1.969   0.476  -4.549  0.00  0.00    +0.051 A 
ATOM     13  C   UNL     1      -0.943  -0.301  -5.063  0.00  0.00    +0.166 A 
ATOM     14  C   UNL     1      -0.315  -1.247  -4.256  0.00  0.00    +0.168 A 
ATOM     15  C   UNL     1      -0.714  -1.404  -2.939  0.00  0.00    +0.075 A 
ATOM     16  O   UNL     1       0.651  -1.874  -4.988  0.00  0.00    -0.453 OA
ATOM     17  C   UNL     1       0.335  -1.591  -6.364  0.00  0.00    +0.466 C 
ATOM     18  O   UNL     1      -0.369  -0.337  -6.302  0.00  0.00    -0.453 OA
ENDBRANCH   9  10
BRANCH   5  19
ATOM     19  N   UNL     1      -6.707  -2.483   1.543  0.00  0.00    -0.358 N 
ATOM     20  H   UNL     1      -6.680  -2.477   2.512  0.00  0.00    +0.142 HD
ATOM     21  H   UNL     1      -7.508  -2.776   1.081  0.00  0.00    +0.142 HD
ENDBRANCH   5  19
BRANCH   1  23
ATOM     22  C   UNL     1      -0.019   1.526   0.010  0.00  0.00    +0.012 C 
ATOM     23  C   UNL     1       0.002  -0.004   0.002  0.00  0.00    +0.071 C 
ENDBRANCH   1  23
TORSDOF 3
