REMARK  Name = ZINC11233022
REMARK  7 active torsions:
REMARK  status: ('A' for Active; 'I' for Inactive)
REMARK    1  A    between atoms: C_1  and  C_2
REMARK    2  A    between atoms: N_10  and  C_11
REMARK    3  A    between atoms: C_11  and  C_12
REMARK    4  A    between atoms: C_12  and  O_14
REMARK    5  A    between atoms: O_14  and  C_15
REMARK    6  A    between atoms: C_15  and  C_16
REMARK    7  A    between atoms: C_20  and  C_29
REMARK                            x       y       z     vdW  Elec       q    Type
REMARK                         _______ _______ _______ _____ _____    ______ ____
ROOT
ATOM      1  C   UNL     1      -0.391   1.340  -4.851  0.00  0.00    +0.258 C 
ATOM      2  O   UNL     1       0.650   0.719  -4.818  0.00  0.00    -0.272 OA
ATOM      3  N   UNL     1      -0.974   1.616  -6.035  0.00  0.00    -0.261 N 
ATOM      4  C   UNL     1      -2.188   2.446  -6.112  0.00  0.00    +0.168 C 
ATOM      5  C   UNL     1      -3.132   1.795  -7.133  0.00  0.00    +0.276 C 
ATOM      6  O   UNL     1      -2.458   1.706  -8.391  0.00  0.00    -0.476 OA
ATOM      7  C   UNL     1      -1.207   1.175  -8.403  0.00  0.00    +0.143 A 
ATOM      8  C   UNL     1      -0.441   1.125  -7.239  0.00  0.00    +0.078 A 
ATOM      9  C   UNL     1       0.831   0.582  -7.267  0.00  0.00    +0.027 A 
ATOM     10  C   UNL     1       1.347   0.093  -8.454  0.00  0.00    +0.002 A 
ATOM     11  C   UNL     1       0.591   0.143  -9.610  0.00  0.00    +0.004 A 
ATOM     12  C   UNL     1      -0.682   0.682  -9.588  0.00  0.00    +0.047 A 
ENDROOT
BRANCH   5  13
ATOM     13  C   UNL     1      -4.372   2.638  -7.283  0.00  0.00    +0.253 C 
ATOM     14  O   UNL     1      -4.613   3.180  -8.341  0.00  0.00    -0.272 OA
ATOM     15  N   UNL     1      -5.215   2.788  -6.242  0.00  0.00    -0.326 N 
ATOM     16  H   UNL     1      -5.023   2.354  -5.396  0.00  0.00    +0.145 HD
ATOM     17  H   UNL     1      -6.013   3.330  -6.339  0.00  0.00    +0.145 HD
ENDBRANCH   5  13
BRANCH   1  18
ATOM     18  C   UNL     1      -1.033   1.804  -3.569  0.00  0.00    +0.328 C 
BRANCH  18  19
ATOM     19  O   UNL     1      -0.284   1.287  -2.438  0.00  0.00    -0.454 OA
BRANCH  19  20
ATOM     20  C   UNL     1      -0.728   1.611  -1.213  0.00  0.00    +0.328 C 
ATOM     21  O   UNL     1      -1.710   2.304  -1.091  0.00  0.00    -0.249 OA
BRANCH  20  22
ATOM     22  C   UNL     1      -0.001   1.111   0.008  0.00  0.00    +0.242 C 
BRANCH  22  32
ATOM     23  C   UNL     1      -2.263  -0.386   1.458  0.00  0.00    +0.063 C 
ATOM     24  C   UNL     1      -1.685   0.944   1.868  0.00  0.00    +0.017 A 
ATOM     25  C   UNL     1      -2.083   1.662   2.930  0.00  0.00    +0.031 A 
ATOM     26  C   UNL     1      -1.262   2.875   2.958  0.00  0.00    +0.000 A 
ATOM     27  C   UNL     1      -1.201   3.986   3.801  0.00  0.00    +0.010 A 
ATOM     28  C   UNL     1      -0.287   4.973   3.558  0.00  0.00    +0.001 A 
ATOM     29  C   UNL     1       0.573   4.886   2.472  0.00  0.00    +0.002 A 
ATOM     30  C   UNL     1       0.526   3.801   1.624  0.00  0.00    +0.026 A 
ATOM     31  C   UNL     1      -0.391   2.781   1.858  0.00  0.00    +0.050 A 
ATOM     32  N   UNL     1      -0.678   1.598   1.213  0.00  0.00    -0.333 N 
ENDBRANCH  22  32
ENDBRANCH  20  22
ENDBRANCH  19  20
ENDBRANCH  18  19
ENDBRANCH   1  18
TORSDOF 6
