REMARK  Name = ZINC54104349
REMARK  5 active torsions:
REMARK  status: ('A' for Active; 'I' for Inactive)
REMARK    1  A    between atoms: C_1  and  C_2
REMARK    2  A    between atoms: C_12  and  C_14
REMARK    3  A    between atoms: N_21  and  C_22
REMARK    4  A    between atoms: C_22  and  C_24
REMARK    5  A    between atoms: C_25  and  C_26
REMARK                            x       y       z     vdW  Elec       q    Type
REMARK                         _______ _______ _______ _____ _____    ______ ____
ROOT
ATOM      1  C   UNL     1       0.596   1.408   0.482  0.00  0.00    +0.062 C 
ATOM      2  C   UNL     1       0.395  -0.072   0.282  0.00  0.00    +0.031 C 
ATOM      3  N   UNL     1       0.437  -0.547  -0.896  0.00  0.00    -0.254 NA
ATOM      4  C   UNL     1       0.301  -1.857  -1.244  0.00  0.00    +0.085 A 
ATOM      5  C   UNL     1       1.168  -2.345  -2.235  0.00  0.00    +0.029 A 
ATOM      6  C   UNL     1       1.093  -3.655  -2.648  0.00  0.00    +0.002 A 
ATOM      7  C   UNL     1       0.157  -4.506  -2.086  0.00  0.00    +0.002 A 
ATOM      8  C   UNL     1      -0.699  -4.043  -1.111  0.00  0.00    +0.025 A 
ATOM      9  C   UNL     1      -0.636  -2.717  -0.677  0.00  0.00    +0.058 A 
ATOM     10  N   UNL     1      -1.526  -2.338   0.318  0.00  0.00    -0.302 N 
ATOM     11  C   UNL     1      -1.224  -1.550   1.354  0.00  0.00    +0.105 C 
ATOM     12  C   UNL     1       0.158  -0.947   1.485  0.00  0.00    +0.124 C 
ATOM     13  N   UNL     1      -2.134  -1.299   2.268  0.00  0.00    -0.165 NA
ATOM     14  H   UNL     1      -2.436  -2.670   0.256  0.00  0.00    +0.153 HD
ENDROOT
BRANCH  12  15
ATOM     15  C   UNL     1       1.192  -2.041   1.530  0.00  0.00    -0.032 A 
ATOM     16  C   UNL     1       2.466  -1.809   1.044  0.00  0.00    +0.006 A 
ATOM     17  C   UNL     1       3.415  -2.813   1.086  0.00  0.00    +0.020 A 
ATOM     18  C   UNL     1       3.091  -4.050   1.614  0.00  0.00    +0.041 A 
ATOM     19  C   UNL     1       1.817  -4.281   2.100  0.00  0.00    +0.020 A 
ATOM     20  C   UNL     1       0.870  -3.275   2.063  0.00  0.00    +0.006 A 
ATOM     21 CL   UNL     1       4.283  -5.311   1.666  0.00  0.00    -0.084 Cl
ENDBRANCH  12  15
BRANCH  13  22
ATOM     22  C   UNL     1      -3.322  -1.927   2.223  0.00  0.00    +0.262 C 
ATOM     23  O   UNL     1      -3.370  -3.142   2.250  0.00  0.00    -0.269 OA
BRANCH  22  24
ATOM     24  C   UNL     1      -4.572  -1.139   2.141  0.00  0.00    +0.076 C 
ATOM     25  C   UNL     1      -5.759  -1.766   2.096  0.00  0.00    +0.101 C 
BRANCH  25  26
ATOM     26  C   UNL     1      -7.003  -0.982   2.015  0.00  0.00    +0.380 C 
ATOM     27  O   UNL     1      -6.956   0.240   1.987  0.00  0.00    -0.241 OA
ATOM     28  O   UNL     1      -8.084  -1.553   1.974  0.00  0.00    -0.241 OA
ENDBRANCH  25  26
ENDBRANCH  22  24
ENDBRANCH  13  22
TORSDOF 4
