REMARK  Name = ZINC02700712
REMARK  12 active torsions:
REMARK  status: ('A' for Active; 'I' for Inactive)
REMARK    1  A    between atoms: C_5  and  O_8
REMARK    2  A    between atoms: O_8  and  C_9
REMARK    3  A    between atoms: C_9  and  C_10
REMARK    4  A    between atoms: C_10  and  C_12
REMARK    5  A    between atoms: C_10  and  O_19
REMARK    6  A    between atoms: C_12  and  N_39
REMARK    7  A    between atoms: C_13  and  C_14
REMARK    8  A    between atoms: C_13  and  N_39
REMARK    9  A    between atoms: C_14  and  O_15
REMARK   10  A    between atoms: C_16  and  C_17
REMARK   11  A    between atoms: C_16  and  N_39
REMARK   12  A    between atoms: C_17  and  O_18
REMARK                            x       y       z     vdW  Elec       q    Type
REMARK                         _______ _______ _______ _____ _____    ______ ____
ROOT
ATOM      1  C   UNL     1       3.960   5.272  -0.840  0.00  0.00    +0.135 C 
ENDROOT
BRANCH   1   2
ATOM      2  O   UNL     1       3.827   6.585  -0.292  0.00  0.00    -0.390 OA
ATOM      3  H   UNL     1       3.271   7.176  -0.818  0.00  0.00    +0.210 HD
ENDBRANCH   1   2
BRANCH   1   4
ATOM      4  C   UNL     1       2.579   4.620  -0.943  0.00  0.00    +0.258 C 
BRANCH   4   5
ATOM      5  O   UNL     1       2.043   4.431   0.369  0.00  0.00    -0.487 OA
BRANCH   5  10
ATOM      6  C   UNL     1      -0.558   1.900   0.640  0.00  0.00    +0.034 A 
ATOM      7  C   UNL     1      -1.691   2.693   0.629  0.00  0.00    +0.020 A 
ATOM      8  C   UNL     1      -1.574   4.069   0.539  0.00  0.00    +0.034 A 
ATOM      9  C   UNL     1      -0.325   4.653   0.450  0.00  0.00    +0.062 A 
ATOM     10  C   UNL     1       0.813   3.859   0.456  0.00  0.00    +0.148 A 
ATOM     11  C   UNL     1       0.694   2.480   0.551  0.00  0.00    +0.062 A 
ATOM     12 BR   UNL     1       2.242   1.394   0.560  0.00  0.00    -0.046 Br
ATOM     13 BR   UNL     1      -0.166   6.533   0.321  0.00  0.00    -0.046 Br
ATOM     14 BR   UNL     1      -3.403   1.897   0.743  0.00  0.00    -0.050 Br
ENDBRANCH   5  10
ENDBRANCH   4   5
ENDBRANCH   1   4
BRANCH   1  15
ATOM     15  C   UNL     1       4.586   5.361  -2.233  0.00  0.00    -0.044 C 
BRANCH  15  16
ATOM     16  N   UNL     1       5.957   5.900  -2.106  0.00  0.00    +0.384 N 
ATOM     17  H   UNL     1       5.925   6.767  -1.557  0.00  0.00    -0.082 HD
BRANCH  16  18
ATOM     18  C   UNL     1       6.821   4.924  -1.410  0.00  0.00    -0.050 C 
BRANCH  18  19
ATOM     19  C   UNL     1       8.098   5.633  -0.956  0.00  0.00    +0.137 C 
BRANCH  19  20
ATOM     20  O   UNL     1       7.768   6.646  -0.003  0.00  0.00    -0.397 OA
ATOM     21  H   UNL     1       8.531   7.138   0.329  0.00  0.00    +0.209 HD
ENDBRANCH  19  20
ENDBRANCH  18  19
ENDBRANCH  16  18
BRANCH  16  22
ATOM     22  C   UNL     1       6.508   6.199  -3.444  0.00  0.00    -0.050 C 
BRANCH  22  23
ATOM     23  C   UNL     1       5.907   7.516  -3.939  0.00  0.00    +0.137 C 
BRANCH  23  24
ATOM     24  O   UNL     1       6.332   8.583  -3.089  0.00  0.00    -0.397 OA
ATOM     25  H   UNL     1       5.928   9.437  -3.297  0.00  0.00    +0.209 HD
ENDBRANCH  23  24
ENDBRANCH  22  23
ENDBRANCH  16  22
ENDBRANCH  15  16
ENDBRANCH   1  15
TORSDOF 12
