REMARK  Name = ZINC12099344
REMARK  10 active torsions:
REMARK  status: ('A' for Active; 'I' for Inactive)
REMARK    1  A    between atoms: C_1  and  C_2
REMARK    2  A    between atoms: C_2  and  C_3
REMARK    3  A    between atoms: C_2  and  C_4
REMARK    4  A    between atoms: C_2  and  N_6
REMARK    5  A    between atoms: C_4  and  O_5
REMARK    6  A    between atoms: C_7  and  C_9
REMARK    7  A    between atoms: C_13  and  N_15
REMARK    8  A    between atoms: C_16  and  C_18
REMARK    9  A    between atoms: N_24  and  C_31
REMARK   10  A    between atoms: C_25  and  C_27
REMARK                            x       y       z     vdW  Elec       q    Type
REMARK                         _______ _______ _______ _____ _____    ______ ____
ROOT
ATOM      1  C   UNL     1       0.475   0.909   4.836  0.00  0.00    +0.041 A 
ATOM      2  C   UNL     1       1.625   0.136   4.717  0.00  0.00    +0.043 A 
ATOM      3  C   UNL     1       2.264  -0.337   5.863  0.00  0.00    +0.092 A 
ATOM      4  C   UNL     1       1.741  -0.028   7.130  0.00  0.00    +0.090 A 
ATOM      5  C   UNL     1       0.586   0.748   7.240  0.00  0.00    +0.060 A 
ATOM      6  C   UNL     1      -0.039   1.218   6.102  0.00  0.00    +0.038 A 
ATOM      7  N   UNL     1       2.579  -0.627   8.045  0.00  0.00    -0.329 N 
ATOM      8  C   UNL     1       3.557  -1.263   7.344  0.00  0.00    +0.114 A 
ATOM      9  N   UNL     1       3.374  -1.094   6.068  0.00  0.00    -0.232 NA
ATOM     10  C   UNL     1       2.443  -0.587   9.503  0.00  0.00    +0.150 C 
ENDROOT
BRANCH   1  12
ATOM     11  N   UNL     1       0.292   1.119   2.405  0.00  0.00    -0.304 N 
ATOM     12  C   UNL     1      -0.204   1.410   3.624  0.00  0.00    +0.245 C 
ATOM     13  O   UNL     1      -1.209   2.086   3.726  0.00  0.00    -0.270 OA
ATOM     14  H   UNL     1       1.094   0.580   2.324  0.00  0.00    +0.150 HD
BRANCH  11  16
ATOM     15  C   UNL     1      -0.414   3.146   1.232  0.00  0.00    +0.033 C 
ATOM     16  C   UNL     1      -0.381   1.616   1.203  0.00  0.00    +0.052 C 
ATOM     17  C   UNL     1      -1.812   1.076   1.159  0.00  0.00    +0.033 C 
BRANCH  16  18
ATOM     18  C   UNL     1       0.379   1.146  -0.039  0.00  0.00    +0.181 C 
BRANCH  18  19
ATOM     19  O   UNL     1      -0.277   1.631  -1.212  0.00  0.00    -0.393 OA
ATOM     20  H   UNL     1       0.151   1.371  -2.039  0.00  0.00    +0.209 HD
ENDBRANCH  18  19
ENDBRANCH  16  18
ENDBRANCH  11  16
ENDBRANCH   1  12
BRANCH   5  21
ATOM     21  N   UNL     1       0.065   1.056   8.503  0.00  0.00    -0.282 N 
ATOM     22  C   UNL     1      -1.267   1.160   8.676  0.00  0.00    +0.246 C 
ATOM     23  O   UNL     1      -2.020   0.890   7.764  0.00  0.00    -0.273 OA
ATOM     24  H   UNL     1       0.664   1.193   9.254  0.00  0.00    +0.155 HD
BRANCH  22  25
ATOM     25  C   UNL     1      -1.822   1.611  10.003  0.00  0.00    +0.204 C 
ATOM     26  C   UNL     1      -1.401   3.068  10.278  0.00  0.00    +0.043 C 
ATOM     27  C   UNL     1      -2.741   3.825  10.443  0.00  0.00    +0.031 C 
ATOM     28  C   UNL     1      -3.723   2.677  10.785  0.00  0.00    +0.161 C 
ATOM     29  O   UNL     1      -3.259   1.581   9.967  0.00  0.00    -0.367 OA
ENDBRANCH  22  25
ENDBRANCH   5  21
BRANCH   8  30
ATOM     30  C   UNL     1       4.687  -2.049   7.958  0.00  0.00    +0.055 C 
ATOM     31  C   UNL     1       6.032  -1.859   7.238  0.00  0.00    +0.011 C 
ATOM     32  C   UNL     1       6.266  -3.366   7.447  0.00  0.00    +0.001 C 
ATOM     33  C   UNL     1       4.736  -3.516   7.501  0.00  0.00    +0.011 C 
ENDBRANCH   8  30
TORSDOF 7
