REMARK  Name = ZINC16735749
REMARK  4 active torsions:
REMARK  status: ('A' for Active; 'I' for Inactive)
REMARK    1  A    between atoms: C_1  and  C_2
REMARK    2  A    between atoms: C_9  and  O_15
REMARK    3  A    between atoms: C_10  and  C_13
REMARK    4  A    between atoms: O_15  and  C_16
REMARK                            x       y       z     vdW  Elec       q    Type
REMARK                         _______ _______ _______ _____ _____    ______ ____
ROOT
ATOM      1  C   UNL     1      -1.278  -0.775   0.171  0.00  0.00    +0.047 C 
ATOM      2  C   UNL     1       0.015  -0.002   0.163  0.00  0.00    -0.007 A 
ATOM      3  C   UNL     1       0.001   1.361   0.211  0.00  0.00    +0.008 A 
ATOM      4  C   UNL     1       1.212   2.066   0.202  0.00  0.00    +0.019 A 
ATOM      5  C   UNL     1       2.385   1.395   0.148  0.00  0.00    +0.096 A 
ATOM      6  N   UNL     1       2.409   0.034   0.099  0.00  0.00    -0.267 N 
ATOM      7  C   UNL     1       1.245  -0.680   0.105  0.00  0.00    +0.147 A 
ATOM      8  N   UNL     1       1.248  -2.014   0.059  0.00  0.00    -0.194 NA
ATOM      9  C   UNL     1       2.375  -2.705   0.003  0.00  0.00    +0.238 A 
ATOM     10  C   UNL     1       3.613  -2.021  -0.006  0.00  0.00    +0.141 A 
ATOM     11  C   UNL     1       3.599  -0.604   0.044  0.00  0.00    +0.272 A 
ATOM     12  O   UNL     1       4.641   0.026   0.039  0.00  0.00    -0.266 OA
ENDROOT
BRANCH  10  13
ATOM     13  C   UNL     1       4.831  -2.730  -0.064  0.00  0.00    +0.269 C 
ATOM     14  O   UNL     1       5.885  -2.127  -0.072  0.00  0.00    -0.295 OA
ENDBRANCH  10  13
BRANCH   9  15
ATOM     15  O   UNL     1       2.343  -4.055  -0.045  0.00  0.00    -0.437 OA
BRANCH  15  16
ATOM     16  C   UNL     1       1.136  -4.670   0.067  0.00  0.00    +0.130 A 
ATOM     17  C   UNL     1       0.773  -5.275   1.262  0.00  0.00    +0.048 A 
ATOM     18  C   UNL     1      -0.457  -5.893   1.376  0.00  0.00    +0.023 A 
ATOM     19  C   UNL     1      -1.321  -5.920   0.295  0.00  0.00    +0.041 A 
ATOM     20  C   UNL     1      -0.959  -5.322  -0.898  0.00  0.00    +0.023 A 
ATOM     21  C   UNL     1       0.268  -4.697  -1.014  0.00  0.00    +0.048 A 
ATOM     22 CL   UNL     1      -2.863  -6.705   0.439  0.00  0.00    -0.084 Cl
ENDBRANCH  15  16
ENDBRANCH   9  15
TORSDOF 3
