REMARK  Name = ZINC20417599
REMARK  12 active torsions:
REMARK  status: ('A' for Active; 'I' for Inactive)
REMARK    1  A    between atoms: C_1  and  C_2
REMARK    2  A    between atoms: N_6  and  C_21
REMARK    3  A    between atoms: C_10  and  C_20
REMARK    4  A    between atoms: N_11  and  C_12
REMARK    5  A    between atoms: C_12  and  C_13
REMARK    6  A    between atoms: C_21  and  C_22
REMARK    7  A    between atoms: N_24  and  C_25
REMARK    8  A    between atoms: C_25  and  C_26
REMARK    9  A    between atoms: C_26  and  C_27
REMARK   10  A    between atoms: C_27  and  N_28
REMARK   11  A    between atoms: C_29  and  C_37
REMARK   12  A    between atoms: C_34  and  C_36
REMARK                            x       y       z     vdW  Elec       q    Type
REMARK                         _______ _______ _______ _____ _____    ______ ____
ROOT
ATOM      1  C   UNL     1       4.100   1.313   1.453  0.00  0.00    +0.064 C 
ATOM      2  C   UNL     1       3.220   2.507   1.187  0.00  0.00    +0.026 A 
ATOM      3  C   UNL     1       3.625   3.687   0.658  0.00  0.00    +0.028 A 
ATOM      4  C   UNL     1       4.888   4.255   0.181  0.00  0.00    +0.143 A 
ATOM      5  N   UNL     1       4.917   5.467  -0.282  0.00  0.00    -0.176 NA
ATOM      6  N   UNL     1       3.796   6.289  -0.358  0.00  0.00    -0.220 N 
ATOM      7  C   UNL     1       2.572   5.891   0.047  0.00  0.00    +0.277 A 
ATOM      8  O   UNL     1       1.615   6.640  -0.037  0.00  0.00    -0.265 OA
ATOM      9  C   UNL     1       2.416   4.539   0.589  0.00  0.00    +0.070 A 
ATOM     10  C   UNL     1       1.397   3.790   1.083  0.00  0.00    +0.029 A 
ATOM     11  N   UNL     1       1.884   2.582   1.437  0.00  0.00    -0.342 N 
ATOM     12  C   UNL     1      -0.038   4.231   1.209  0.00  0.00    +0.064 C 
ENDROOT
BRANCH  11  13
ATOM     13  C   UNL     1       1.083   1.498   2.012  0.00  0.00    +0.159 C 
BRANCH  13  14
ATOM     14  C   UNL     1       0.938   1.714   3.496  0.00  0.00    +0.007 A 
ATOM     15  C   UNL     1      -0.118   2.459   3.986  0.00  0.00    +0.008 A 
ATOM     16  C   UNL     1      -0.252   2.656   5.348  0.00  0.00    +0.000 A 
ATOM     17  C   UNL     1       0.670   2.109   6.221  0.00  0.00    +0.003 A 
ATOM     18  C   UNL     1       1.726   1.363   5.733  0.00  0.00    +0.039 A 
ATOM     19  C   UNL     1       1.858   1.161   4.370  0.00  0.00    +0.128 A 
ATOM     20  F   UNL     1       2.887   0.427   3.892  0.00  0.00    -0.205 F 
ENDBRANCH  13  14
ENDBRANCH  11  13
BRANCH   6  21
ATOM     21  C   UNL     1       3.951   7.641  -0.901  0.00  0.00    +0.243 C 
BRANCH  21  22
ATOM     22  C   UNL     1       4.276   8.597   0.218  0.00  0.00    +0.235 C 
ATOM     23  O   UNL     1       4.368   8.189   1.356  0.00  0.00    -0.274 OA
ATOM     24  N   UNL     1       4.463   9.905  -0.047  0.00  0.00    -0.314 N 
ATOM     25  H   UNL     1       4.380  10.275  -1.079  0.00  0.00    +0.149 HD
BRANCH  24  26
ATOM     26  C   UNL     1       4.779  10.834   1.041  0.00  0.00    +0.102 C 
BRANCH  26  27
ATOM     27  C   UNL     1       4.942  12.246   0.474  0.00  0.00    +0.000 C 
BRANCH  27  28
ATOM     28  C   UNL     1       5.271  13.217   1.610  0.00  0.00    -0.077 C 
BRANCH  28  29
ATOM     29  N   UNL     1       5.328  14.587   1.082  0.00  0.00    +0.383 N 
ATOM     30  C   UNL     1       4.013  15.016   0.590  0.00  0.00    -0.071 C 
ATOM     31  C   UNL     1       4.075  16.490   0.184  0.00  0.00    -0.016 C 
ATOM     32  C   UNL     1       5.133  16.670  -0.908  0.00  0.00    -0.003 C 
ATOM     33  C   UNL     1       6.483  16.171  -0.386  0.00  0.00    -0.016 C 
ATOM     34  C   UNL     1       6.352  14.706   0.036  0.00  0.00    -0.071 C 
ATOM     35  C   UNL     1       7.694  14.209   0.577  0.00  0.00    -0.013 C 
ATOM     36  C   UNL     1       2.970  14.834   1.695  0.00  0.00    -0.013 C 
ATOM     37  H   UNL     1       5.612  15.257   1.907  0.00  0.00    -0.081 HD
ENDBRANCH  28  29
ENDBRANCH  27  28
ENDBRANCH  26  27
ENDBRANCH  24  26
ENDBRANCH  21  22
ENDBRANCH   6  21
TORSDOF 8
