REMARK  Name = ZINC16619200
REMARK  9 active torsions:
REMARK  status: ('A' for Active; 'I' for Inactive)
REMARK    1  A    between atoms: C_1  and  C_2
REMARK    2  A    between atoms: C_2  and  C_23
REMARK    3  A    between atoms: N_5  and  C_9
REMARK    4  A    between atoms: C_9  and  C_10
REMARK    5  A    between atoms: C_10  and  C_12
REMARK    6  A    between atoms: C_26  and  C_29
REMARK    7  A    between atoms: C_29  and  C_30
REMARK    8  A    between atoms: C_29  and  C_31
REMARK    9  A    between atoms: C_29  and  C_32
REMARK                            x       y       z     vdW  Elec       q    Type
REMARK                         _______ _______ _______ _____ _____    ______ ____
ROOT
ATOM      1  C   UNL     1      -0.019   1.526   0.010  0.00  0.00    +0.047 C 
ATOM      2  C   UNL     1       0.002  -0.004   0.002  0.00  0.00    +0.135 C 
ATOM      3  C   UNL     1      -1.403  -0.557   0.139  0.00  0.00    +0.251 C 
ATOM      4  O   UNL     1      -2.332  -0.392  -0.621  0.00  0.00    -0.272 OA
ATOM      5  N   UNL     1      -1.403  -1.272   1.282  0.00  0.00    -0.216 N 
ATOM      6  C   UNL     1      -0.206  -1.247   1.879  0.00  0.00    +0.310 C 
ATOM      7  O   UNL     1       0.040  -1.819   2.924  0.00  0.00    -0.252 OA
ATOM      8  N   UNL     1       0.695  -0.520   1.195  0.00  0.00    -0.281 N 
ATOM      9  H   UNL     1       1.621  -0.365   1.440  0.00  0.00    +0.152 HD
ENDROOT
BRANCH   2  10
ATOM     10  C   UNL     1       0.657  -0.517  -1.255  0.00  0.00    -0.015 A 
ATOM     11  C   UNL     1      -0.107  -0.772  -2.378  0.00  0.00    +0.006 A 
ATOM     12  C   UNL     1       0.493  -1.242  -3.530  0.00  0.00    +0.004 A 
ATOM     13  C   UNL     1       1.859  -1.457  -3.560  0.00  0.00    -0.042 A 
ATOM     14  C   UNL     1       2.623  -1.202  -2.437  0.00  0.00    +0.004 A 
ATOM     15  C   UNL     1       2.023  -0.727  -1.286  0.00  0.00    +0.006 A 
BRANCH  13  16
ATOM     16  C   UNL     1       2.513  -1.971  -4.816  0.00  0.00    -0.013 C 
ATOM     17  C   UNL     1       2.270  -0.983  -5.959  0.00  0.00    +0.015 C 
ATOM     18  C   UNL     1       4.018  -2.120  -4.583  0.00  0.00    +0.015 C 
ATOM     19  C   UNL     1       1.917  -3.332  -5.183  0.00  0.00    +0.015 C 
ENDBRANCH  13  16
ENDBRANCH   2  10
BRANCH   5  20
ATOM     20  C   UNL     1      -2.569  -1.986   1.805  0.00  0.00    +0.197 C 
BRANCH  20  21
ATOM     21  C   UNL     1      -2.585  -3.391   1.260  0.00  0.00    +0.181 C 
ATOM     22  O   UNL     1      -1.707  -3.759   0.508  0.00  0.00    -0.290 OA
BRANCH  21  23
ATOM     23  C   UNL     1      -3.662  -4.315   1.639  0.00  0.00    +0.021 A 
ATOM     24  C   UNL     1      -4.679  -3.890   2.503  0.00  0.00    +0.015 A 
ATOM     25  C   UNL     1      -5.689  -4.756   2.858  0.00  0.00    +0.048 A 
ATOM     26  C   UNL     1      -5.703  -6.051   2.361  0.00  0.00    +0.142 A 
ATOM     27  C   UNL     1      -4.691  -6.483   1.498  0.00  0.00    +0.076 A 
ATOM     28  C   UNL     1      -3.678  -5.621   1.133  0.00  0.00    +0.038 A 
ATOM     29  N   UNL     1      -4.723  -7.797   1.008  0.00  0.00    -0.280 N 
ATOM     30  C   UNL     1      -5.868  -8.506   1.113  0.00  0.00    +0.255 C 
ATOM     31  O   UNL     1      -5.911  -9.654   0.723  0.00  0.00    -0.272 OA
ATOM     32  C   UNL     1      -7.091  -7.866   1.717  0.00  0.00    +0.325 C 
ATOM     33  O   UNL     1      -6.696  -6.911   2.705  0.00  0.00    -0.481 OA
ATOM     34  H   UNL     1      -3.936  -8.189   0.599  0.00  0.00    +0.155 HD
ENDBRANCH  21  23
ENDBRANCH  20  21
ENDBRANCH   5  20
TORSDOF 5
