REMARK  Name = ZINC09428436
REMARK  8 active torsions:
REMARK  status: ('A' for Active; 'I' for Inactive)
REMARK    1  A    between atoms: C_1  and  O_2
REMARK    2  A    between atoms: O_2  and  C_3
REMARK    3  A    between atoms: C_3  and  C_5
REMARK    4  A    between atoms: C_5  and  C_6
REMARK    5  A    between atoms: N_9  and  N_10
REMARK    6  A    between atoms: C_14  and  C_17
REMARK    7  A    between atoms: C_17  and  C_18
REMARK    8  A    between atoms: N_20  and  C_21
REMARK                            x       y       z     vdW  Elec       q    Type
REMARK                         _______ _______ _______ _____ _____    ______ ____
ROOT
ATOM      1  N   UNL     1       0.486  -6.143  -2.742  0.00  0.00    -0.125 NA
ATOM      2  C   UNL     1      -0.587  -6.890  -2.849  0.00  0.00    +0.183 C 
ATOM      3  N   UNL     1      -0.661  -8.264  -2.976  0.00  0.00    -0.263 N 
ATOM      4  C   UNL     1      -1.814  -8.905  -3.077  0.00  0.00    +0.233 C 
ATOM      5  C   UNL     1      -3.060  -8.035  -3.045  0.00  0.00    +0.149 C 
ATOM      6  S   UNL     1      -2.296  -6.370  -2.859  0.00  0.00    -0.075 S 
ATOM      7  O   UNL     1      -1.873 -10.111  -3.188  0.00  0.00    -0.274 OA
ATOM      8  H   UNL     1       0.162  -8.777  -2.992  0.00  0.00    +0.157 HD
ENDROOT
BRANCH   1  11
ATOM      9  C   UNL     1       1.359  -2.500  -2.366  0.00  0.00    +0.132 C 
ATOM     10  C   UNL     1       1.425  -4.013  -2.508  0.00  0.00    +0.139 C 
ATOM     11  N   UNL     1       0.362  -4.753  -2.614  0.00  0.00    -0.135 NA
ATOM     12  N   UNL     1       2.683  -4.534  -2.513  0.00  0.00    -0.262 N 
ATOM     13  C   UNL     1       3.784  -3.769  -2.402  0.00  0.00    +0.278 C 
ATOM     14  S   UNL     1       3.152  -2.103  -2.267  0.00  0.00    -0.056 S 
ATOM     15  O   UNL     1       4.945  -4.130  -2.396  0.00  0.00    -0.263 OA
ATOM     16  H   UNL     1       2.790  -5.494  -2.600  0.00  0.00    +0.157 HD
BRANCH   9  17
ATOM     17  C   UNL     1       0.628  -2.094  -1.085  0.00  0.00    +0.142 C 
BRANCH  17  18
ATOM     18  C   UNL     1       0.562  -0.591  -1.000  0.00  0.00    +0.308 C 
ATOM     19  O   UNL     1       1.048   0.086  -1.874  0.00  0.00    -0.251 OA
BRANCH  18  21
ATOM     20  C   UNL     1      -0.065   1.425   0.063  0.00  0.00    +0.280 C 
ATOM     21  O   UNL     1      -0.038  -0.004   0.048  0.00  0.00    -0.468 OA
ENDBRANCH  18  21
ENDBRANCH  17  18
ENDBRANCH   9  17
ENDBRANCH   1  11
BRANCH   5  22
ATOM     22  C   UNL     1      -3.848  -8.147  -4.352  0.00  0.00    +0.120 C 
BRANCH  22  23
ATOM     23  C   UNL     1      -5.133  -7.369  -4.232  0.00  0.00    +0.219 C 
ATOM     24  O   UNL     1      -5.393  -6.783  -3.203  0.00  0.00    -0.275 OA
ATOM     25  N   UNL     1      -5.993  -7.325  -5.268  0.00  0.00    -0.285 N 
ATOM     26  H   UNL     1      -5.756  -7.737  -6.114  0.00  0.00    +0.155 HD
BRANCH  25  27
ATOM     27  C   UNL     1      -7.229  -6.685  -5.125  0.00  0.00    +0.033 A 
ATOM     28  C   UNL     1      -8.352  -7.187  -5.771  0.00  0.00    +0.024 A 
ATOM     29  C   UNL     1      -9.571  -6.553  -5.628  0.00  0.00    +0.017 A 
ATOM     30  C   UNL     1      -9.674  -5.420  -4.841  0.00  0.00    +0.018 A 
ATOM     31  C   UNL     1      -8.557  -4.917  -4.197  0.00  0.00    +0.017 A 
ATOM     32  C   UNL     1      -7.337  -5.550  -4.332  0.00  0.00    +0.024 A 
ATOM     33 BR   UNL     1     -11.344  -4.554  -4.648  0.00  0.00    -0.050 Br
ENDBRANCH  25  27
ENDBRANCH  22  23
ENDBRANCH   5  22
TORSDOF 7
