REMARK  Name = ZINC39689484
REMARK  8 active torsions:
REMARK  status: ('A' for Active; 'I' for Inactive)
REMARK    1  A    between atoms: C_1  and  C_2
REMARK    2  A    between atoms: C_6  and  C_8
REMARK    3  A    between atoms: C_8  and  C_9
REMARK    4  A    between atoms: C_9  and  N_10
REMARK    5  A    between atoms: C_11  and  C_13
REMARK    6  A    between atoms: C_24  and  C_26
REMARK    7  A    between atoms: C_29  and  C_33
REMARK    8  A    between atoms: C_31  and  C_32
REMARK                            x       y       z     vdW  Elec       q    Type
REMARK                         _______ _______ _______ _____ _____    ______ ____
ROOT
ATOM      1  C   UNL     1       2.636  -5.644   6.177  0.00  0.00    +0.100 C 
ATOM      2  C   UNL     1       2.085  -4.571   7.143  0.00  0.00    +0.121 C 
ATOM      3  N   UNL     1       2.954  -4.663   8.340  0.00  0.00    -0.296 N 
ATOM      4  C   UNL     1       4.313  -4.887   7.792  0.00  0.00    +0.115 C 
ATOM      5  C   UNL     1       4.098  -5.849   6.606  0.00  0.00    -0.004 C 
ATOM      6  C   UNL     1       4.322  -7.291   7.050  0.00  0.00    -0.010 C 
ATOM      7  C   UNL     1       5.796  -7.484   7.417  0.00  0.00    -0.082 C 
ATOM      8  N   UNL     1       6.638  -7.171   6.256  0.00  0.00    +0.379 N 
ATOM      9  C   UNL     1       6.485  -5.757   5.893  0.00  0.00    -0.082 C 
ATOM     10  C   UNL     1       5.041  -5.491   5.461  0.00  0.00    -0.010 C 
ATOM     11  C   UNL     1       2.590  -4.565   9.634  0.00  0.00    +0.247 C 
ATOM     12  O   UNL     1       3.438  -4.564  10.505  0.00  0.00    -0.270 OA
ATOM     13  H   UNL     1       7.603  -7.357   6.481  0.00  0.00    -0.086 HD
ATOM     14  H   UNL     1       6.360  -7.749   5.476  0.00  0.00    -0.086 HD
ENDROOT
BRANCH  11  15
ATOM     15  C   UNL     1       1.160  -4.458   9.994  0.00  0.00    +0.040 A 
ATOM     16  C   UNL     1       0.283  -3.743   9.176  0.00  0.00    +0.013 A 
ATOM     17  C   UNL     1      -1.050  -3.647   9.518  0.00  0.00    +0.004 A 
ATOM     18  C   UNL     1      -1.518  -4.258  10.668  0.00  0.00    -0.050 A 
ATOM     19  C   UNL     1      -0.654  -4.968  11.482  0.00  0.00    +0.007 A 
ATOM     20  C   UNL     1       0.680  -5.077  11.149  0.00  0.00    -0.038 A 
ATOM     21  C   UNL     1       1.619  -5.856  12.034  0.00  0.00    +0.044 C 
ATOM     22  C   UNL     1      -2.976  -4.149  11.035  0.00  0.00    +0.044 C 
ENDBRANCH  11  15
BRANCH   1  24
ATOM     23  N   UNL     1       2.448  -6.035   3.742  0.00  0.00    -0.315 N 
ATOM     24  C   UNL     1       2.570  -5.153   4.754  0.00  0.00    +0.218 C 
ATOM     25  O   UNL     1       2.628  -3.965   4.519  0.00  0.00    -0.275 OA
ATOM     26  H   UNL     1       2.401  -6.985   3.929  0.00  0.00    +0.149 HD
BRANCH  23  27
ATOM     27  C   UNL     1       2.384  -5.557   2.358  0.00  0.00    +0.109 C 
BRANCH  27  28
ATOM     28  C   UNL     1       2.246  -6.752   1.412  0.00  0.00    +0.054 C 
BRANCH  28  34
ATOM     29  C   UNL     1      -0.434  -5.188  -2.514  0.00  0.00    +0.044 C 
ATOM     30  C   UNL     1       0.898  -5.513  -1.889  0.00  0.00    -0.050 A 
ATOM     31  C   UNL     1       2.061  -5.361  -2.622  0.00  0.00    +0.003 A 
ATOM     32  C   UNL     1       3.283  -5.659  -2.050  0.00  0.00    +0.001 A 
ATOM     33  C   UNL     1       3.343  -6.109  -0.744  0.00  0.00    +0.004 A 
ATOM     34  C   UNL     1       2.181  -6.261  -0.011  0.00  0.00    -0.046 A 
ATOM     35  C   UNL     1       0.959  -5.958  -0.582  0.00  0.00    +0.007 A 
ENDBRANCH  28  34
ENDBRANCH  27  28
ENDBRANCH  23  27
ENDBRANCH   1  24
TORSDOF 5
