REMARK  Name = ZINC13117122
REMARK  11 active torsions:
REMARK  status: ('A' for Active; 'I' for Inactive)
REMARK    1  A    between atoms: C_1  and  C_2
REMARK    2  A    between atoms: C_2  and  N_3
REMARK    3  A    between atoms: C_7  and  S_30
REMARK    4  A    between atoms: C_11  and  S_12
REMARK    5  A    between atoms: S_12  and  C_13
REMARK    6  A    between atoms: C_13  and  C_15
REMARK    7  A    between atoms: C_13  and  C_16
REMARK    8  A    between atoms: N_18  and  C_19
REMARK    9  A    between atoms: C_24  and  C_29
REMARK   10  A    between atoms: C_26  and  C_28
REMARK   11  A    between atoms: S_30  and  N_33
REMARK                            x       y       z     vdW  Elec       q    Type
REMARK                         _______ _______ _______ _____ _____    ______ ____
ROOT
ATOM      1  N   UNL     1      -4.134   8.464   2.425  0.00  0.00    -0.319 N 
ATOM      2  C   UNL     1      -3.570   9.700   2.152  0.00  0.00    +0.070 A 
ATOM      3  C   UNL     1      -4.045  11.002   2.188  0.00  0.00    +0.030 A 
ATOM      4  C   UNL     1      -3.212  12.047   1.843  0.00  0.00    +0.030 A 
ATOM      5  C   UNL     1      -1.902  11.803   1.458  0.00  0.00    +0.107 A 
ATOM      6  C   UNL     1      -1.414  10.517   1.417  0.00  0.00    +0.058 A 
ATOM      7  C   UNL     1      -2.244   9.448   1.764  0.00  0.00    +0.092 A 
ATOM      8  N   UNL     1      -2.059   8.103   1.821  0.00  0.00    -0.222 NA
ATOM      9  C   UNL     1      -3.167   7.523   2.213  0.00  0.00    +0.171 A 
ENDROOT
BRANCH   5  10
ATOM     10  S   UNL     1      -0.854  13.151   1.020  0.00  0.00    +0.056 S 
ATOM     11  O   UNL     1      -1.383  14.302   1.664  0.00  0.00    -0.153 OA
ATOM     12  O   UNL     1       0.481  12.710   1.224  0.00  0.00    -0.153 OA
BRANCH  10  13
ATOM     13  N   UNL     1      -1.029  13.397  -0.608  0.00  0.00    -0.204 NA
ATOM     14  H   UNL     1      -0.918  14.287  -0.979  0.00  0.00    +0.144 HD
ATOM     15  H   UNL     1      -1.242  12.652  -1.191  0.00  0.00    +0.144 HD
ENDBRANCH  10  13
ENDBRANCH   5  10
BRANCH   1  17
ATOM     16  C   UNL     1      -5.571   8.245   4.392  0.00  0.00    +0.027 C 
ATOM     17  C   UNL     1      -5.509   8.214   2.863  0.00  0.00    +0.121 C 
ENDBRANCH   1  17
BRANCH   9  18
ATOM     18  S   UNL     1      -3.380   5.787   2.426  0.00  0.00    -0.075 S 
BRANCH  18  19
ATOM     19  C   UNL     1      -1.728   5.208   1.965  0.00  0.00    +0.137 C 
ATOM     20  C   UNL     1      -0.705   5.726   2.978  0.00  0.00    +0.029 C 
BRANCH  19  21
ATOM     21  C   UNL     1      -1.707   3.701   1.957  0.00  0.00    +0.226 C 
ATOM     22  O   UNL     1      -2.554   3.080   2.564  0.00  0.00    -0.275 OA
ATOM     23  N   UNL     1      -0.749   3.044   1.275  0.00  0.00    -0.311 N 
ATOM     24  H   UNL     1      -0.072   3.541   0.789  0.00  0.00    +0.149 HD
BRANCH  23  25
ATOM     25  C   UNL     1      -0.729   1.579   1.267  0.00  0.00    +0.076 C 
ATOM     26  C   UNL     1       0.011   1.072   2.506  0.00  0.00    +0.022 C 
ATOM     27  C   UNL     1       1.446   1.602   2.495  0.00  0.00    +0.002 C 
ATOM     28  C   UNL     1       2.163   1.109   1.237  0.00  0.00    +0.003 C 
ATOM     29  C   UNL     1       1.423   1.615  -0.003  0.00  0.00    -0.009 C 
ATOM     30  C   UNL     1      -0.013   1.086   0.008  0.00  0.00    +0.009 C 
ATOM     31  C   UNL     1      -0.753   1.593  -1.232  0.00  0.00    +0.009 C 
ATOM     32  C   UNL     1       2.139   1.122  -1.262  0.00  0.00    +0.008 C 
ENDBRANCH  23  25
ENDBRANCH  19  21
ENDBRANCH  18  19
ENDBRANCH   9  18
TORSDOF 7
