REMARK  Name = ZINC15866381
REMARK  4 active torsions:
REMARK  status: ('A' for Active; 'I' for Inactive)
REMARK    1  A    between atoms: C_4  and  O_25
REMARK    2  A    between atoms: C_5  and  C_7
REMARK    3  A    between atoms: C_10  and  C_18
REMARK    4  A    between atoms: O_25  and  C_26
REMARK                            x       y       z     vdW  Elec       q    Type
REMARK                         _______ _______ _______ _____ _____    ______ ____
ROOT
ATOM      1  C   UNL     1      -1.147   2.315   0.020  0.00  0.00    +0.148 C 
ATOM      2  C   UNL     1      -0.663   3.694  -0.443  0.00  0.00    +0.059 C 
ATOM      3  C   UNL     1       0.607   4.084   0.322  0.00  0.00    +0.106 C 
ATOM      4  N   UNL     1       1.667   3.106   0.007  0.00  0.00    -0.305 N 
ATOM      5  C   UNL     1       1.286   1.771  -0.001  0.00  0.00    +0.236 A 
ATOM      6  N   UNL     1      -0.017   1.391   0.010  0.00  0.00    -0.206 N 
ATOM      7  N   UNL     1       0.002  -0.004   0.002  0.00  0.00    -0.042 NA
ATOM      8  N   UNL     1       1.247  -0.355  -0.014  0.00  0.00    -0.021 NA
ATOM      9  N   UNL     1       2.007   0.686  -0.016  0.00  0.00    -0.092 NA
ATOM     10  H   UNL     1       2.578   3.380  -0.182  0.00  0.00    +0.150 HD
ENDROOT
BRANCH   3  11
ATOM     11  C   UNL     1       0.329   4.070   1.803  0.00  0.00    -0.027 A 
ATOM     12  C   UNL     1       0.302   2.871   2.490  0.00  0.00    +0.007 A 
ATOM     13  C   UNL     1       0.053   2.858   3.849  0.00  0.00    +0.020 A 
ATOM     14  C   UNL     1      -0.180   4.046   4.520  0.00  0.00    +0.041 A 
ATOM     15  C   UNL     1      -0.158   5.245   3.831  0.00  0.00    +0.020 A 
ATOM     16  C   UNL     1       0.097   5.257   2.473  0.00  0.00    +0.007 A 
ATOM     17 CL   UNL     1      -0.499   4.030   6.227  0.00  0.00    -0.084 Cl
ENDBRANCH   3  11
BRANCH   1  22
ATOM     18  C   UNL     1      -2.921   1.187  -3.116  0.00  0.00    +0.001 A 
ATOM     19  C   UNL     1      -4.184   0.895  -2.633  0.00  0.00    +0.004 A 
ATOM     20  C   UNL     1      -4.467   1.062  -1.292  0.00  0.00    +0.046 A 
ATOM     21  C   UNL     1      -3.482   1.517  -0.427  0.00  0.00    +0.132 A 
ATOM     22  C   UNL     1      -2.218   1.815  -0.915  0.00  0.00    +0.019 A 
ATOM     23  C   UNL     1      -1.940   1.646  -2.258  0.00  0.00    +0.009 A 
BRANCH  21  24
ATOM     24  O   UNL     1      -3.756   1.677   0.894  0.00  0.00    -0.434 OA
BRANCH  24  25
ATOM     25  C   UNL     1      -5.079   1.351   1.326  0.00  0.00    +0.541 C 
ATOM     26  F   UNL     1      -6.002   2.157   0.650  0.00  0.00    -0.166 F 
ATOM     27  F   UNL     1      -5.343   0.006   1.047  0.00  0.00    -0.166 F 
ENDBRANCH  24  25
ENDBRANCH  21  24
ENDBRANCH   1  22
TORSDOF 4
