REMARK  Name = ZINC13941041
REMARK  5 active torsions:
REMARK  status: ('A' for Active; 'I' for Inactive)
REMARK    1  A    between atoms: C_3  and  N_18
REMARK    2  A    between atoms: C_5  and  O_7
REMARK    3  A    between atoms: O_7  and  C_8
REMARK    4  A    between atoms: C_8  and  C_9
REMARK    5  A    between atoms: C_9  and  C_11
REMARK                            x       y       z     vdW  Elec       q    Type
REMARK                         _______ _______ _______ _____ _____    ______ ____
ROOT
ATOM      1  C   UNL     1       0.002  -0.004   0.002  0.00  0.00    +0.005 A 
ATOM      2  C   UNL     1      -0.017   1.377   0.010  0.00  0.00    +0.024 A 
ATOM      3  C   UNL     1       1.176   2.089   0.002  0.00  0.00    +0.047 A 
ATOM      4  C   UNL     1       2.386   1.411  -0.014  0.00  0.00    +0.069 A 
ATOM      5  C   UNL     1       2.401   0.025  -0.021  0.00  0.00    +0.123 A 
ATOM      6  C   UNL     1       1.206  -0.681  -0.013  0.00  0.00    +0.046 A 
ENDROOT
BRANCH   3   7
ATOM      7  N   UNL     1       1.156   3.489   0.010  0.00  0.00    -0.210 N 
ATOM      8  C   UNL     1      -0.006   4.230   0.025  0.00  0.00    +0.231 C 
ATOM      9  O   UNL     1      -1.133   3.873   0.274  0.00  0.00    -0.274 OA
ATOM     10  C   UNL     1       0.481   5.561  -0.338  0.00  0.00    +0.095 C 
ATOM     11  C   UNL     1      -0.165   6.881  -0.605  0.00  0.00    +0.027 C 
ATOM     12  C   UNL     1       0.756   7.222  -1.840  0.00  0.00    -0.026 C 
ATOM     13  C   UNL     1       2.041   7.207  -1.529  0.00  0.00    -0.026 C 
ATOM     14  C   UNL     1       2.517   6.867  -0.126  0.00  0.00    +0.027 C 
ATOM     15  C   UNL     1       1.814   5.639   0.443  0.00  0.00    +0.095 C 
ATOM     16  C   UNL     1       2.287   4.262  -0.004  0.00  0.00    +0.231 C 
ATOM     17  O   UNL     1       3.412   3.935  -0.304  0.00  0.00    -0.274 OA
ATOM     18  C   UNL     1       1.809   8.020   0.688  0.00  0.00    +0.001 C 
ATOM     19  C   UNL     1       0.293   7.976   0.386  0.00  0.00    +0.001 C 
ATOM     20  C   UNL     1       0.804   7.624   1.762  0.00  0.00    +0.009 C 
ENDBRANCH   3   7
BRANCH   5  21
ATOM     21  O   UNL     1       3.585  -0.642  -0.036  0.00  0.00    -0.484 OA
BRANCH  21  22
ATOM     22  C   UNL     1       3.526  -2.070  -0.043  0.00  0.00    +0.308 C 
BRANCH  22  23
ATOM     23  C   UNL     1       4.924  -2.631  -0.060  0.00  0.00    +0.200 C 
ATOM     24  O   UNL     1       5.878  -1.882  -0.066  0.00  0.00    -0.288 OA
BRANCH  23  25
ATOM     25  C   UNL     1       5.132  -4.087  -0.070  0.00  0.00    +0.021 A 
ATOM     26  C   UNL     1       4.034  -4.954  -0.058  0.00  0.00    +0.012 A 
ATOM     27  C   UNL     1       4.237  -6.317  -0.074  0.00  0.00    +0.016 A 
ATOM     28  C   UNL     1       5.524  -6.829  -0.089  0.00  0.00    +0.018 A 
ATOM     29  C   UNL     1       6.616  -5.977  -0.095  0.00  0.00    +0.016 A 
ATOM     30  C   UNL     1       6.429  -4.612  -0.086  0.00  0.00    +0.012 A 
ATOM     31 BR   UNL     1       5.792  -8.701  -0.103  0.00  0.00    -0.050 Br
ENDBRANCH  23  25
ENDBRANCH  22  23
ENDBRANCH  21  22
ENDBRANCH   5  21
TORSDOF 5
