REMARK  Name = ZINC03269095
REMARK  11 active torsions:
REMARK  status: ('A' for Active; 'I' for Inactive)
REMARK    1  A    between atoms: C_1  and  C_2
REMARK    2  A    between atoms: C_3  and  C_4
REMARK    3  A    between atoms: C_3  and  N_14
REMARK    4  A    between atoms: C_7  and  O_10
REMARK    5  A    between atoms: O_10  and  C_11
REMARK    6  A    between atoms: N_14  and  N_15
REMARK    7  A    between atoms: N_15  and  C_16
REMARK    8  A    between atoms: C_16  and  N_18
REMARK    9  A    between atoms: N_18  and  C_19
REMARK   10  A    between atoms: C_21  and  C_26
REMARK   11  A    between atoms: C_24  and  C_25
REMARK                            x       y       z     vdW  Elec       q    Type
REMARK                         _______ _______ _______ _____ _____    ______ ____
ROOT
ATOM      1  N   UNL     1      -1.118   4.072   0.037  0.00  0.00    -0.265 N 
ATOM      2  H   UNL     1      -0.344   4.653   0.096  0.00  0.00    +0.170 HD
ENDROOT
BRANCH   1   5
ATOM      3  C   UNL     1      -4.849   4.411  -0.112  0.00  0.00    +0.037 C 
ATOM      4  C   UNL     1      -3.462   3.822  -0.145  0.00  0.00    -0.005 C 
ATOM      5  C   UNL     1      -2.396   4.621  -0.065  0.00  0.00    +0.047 C 
BRANCH   5   6
ATOM      6  C   UNL     1      -2.571   6.092  -0.085  0.00  0.00    -0.003 A 
ATOM      7  C   UNL     1      -3.287   6.697  -1.117  0.00  0.00    +0.013 A 
ATOM      8  C   UNL     1      -3.451   8.066  -1.130  0.00  0.00    +0.046 A 
ATOM      9  C   UNL     1      -2.895   8.843  -0.123  0.00  0.00    +0.127 A 
ATOM     10  C   UNL     1      -2.177   8.244   0.904  0.00  0.00    +0.046 A 
ATOM     11  C   UNL     1      -2.013   6.875   0.926  0.00  0.00    +0.013 A 
BRANCH   9  12
ATOM     12  O   UNL     1      -3.054  10.192  -0.141  0.00  0.00    -0.434 OA
BRANCH  12  13
ATOM     13  C   UNL     1      -3.804  10.742  -1.227  0.00  0.00    +0.541 C 
ATOM     14  F   UNL     1      -3.178  10.420  -2.436  0.00  0.00    -0.166 F 
ATOM     15  F   UNL     1      -5.098  10.211  -1.216  0.00  0.00    -0.166 F 
ENDBRANCH  12  13
ENDBRANCH   9  12
ENDBRANCH   5   6
ENDBRANCH   1   5
BRANCH   1  16
ATOM     16  N   UNL     1      -0.953   2.680   0.056  0.00  0.00    -0.248 N 
ATOM     17  H   UNL     1      -1.728   2.099  -0.002  0.00  0.00    +0.172 HD
BRANCH  16  18
ATOM     18  C   UNL     1       0.281   2.149   0.155  0.00  0.00    +0.151 C 
ATOM     19  S   UNL     1       0.483   0.450   0.178  0.00  0.00    -0.017 S 
BRANCH  18  20
ATOM     20  N   UNL     1       1.358   2.957   0.230  0.00  0.00    -0.296 N 
ATOM     21  H   UNL     1       1.249   3.918   0.166  0.00  0.00    +0.154 HD
BRANCH  20  22
ATOM     22  C   UNL     1       2.634   2.408   0.400  0.00  0.00    +0.036 A 
ATOM     23  C   UNL     1       2.812   1.302   1.222  0.00  0.00    +0.027 A 
ATOM     24  C   UNL     1       4.071   0.759   1.384  0.00  0.00    -0.049 A 
ATOM     25  C   UNL     1       5.156   1.322   0.737  0.00  0.00    +0.004 A 
ATOM     26  C   UNL     1       4.983   2.426  -0.078  0.00  0.00    +0.005 A 
ATOM     27  C   UNL     1       3.725   2.970  -0.248  0.00  0.00    -0.029 A 
ATOM     28  C   UNL     1       3.538   4.173  -1.136  0.00  0.00    +0.045 C 
ATOM     29  C   UNL     1       4.264  -0.444   2.271  0.00  0.00    +0.044 C 
ENDBRANCH  20  22
ENDBRANCH  18  20
ENDBRANCH  16  18
ENDBRANCH   1  16
TORSDOF 8
