REMARK  Name = ZINC29867560
REMARK  12 active torsions:
REMARK  status: ('A' for Active; 'I' for Inactive)
REMARK    1  A    between atoms: C_1  and  C_2
REMARK    2  A    between atoms: C_2  and  O_3
REMARK    3  A    between atoms: O_3  and  C_4
REMARK    4  A    between atoms: C_4  and  C_6
REMARK    5  A    between atoms: C_7  and  C_29
REMARK    6  A    between atoms: C_11  and  N_28
REMARK    7  A    between atoms: C_13  and  C_15
REMARK    8  A    between atoms: C_15  and  O_16
REMARK    9  A    between atoms: O_16  and  C_17
REMARK   10  A    between atoms: C_17  and  C_19
REMARK   11  A    between atoms: C_19  and  O_20
REMARK   12  A    between atoms: O_20  and  C_21
REMARK                            x       y       z     vdW  Elec       q    Type
REMARK                         _______ _______ _______ _____ _____    ______ ____
ROOT
ATOM      1  C   UNL     1       1.232   3.545   0.009  0.00  0.00    +0.112 A 
ATOM      2  C   UNL     1       1.268   4.362   1.098  0.00  0.00    +0.119 A 
ATOM      3  O   UNL     1       1.320   5.641   0.703  0.00  0.00    -0.441 OA
ATOM      4  C   UNL     1       1.311   5.741  -0.637  0.00  0.00    +0.233 A 
ATOM      5  C   UNL     1       1.256   4.441  -1.160  0.00  0.00    +0.094 A 
ATOM      6  C   UNL     1       1.236   4.269  -2.548  0.00  0.00    +0.132 A 
ATOM      7  N   UNL     1       1.271   5.353  -3.319  0.00  0.00    -0.213 NA
ATOM      8  C   UNL     1       1.323   6.560  -2.788  0.00  0.00    +0.172 A 
ATOM      9  N   UNL     1       1.343   6.764  -1.488  0.00  0.00    -0.193 NA
ATOM     10  C   UNL     1       1.256   3.897   2.532  0.00  0.00    +0.087 C 
ENDROOT
BRANCH   6  11
ATOM     11  N   UNL     1       1.181   3.003  -3.105  0.00  0.00    -0.342 N 
ATOM     12  H   UNL     1       1.166   2.883  -4.198  0.00  0.00    +0.144 HD
ATOM     13  H   UNL     1       1.152   2.116  -2.454  0.00  0.00    +0.144 HD
ENDBRANCH   6  11
BRANCH   1  14
ATOM     14  C   UNL     1       1.175   2.076   0.002  0.00  0.00    +0.343 C 
ATOM     15  O   UNL     1       2.204   1.428  -0.011  0.00  0.00    -0.245 OA
BRANCH  14  16
ATOM     16  O   UNL     1      -0.018   1.448   0.010  0.00  0.00    -0.461 OA
BRANCH  16  18
ATOM     17  C   UNL     1      -1.433  -0.534   0.013  0.00  0.00    +0.048 C 
ATOM     18  C   UNL     1       0.002  -0.004   0.002  0.00  0.00    +0.229 C 
ENDBRANCH  16  18
ENDBRANCH  14  16
ENDBRANCH   1  14
BRANCH   8  19
ATOM     19  C   UNL     1       1.360   7.753  -3.708  0.00  0.00    +0.308 C 
BRANCH  19  20
ATOM     20  O   UNL     1       2.740   8.083  -4.016  0.00  0.00    -0.454 OA
BRANCH  20  21
ATOM     21  C   UNL     1       2.949   9.130  -4.830  0.00  0.00    +0.346 C 
ATOM     22  O   UNL     1       2.010   9.750  -5.270  0.00  0.00    -0.247 OA
BRANCH  21  23
ATOM     23  C   UNL     1       4.355   9.531  -5.195  0.00  0.00    +0.349 C 
BRANCH  23  24
ATOM     24  O   UNL     1       4.316  10.664  -6.065  0.00  0.00    -0.481 OA
BRANCH  24  25
ATOM     25  C   UNL     1       5.509  11.156  -6.491  0.00  0.00    +0.122 A 
ATOM     26  C   UNL     1       6.693  10.565  -6.075  0.00  0.00    +0.046 A 
ATOM     27  C   UNL     1       7.905  11.064  -6.512  0.00  0.00    +0.005 A 
ATOM     28  C   UNL     1       7.939  12.158  -7.357  0.00  0.00    +0.015 A 
ATOM     29  C   UNL     1       6.760  12.754  -7.769  0.00  0.00    +0.021 A 
ATOM     30  C   UNL     1       5.545  12.255  -7.338  0.00  0.00    +0.061 A 
ATOM     31 BR   UNL     1       6.811  14.251  -8.923  0.00  0.00    -0.050 Br
ENDBRANCH  24  25
ENDBRANCH  23  24
ENDBRANCH  21  23
ENDBRANCH  20  21
ENDBRANCH  19  20
ENDBRANCH   8  19
TORSDOF 10
