REMARK  Name = ZINC66737549
REMARK  7 active torsions:
REMARK  status: ('A' for Active; 'I' for Inactive)
REMARK    1  A    between atoms: C_1  and  C_2
REMARK    2  A    between atoms: C_3  and  C_22
REMARK    3  A    between atoms: C_7  and  S_8
REMARK    4  A    between atoms: S_8  and  N_11
REMARK    5  A    between atoms: N_18  and  C_21
REMARK    6  A    between atoms: C_22  and  O_24
REMARK    7  A    between atoms: O_24  and  C_25
REMARK                            x       y       z     vdW  Elec       q    Type
REMARK                         _______ _______ _______ _____ _____    ______ ____
ROOT
ATOM      1  S   UNL     1       0.214   0.173   2.714  0.00  0.00    +0.101 S 
ATOM      2  O   UNL     1      -0.844   1.122   2.715  0.00  0.00    -0.146 OA
ATOM      3  O   UNL     1       0.360  -0.806   3.733  0.00  0.00    -0.146 OA
ENDROOT
BRANCH   1   4
ATOM      4  N   UNL     1       1.625   1.039   2.683  0.00  0.00    -0.103 NA
ATOM      5  C   UNL     1       1.958   1.787   3.707  0.00  0.00    +0.192 A 
ATOM      6  N   UNL     1       3.067   2.580   3.883  0.00  0.00    -0.336 N 
ATOM      7  C   UNL     1       3.217   3.290   5.053  0.00  0.00    +0.030 A 
ATOM      8  C   UNL     1       2.255   3.169   5.979  0.00  0.00    +0.026 A 
ATOM      9  S   UNL     1       1.087   2.056   5.244  0.00  0.00    -0.052 S 
ATOM     10  C   UNL     1       2.199   3.833   7.316  0.00  0.00    +0.128 C 
ATOM     11  N   UNL     1       3.535   4.381   7.619  0.00  0.00    -0.300 NA
ATOM     12  C   UNL     1       4.048   5.145   6.473  0.00  0.00    +0.090 C 
ATOM     13  C   UNL     1       4.416   4.195   5.331  0.00  0.00    +0.069 C 
ATOM     14  C   UNL     1       3.502   5.209   8.832  0.00  0.00    +0.105 C 
ATOM     15  H   UNL     1       3.740   2.639   3.188  0.00  0.00    +0.168 HD
ENDBRANCH   1   4
BRANCH   1  22
ATOM     16  C   UNL     1      -0.064   1.502   0.014  0.00  0.00    +0.046 C 
ATOM     17  C   UNL     1      -0.020  -0.005   0.004  0.00  0.00    -0.010 A 
ATOM     18  C   UNL     1      -0.100  -0.699  -1.205  0.00  0.00    +0.064 A 
ATOM     19  C   UNL     1      -0.058  -2.094  -1.206  0.00  0.00    +0.015 A 
ATOM     20  C   UNL     1       0.061  -2.778  -0.013  0.00  0.00    +0.003 A 
ATOM     21  C   UNL     1       0.140  -2.084   1.181  0.00  0.00    +0.029 A 
ATOM     22  C   UNL     1       0.105  -0.701   1.188  0.00  0.00    +0.116 A 
BRANCH  18  23
ATOM     23  C   UNL     1      -0.228   0.040  -2.478  0.00  0.00    +0.339 C 
ATOM     24  O   UNL     1      -0.153   1.253  -2.486  0.00  0.00    -0.245 OA
BRANCH  23  25
ATOM     25  O   UNL     1      -0.427  -0.630  -3.629  0.00  0.00    -0.464 OA
ATOM     26  C   UNL     1      -0.542   0.148  -4.822  0.00  0.00    +0.280 C 
ENDBRANCH  23  25
ENDBRANCH  18  23
ENDBRANCH   1  22
TORSDOF 4
