REMARK  Name = ZINC05433900
REMARK  8 active torsions:
REMARK  status: ('A' for Active; 'I' for Inactive)
REMARK    1  A    between atoms: C_1  and  C_2
REMARK    2  A    between atoms: C_2  and  C_3
REMARK    3  A    between atoms: C_2  and  C_4
REMARK    4  A    between atoms: C_2  and  C_5
REMARK    5  A    between atoms: N_11  and  C_12
REMARK    6  A    between atoms: C_22  and  N_24
REMARK    7  A    between atoms: N_24  and  S_25
REMARK    8  A    between atoms: S_25  and  C_28
REMARK                            x       y       z     vdW  Elec       q    Type
REMARK                         _______ _______ _______ _____ _____    ______ ____
ROOT
ATOM      1  C   UNL     1      -0.019   1.542   0.011  0.00  0.00    +0.130 C 
ATOM      2  C   UNL     1       1.476   1.914  -0.002  0.00  0.00    +0.185 C 
ATOM      3  O   UNL     1       2.177   0.832   0.619  0.00  0.00    -0.370 OA
ATOM      4  C   UNL     1       1.380  -0.348   0.620  0.00  0.00    +0.170 C 
ATOM      5  C   UNL     1       0.002  -0.004   0.002  0.00  0.00    +0.171 C 
ATOM      6  O   UNL     1       0.089  -0.436  -1.374  0.00  0.00    -0.370 OA
ATOM      7  C   UNL     1       0.858  -1.656  -1.362  0.00  0.00    +0.183 C 
ATOM      8  C   UNL     1       1.976  -1.407  -0.326  0.00  0.00    +0.133 C 
ENDROOT
BRANCH   1  15
ATOM      9  C   UNL     1      -2.408   4.928   2.372  0.00  0.00    +0.052 A 
ATOM     10  C   UNL     1      -2.393   5.720   1.234  0.00  0.00    +0.043 A 
ATOM     11  C   UNL     1      -1.776   5.231   0.094  0.00  0.00    +0.116 A 
ATOM     12  N   UNL     1      -1.223   4.029   0.125  0.00  0.00    -0.223 NA
ATOM     13  C   UNL     1      -1.255   3.297   1.228  0.00  0.00    +0.216 A 
ATOM     14  N   UNL     1      -1.841   3.733   2.333  0.00  0.00    -0.219 NA
ATOM     15  N   UNL     1      -0.667   2.044   1.225  0.00  0.00    -0.306 N 
ATOM     16  H   UNL     1      -0.683   1.498   2.027  0.00  0.00    +0.149 HD
BRANCH   9  18
ATOM     17  C   UNL     1      -4.588   5.338   3.480  0.00  0.00    +0.017 C 
ATOM     18  C   UNL     1      -3.068   5.419   3.635  0.00  0.00    +0.005 C 
ATOM     19  C   UNL     1      -2.627   4.546   4.812  0.00  0.00    +0.017 C 
ATOM     20  C   UNL     1      -2.657   6.870   3.893  0.00  0.00    +0.017 C 
ENDBRANCH   9  18
ENDBRANCH   1  15
BRANCH   8  21
ATOM     21  N   UNL     1       2.280  -2.638   0.408  0.00  0.00    -0.182 NA
ATOM     22  H   UNL     1       1.706  -2.922   1.137  0.00  0.00    +0.148 HD
BRANCH  21  23
ATOM     23  S   UNL     1       3.602  -3.545  -0.007  0.00  0.00    +0.059 S 
ATOM     24  O   UNL     1       3.639  -4.644   0.893  0.00  0.00    -0.153 OA
ATOM     25  O   UNL     1       3.551  -3.716  -1.417  0.00  0.00    -0.153 OA
BRANCH  23  26
ATOM     26  C   UNL     1       5.030  -2.569   0.330  0.00  0.00    +0.106 A 
ATOM     27  C   UNL     1       5.546  -1.741  -0.665  0.00  0.00    +0.029 A 
ATOM     28  C   UNL     1       6.644  -0.970  -0.435  0.00  0.00    +0.010 A 
ATOM     29  C   UNL     1       7.276  -1.016   0.819  0.00  0.00    -0.018 A 
ATOM     30  C   UNL     1       8.415  -0.239   1.091  0.00  0.00    +0.008 A 
ATOM     31  C   UNL     1       9.001  -0.310   2.317  0.00  0.00    +0.001 A 
ATOM     32  C   UNL     1       8.488  -1.142   3.311  0.00  0.00    +0.001 A 
ATOM     33  C   UNL     1       7.386  -1.908   3.084  0.00  0.00    +0.008 A 
ATOM     34  C   UNL     1       6.754  -1.862   1.829  0.00  0.00    -0.016 A 
ATOM     35  C   UNL     1       5.615  -2.639   1.557  0.00  0.00    +0.037 A 
ENDBRANCH  23  26
ENDBRANCH  21  23
ENDBRANCH   8  21
TORSDOF 5
