REMARK  Name = ZINC39674203
REMARK  8 active torsions:
REMARK  status: ('A' for Active; 'I' for Inactive)
REMARK    1  A    between atoms: C_1  and  C_2
REMARK    2  A    between atoms: C_4  and  C_9
REMARK    3  A    between atoms: C_5  and  C_8
REMARK    4  A    between atoms: C_9  and  C_11
REMARK    5  A    between atoms: C_9  and  N_12
REMARK    6  A    between atoms: C_13  and  C_15
REMARK    7  A    between atoms: C_26  and  C_28
REMARK    8  A    between atoms: C_33  and  C_34
REMARK                            x       y       z     vdW  Elec       q    Type
REMARK                         _______ _______ _______ _____ _____    ______ ____
ROOT
ATOM      1  C   UNL     1       0.757   3.556  -4.327  0.00  0.00    +0.100 C 
ATOM      2  C   UNL     1      -0.689   3.845  -3.863  0.00  0.00    +0.121 C 
ATOM      3  N   UNL     1      -1.285   4.635  -4.966  0.00  0.00    -0.296 N 
ATOM      4  C   UNL     1      -0.757   4.004  -6.199  0.00  0.00    +0.115 C 
ATOM      5  C   UNL     1       0.708   3.660  -5.860  0.00  0.00    -0.004 C 
ATOM      6  C   UNL     1       1.096   2.328  -6.494  0.00  0.00    -0.010 C 
ATOM      7  C   UNL     1       1.097   2.473  -8.018  0.00  0.00    -0.082 C 
ATOM      8  N   UNL     1       2.047   3.520  -8.411  0.00  0.00    +0.379 N 
ATOM      9  C   UNL     1       1.615   4.816  -7.875  0.00  0.00    -0.082 C 
ATOM     10  C   UNL     1       1.636   4.770  -6.344  0.00  0.00    -0.010 C 
ATOM     11  C   UNL     1      -2.118   5.690  -4.869  0.00  0.00    +0.247 C 
ATOM     12  O   UNL     1      -2.597   6.179  -5.873  0.00  0.00    -0.270 OA
ATOM     13  H   UNL     1       2.962   3.296  -8.049  0.00  0.00    -0.086 HD
ATOM     14  H   UNL     1       2.091   3.572  -9.418  0.00  0.00    -0.086 HD
ENDROOT
BRANCH  11  15
ATOM     15  C   UNL     1      -2.450   6.251  -3.542  0.00  0.00    +0.049 A 
ATOM     16  C   UNL     1      -2.589   5.407  -2.439  0.00  0.00    +0.013 A 
ATOM     17  C   UNL     1      -2.898   5.937  -1.204  0.00  0.00    +0.001 A 
ATOM     18  C   UNL     1      -3.071   7.302  -1.057  0.00  0.00    +0.001 A 
ATOM     19  C   UNL     1      -2.936   8.144  -2.146  0.00  0.00    +0.013 A 
ATOM     20  C   UNL     1      -2.621   7.627  -3.386  0.00  0.00    +0.067 A 
BRANCH  20  21
ATOM     21  C   UNL     1      -2.467   8.546  -4.570  0.00  0.00    +0.418 C 
ATOM     22  F   UNL     1      -2.684   9.868  -4.166  0.00  0.00    -0.166 F 
ATOM     23  F   UNL     1      -1.175   8.424  -5.091  0.00  0.00    -0.166 F 
ATOM     24  F   UNL     1      -3.401   8.200  -5.553  0.00  0.00    -0.166 F 
ENDBRANCH  20  21
ENDBRANCH  11  15
BRANCH   1  26
ATOM     25  N   UNL     1       2.471   1.906  -3.650  0.00  0.00    -0.309 N 
ATOM     26  C   UNL     1       1.175   2.170  -3.909  0.00  0.00    +0.219 C 
ATOM     27  O   UNL     1       0.345   1.291  -3.805  0.00  0.00    -0.275 OA
ATOM     28  H   UNL     1       3.135   2.608  -3.732  0.00  0.00    +0.149 HD
BRANCH  25  29
ATOM     29  C   UNL     1       2.877   0.558  -3.243  0.00  0.00    +0.100 C 
ATOM     30  C   UNL     1       2.725   0.415  -1.727  0.00  0.00    +0.033 C 
BRANCH  29  33
ATOM     31  C   UNL     1       5.410   2.584  -3.744  0.00  0.00    +0.039 C 
ATOM     32  C   UNL     1       5.532   1.149  -3.229  0.00  0.00    +0.154 C 
ATOM     33  C   UNL     1       4.316   0.331  -3.627  0.00  0.00    -0.001 C 
ATOM     34  C   UNL     1       4.819  -0.638  -4.395  0.00  0.00    +0.063 C 
ATOM     35  N   UNL     1       6.160  -0.512  -4.511  0.00  0.00    -0.159 NA
ATOM     36  N   UNL     1       6.641   0.448  -3.897  0.00  0.00    -0.180 NA
ATOM     37  C   UNL     1       4.003  -1.725  -5.046  0.00  0.00    +0.067 C 
ENDBRANCH  29  33
ENDBRANCH  25  29
ENDBRANCH   1  26
TORSDOF 5
