REMARK  Name = ZINC06196767
REMARK  11 active torsions:
REMARK  status: ('A' for Active; 'I' for Inactive)
REMARK    1  A    between atoms: C_1  and  C_2
REMARK    2  A    between atoms: C_2  and  O_3
REMARK    3  A    between atoms: O_3  and  C_4
REMARK    4  A    between atoms: C_11  and  C_16
REMARK    5  A    between atoms: C_16  and  C_18
REMARK    6  A    between atoms: C_16  and  N_72
REMARK    7  A    between atoms: N_22  and  C_23
REMARK    8  A    between atoms: C_28  and  C_29
REMARK    9  A    between atoms: C_28  and  N_72
REMARK   10  A    between atoms: C_34  and  C_35
REMARK   11  A    between atoms: C_34  and  N_72
REMARK                            x       y       z     vdW  Elec       q    Type
REMARK                         _______ _______ _______ _____ _____    ______ ____
ROOT
ATOM      1  C   UNL     1       4.865   7.868  -0.373  0.00  0.00    +0.039 C 
ENDROOT
BRANCH   1   9
ATOM      2  C   UNL     1       5.083   1.673  -0.443  0.00  0.00    +0.121 A 
ATOM      3  C   UNL     1       6.472   1.573  -0.459  0.00  0.00    +0.047 A 
ATOM      4  C   UNL     1       7.258   2.704  -0.455  0.00  0.00    +0.030 A 
ATOM      5  C   UNL     1       6.665   3.962  -0.434  0.00  0.00    +0.049 A 
ATOM      6  C   UNL     1       5.261   4.068  -0.418  0.00  0.00    +0.002 A 
ATOM      7  C   UNL     1       4.474   2.912  -0.428  0.00  0.00    +0.055 A 
ATOM      8  C   UNL     1       4.650   5.399  -0.398  0.00  0.00    +0.017 A 
ATOM      9  C   UNL     1       5.462   6.485  -0.394  0.00  0.00    +0.011 A 
ATOM     10  C   UNL     1       6.864   6.324  -0.410  0.00  0.00    +0.251 A 
ATOM     11  O   UNL     1       7.575   7.314  -0.408  0.00  0.00    -0.268 OA
ATOM     12  N   UNL     1       7.435   5.107  -0.430  0.00  0.00    -0.322 N 
ATOM     13  H   UNL     1       8.432   5.031  -0.441  0.00  0.00    +0.169 HD
BRANCH   2  14
ATOM     14  O   UNL     1       4.323   0.546  -0.448  0.00  0.00    -0.492 OA
BRANCH  14  16
ATOM     15  C   UNL     1       4.001  -1.849  -0.471  0.00  0.00    +0.048 C 
ATOM     16  C   UNL     1       5.016  -0.704  -0.469  0.00  0.00    +0.225 C 
ENDBRANCH  14  16
ENDBRANCH   2  14
ENDBRANCH   1   9
BRANCH   1  17
ATOM     17  C   UNL     1       5.276   8.573   0.894  0.00  0.00    +0.143 A 
ATOM     18  N   UNL     1       6.500   8.804   1.299  0.00  0.00    -0.115 NA
ATOM     19  N   UNL     1       6.436   9.429   2.424  0.00  0.00    -0.023 NA
ATOM     20  N   UNL     1       5.202   9.603   2.747  0.00  0.00    -0.044 NA
ATOM     21  N   UNL     1       4.456   9.094   1.826  0.00  0.00    -0.227 N 
BRANCH  21  22
ATOM     22  C   UNL     1       2.991   9.082   1.801  0.00  0.00    +0.111 C 
ATOM     23  C   UNL     1       2.451  10.526   1.759  0.00  0.00    +0.027 C 
ATOM     24  C   UNL     1       1.181  10.483   2.644  0.00  0.00    +0.002 C 
ATOM     25  C   UNL     1       1.595   9.527   3.790  0.00  0.00    +0.002 C 
ATOM     26  C   UNL     1       2.447   8.446   3.092  0.00  0.00    +0.027 C 
ENDBRANCH  21  22
ENDBRANCH   1  17
BRANCH   1  27
ATOM     27  N   UNL     1       5.376   8.626  -1.535  0.00  0.00    +0.396 N 
ATOM     28  H   UNL     1       6.400   8.559  -1.552  0.00  0.00    -0.080 HD
BRANCH  27  29
ATOM     29  C   UNL     1       4.837   8.054  -2.787  0.00  0.00    -0.002 C 
BRANCH  29  30
ATOM     30  C   UNL     1       5.626   6.816  -3.130  0.00  0.00    +0.089 A 
ATOM     31  C   UNL     1       5.125   5.573  -3.252  0.00  0.00    +0.042 A 
ATOM     32  C   UNL     1       6.208   4.726  -3.583  0.00  0.00    +0.041 A 
ATOM     33  C   UNL     1       7.307   5.501  -3.635  0.00  0.00    +0.195 A 
ATOM     34  O   UNL     1       6.948   6.765  -3.360  0.00  0.00    -0.470 OA
ENDBRANCH  29  30
ENDBRANCH  27  29
BRANCH  27  35
ATOM     35  C   UNL     1       4.988  10.047  -1.421  0.00  0.00    -0.045 C 
BRANCH  35  36
ATOM     36  C   UNL     1       6.107  10.800  -0.699  0.00  0.00    +0.102 C 
ATOM     37  C   UNL     1       5.768  12.304  -0.603  0.00  0.00    +0.032 C 
ATOM     38  C   UNL     1       7.130  13.009  -0.797  0.00  0.00    +0.030 C 
ATOM     39  C   UNL     1       8.130  11.847  -0.988  0.00  0.00    +0.160 C 
ATOM     40  O   UNL     1       7.328  10.745  -1.467  0.00  0.00    -0.378 OA
ENDBRANCH  35  36
ENDBRANCH  27  35
ENDBRANCH   1  27
TORSDOF 10
