REMARK  Name = ZINC05816237
REMARK  4 active torsions:
REMARK  status: ('A' for Active; 'I' for Inactive)
REMARK    1  A    between atoms: C_3  and  C_9
REMARK    2  A    between atoms: N_10  and  N_11
REMARK    3  A    between atoms: N_11  and  C_12
REMARK    4  A    between atoms: C_13  and  C_18
REMARK                            x       y       z     vdW  Elec       q    Type
REMARK                         _______ _______ _______ _____ _____    ______ ____
ROOT
ATOM      1  C   UNL     1       1.250  -2.157  -0.022  0.00  0.00    +0.139 C 
ATOM      2  N   UNL     1       2.386  -2.785  -0.036  0.00  0.00    -0.189 NA
ENDROOT
BRANCH   1   5
ATOM      3  C   UNL     1      -0.017   1.375   0.010  0.00  0.00    +0.021 A 
ATOM      4  C   UNL     1       0.002  -0.004   0.002  0.00  0.00    +0.012 A 
ATOM      5  C   UNL     1       1.223  -0.683  -0.013  0.00  0.00    +0.013 A 
ATOM      6  C   UNL     1       2.419   0.042  -0.021  0.00  0.00    +0.051 A 
ATOM      7  C   UNL     1       2.385   1.421  -0.013  0.00  0.00    +0.040 A 
ATOM      8  C   UNL     1       1.171   2.087   0.002  0.00  0.00    +0.042 A 
ATOM      9 CL   UNL     1       1.137   3.823   0.011  0.00  0.00    -0.083 Cl
ATOM     10 CL   UNL     1       3.941  -0.792  -0.040  0.00  0.00    -0.083 Cl
ENDBRANCH   1   5
BRANCH   2  11
ATOM     11  N   UNL     1       2.413  -4.186  -0.044  0.00  0.00    -0.228 N 
ATOM     12  H   UNL     1       1.582  -4.686  -0.040  0.00  0.00    +0.175 HD
BRANCH  11  13
ATOM     13  C   UNL     1       3.621  -4.854  -0.059  0.00  0.00    +0.124 A 
ATOM     14  C   UNL     1       3.865  -6.232  -0.064  0.00  0.00    +0.120 A 
ATOM     15  C   UNL     1       5.210  -6.596  -0.083  0.00  0.00    +0.157 A 
ATOM     16  N   UNL     1       6.118  -5.659  -0.086  0.00  0.00    -0.196 NA
ATOM     17  S   UNL     1       5.226  -4.203  -0.070  0.00  0.00    +0.031 S 
ATOM     18 CL   UNL     1       5.670  -8.270  -0.096  0.00  0.00    -0.060 Cl
BRANCH  14  19
ATOM     19  C   UNL     1       2.809  -7.198  -0.053  0.00  0.00    +0.105 C 
ATOM     20  N   UNL     1       1.971  -7.965  -0.044  0.00  0.00    -0.191 NA
ENDBRANCH  14  19
ENDBRANCH  11  13
ENDBRANCH   2  11
TORSDOF 4
