REMARK  Name = ZINC20703993
REMARK  2 active torsions:
REMARK  status: ('A' for Active; 'I' for Inactive)
REMARK    1  A    between atoms: C_9  and  C_18
REMARK    2  A    between atoms: C_22  and  N_24
REMARK                            x       y       z     vdW  Elec       q    Type
REMARK                         _______ _______ _______ _____ _____    ______ ____
ROOT
ATOM      1  C   UNL     1       2.722   2.213  -0.472  0.00  0.00    +0.002 A 
ATOM      2  C   UNL     1       3.662   1.201  -0.414  0.00  0.00    +0.006 A 
ATOM      3  C   UNL     1       3.269  -0.114  -0.279  0.00  0.00    -0.018 A 
ATOM      4  C   UNL     1       1.913  -0.444  -0.217  0.00  0.00    +0.050 A 
ATOM      5  C   UNL     1       0.975   0.589  -0.270  0.00  0.00    +0.062 A 
ATOM      6  C   UNL     1       1.377   1.901  -0.396  0.00  0.00    +0.022 A 
ATOM      7 CL   UNL     1      -0.718   0.217  -0.175  0.00  0.00    -0.082 Cl
ATOM      8  N   UNL     1       1.431  -1.749  -0.127  0.00  0.00    -0.335 N 
ATOM      9  C   UNL     1       2.432  -2.815   0.037  0.00  0.00    +0.105 C 
ATOM     10  C   UNL     1       3.608  -2.462  -0.850  0.00  0.00    +0.029 C 
ATOM     11  C   UNL     1       4.252  -1.213  -0.173  0.00  0.00    +0.049 C 
ATOM     12  C   UNL     1       5.597  -1.149  -0.795  0.00  0.00    -0.023 C 
ATOM     13  C   UNL     1       5.961  -2.380  -1.141  0.00  0.00    -0.030 C 
ATOM     14  C   UNL     1       4.843  -3.369  -0.799  0.00  0.00    +0.033 C 
ATOM     15  H   UNL     1       0.361  -2.002  -0.172  0.00  0.00    +0.147 HD
ENDROOT
BRANCH   9  16
ATOM     16  C   UNL     1       2.877  -2.885   1.475  0.00  0.00    -0.025 A 
ATOM     17  C   UNL     1       2.761  -1.774   2.289  0.00  0.00    +0.007 A 
ATOM     18  C   UNL     1       3.169  -1.838   3.608  0.00  0.00    +0.022 A 
ATOM     19  C   UNL     1       3.693  -3.014   4.114  0.00  0.00    +0.071 A 
ATOM     20  C   UNL     1       3.808  -4.126   3.299  0.00  0.00    +0.145 A 
ATOM     21  C   UNL     1       3.394  -4.063   1.982  0.00  0.00    +0.039 A 
ATOM     22 CL   UNL     1       4.204  -3.095   5.771  0.00  0.00    -0.081 Cl
BRANCH  20  23
ATOM     23  N   UNL     1       4.367  -5.385   3.840  0.00  0.00    +0.058 N 
ATOM     24  O   UNL     1       4.468  -6.364   3.122  0.00  0.00    -0.126 OA
ATOM     25  O   UNL     1       4.726  -5.443   5.002  0.00  0.00    -0.126 OA
ENDBRANCH  20  23
ENDBRANCH   9  16
TORSDOF 2
