REMARK  Name = ZINC04436262
REMARK  5 active torsions:
REMARK  status: ('A' for Active; 'I' for Inactive)
REMARK    1  A    between atoms: C_2  and  C_3
REMARK    2  A    between atoms: C_3  and  S_4
REMARK    3  A    between atoms: S_4  and  C_5
REMARK    4  A    between atoms: C_10  and  C_20
REMARK    5  A    between atoms: C_23  and  O_26
REMARK                            x       y       z     vdW  Elec       q    Type
REMARK                         _______ _______ _______ _____ _____    ______ ____
ROOT
ATOM      1  C   UNL     1       3.071  -2.467   1.357  0.00  0.00    +0.211 A 
ATOM      2  N   UNL     1       3.888  -2.357   0.300  0.00  0.00    -0.187 NA
ATOM      3  C   UNL     1       4.962  -3.071   0.502  0.00  0.00    +0.219 A 
ATOM      4  N   UNL     1       4.848  -3.670   1.714  0.00  0.00    -0.220 N 
ATOM      5  N   UNL     1       3.627  -3.260   2.248  0.00  0.00    -0.141 NA
ATOM      6  C   UNL     1       5.863  -4.556   2.268  0.00  0.00    +0.175 C 
ATOM      7  C   UNL     1       7.149  -4.427   1.482  0.00  0.00    +0.041 C 
ATOM      8  C   UNL     1       7.196  -3.817   0.279  0.00  0.00    +0.020 C 
ATOM      9  N   UNL     1       6.078  -3.261  -0.295  0.00  0.00    -0.287 N 
ATOM     10  C   UNL     1       8.490  -3.725  -0.494  0.00  0.00    +0.052 C 
ATOM     11  C   UNL     1       9.666  -3.639   0.481  0.00  0.00    +0.014 C 
ATOM     12  C   UNL     1       9.644  -4.885   1.374  0.00  0.00    +0.080 C 
ATOM     13  C   UNL     1       8.310  -4.970   2.061  0.00  0.00    +0.163 C 
ATOM     14  O   UNL     1       8.233  -5.521   3.142  0.00  0.00    -0.292 OA
ATOM     15  H   UNL     1       6.071  -3.008  -1.232  0.00  0.00    +0.155 HD
ENDROOT
BRANCH   6  16
ATOM     16  C   UNL     1       5.376  -5.981   2.196  0.00  0.00    -0.018 A 
ATOM     17  C   UNL     1       5.076  -6.546   0.970  0.00  0.00    +0.009 A 
ATOM     18  C   UNL     1       4.630  -7.851   0.901  0.00  0.00    +0.046 A 
ATOM     19  C   UNL     1       4.482  -8.595   2.062  0.00  0.00    +0.117 A 
ATOM     20  C   UNL     1       4.784  -8.026   3.291  0.00  0.00    +0.046 A 
ATOM     21  C   UNL     1       5.235  -6.722   3.354  0.00  0.00    +0.009 A 
BRANCH  19  22
ATOM     22  O   UNL     1       4.042  -9.880   1.997  0.00  0.00    -0.507 OA
ATOM     23  H   UNL     1       4.749 -10.533   1.903  0.00  0.00    +0.292 HD
ENDBRANCH  19  22
ENDBRANCH   6  16
BRANCH   1  24
ATOM     24  S   UNL     1       1.507  -1.674   1.529  0.00  0.00    -0.080 S 
BRANCH  24  25
ATOM     25  C   UNL     1       1.317  -0.740  -0.015  0.00  0.00    +0.104 C 
BRANCH  25  27
ATOM     26  C   UNL     1      -0.016   1.306   0.009  0.00  0.00    +0.005 C 
ATOM     27  C   UNL     1       0.002  -0.004   0.002  0.00  0.00    -0.023 C 
ENDBRANCH  25  27
ENDBRANCH  24  25
ENDBRANCH   1  24
TORSDOF 5
