REMARK  Name = ZINC39596101
REMARK  8 active torsions:
REMARK  status: ('A' for Active; 'I' for Inactive)
REMARK    1  A    between atoms: C_1  and  C_2
REMARK    2  A    between atoms: C_5  and  C_10
REMARK    3  A    between atoms: C_14  and  C_23
REMARK    4  A    between atoms: N_25  and  C_26
REMARK    5  A    between atoms: C_26  and  C_27
REMARK    6  A    between atoms: C_27  and  C_29
REMARK    7  A    between atoms: C_27  and  O_30
REMARK    8  A    between atoms: O_30  and  C_31
REMARK                            x       y       z     vdW  Elec       q    Type
REMARK                         _______ _______ _______ _____ _____    ______ ____
ROOT
ATOM      1  C   UNL     1       1.291  -4.610   0.794  0.00  0.00    +0.250 C 
ATOM      2  O   UNL     1       1.611  -5.282   1.755  0.00  0.00    -0.270 OA
ATOM      3  N   UNL     1       0.970  -5.208  -0.370  0.00  0.00    -0.296 N 
ATOM      4  C   UNL     1       0.662  -4.563  -1.668  0.00  0.00    +0.121 C 
ATOM      5  C   UNL     1       1.336  -5.467  -2.724  0.00  0.00    +0.100 C 
ATOM      6  C   UNL     1       1.453  -6.842  -2.045  0.00  0.00    -0.004 C 
ATOM      7  C   UNL     1       0.853  -6.660  -0.643  0.00  0.00    +0.115 C 
ATOM      8  C   UNL     1       2.917  -7.255  -1.936  0.00  0.00    -0.010 C 
ATOM      9  C   UNL     1       3.005  -8.650  -1.310  0.00  0.00    -0.082 C 
ATOM     10  N   UNL     1       2.266  -9.608  -2.142  0.00  0.00    +0.379 N 
ATOM     11  C   UNL     1       0.841  -9.256  -2.166  0.00  0.00    -0.082 C 
ATOM     12  C   UNL     1       0.662  -7.887  -2.827  0.00  0.00    -0.010 C 
ATOM     13  H   UNL     1       2.632  -9.588  -3.082  0.00  0.00    -0.086 HD
ATOM     14  H   UNL     1       2.376 -10.536  -1.761  0.00  0.00    -0.086 HD
ENDROOT
BRANCH   1  19
ATOM     15  C   UNL     1       1.140   1.130   1.213  0.00  0.00    +0.047 C 
ATOM     16  C   UNL     1       1.181  -0.373   1.105  0.00  0.00    -0.012 A 
ATOM     17  C   UNL     1       0.266  -1.031   0.302  0.00  0.00    +0.007 A 
ATOM     18  C   UNL     1       0.296  -2.405   0.197  0.00  0.00    +0.016 A 
ATOM     19  C   UNL     1       1.254  -3.137   0.902  0.00  0.00    +0.075 A 
ATOM     20  C   UNL     1       2.177  -2.469   1.712  0.00  0.00    +0.171 A 
ATOM     21  C   UNL     1       2.138  -1.087   1.804  0.00  0.00    +0.162 A 
ATOM     22  F   UNL     1       3.032  -0.437   2.581  0.00  0.00    -0.202 F 
ATOM     23  F   UNL     1       3.107  -3.168   2.399  0.00  0.00    -0.202 F 
ENDBRANCH   1  19
BRANCH   5  24
ATOM     24  C   UNL     1       2.701  -4.935  -3.076  0.00  0.00    +0.218 C 
ATOM     25  O   UNL     1       3.357  -4.348  -2.242  0.00  0.00    -0.275 OA
ATOM     26  N   UNL     1       3.194  -5.112  -4.318  0.00  0.00    -0.312 N 
ATOM     27  H   UNL     1       2.669  -5.582  -4.985  0.00  0.00    +0.149 HD
BRANCH  26  28
ATOM     28  C   UNL     1       4.521  -4.595  -4.660  0.00  0.00    +0.148 C 
BRANCH  28  29
ATOM     29  C   UNL     1       4.837  -4.928  -6.120  0.00  0.00    +0.187 C 
ATOM     30  C   UNL     1       6.223  -4.388  -6.477  0.00  0.00    +0.053 C 
BRANCH  29  31
ATOM     31  O   UNL     1       4.817  -6.346  -6.300  0.00  0.00    -0.488 OA
BRANCH  31  32
ATOM     32  C   UNL     1       4.561  -6.804  -7.554  0.00  0.00    +0.121 A 
ATOM     33  C   UNL     1       4.407  -8.165  -7.777  0.00  0.00    +0.048 A 
ATOM     34  C   UNL     1       4.147  -8.630  -9.052  0.00  0.00    +0.042 A 
ATOM     35  C   UNL     1       4.041  -7.739 -10.106  0.00  0.00    +0.124 A 
ATOM     36  C   UNL     1       4.196  -6.381  -9.885  0.00  0.00    +0.042 A 
ATOM     37  C   UNL     1       4.449  -5.912  -8.610  0.00  0.00    +0.048 A 
ATOM     38  F   UNL     1       3.788  -8.195 -11.352  0.00  0.00    -0.205 F 
ENDBRANCH  31  32
ENDBRANCH  29  31
ENDBRANCH  28  29
ENDBRANCH  26  28
ENDBRANCH   5  24
TORSDOF 6
