REMARK  Name = ZINC05970391
REMARK  9 active torsions:
REMARK  status: ('A' for Active; 'I' for Inactive)
REMARK    1  A    between atoms: C_1  and  C_2
REMARK    2  A    between atoms: C_5  and  O_11
REMARK    3  A    between atoms: C_6  and  N_8
REMARK    4  A    between atoms: O_11  and  C_12
REMARK    5  A    between atoms: C_12  and  C_14
REMARK    6  A    between atoms: C_12  and  C_15
REMARK    7  A    between atoms: N_17  and  C_18
REMARK    8  A    between atoms: C_23  and  C_28
REMARK    9  A    between atoms: C_25  and  C_27
REMARK                            x       y       z     vdW  Elec       q    Type
REMARK                         _______ _______ _______ _____ _____    ______ ____
ROOT
ATOM      1  C   UNL     1       0.701   1.891   4.743  0.00  0.00    +0.256 C 
ATOM      2  C   UNL     1       0.415   0.396   4.903  0.00  0.00    +0.062 C 
ENDROOT
BRANCH   1   3
ATOM      3  C   UNL     1      -0.105   2.436   3.592  0.00  0.00    +0.254 C 
ATOM      4  O   UNL     1      -0.909   3.323   3.781  0.00  0.00    -0.272 OA
ATOM      5  N   UNL     1       0.069   1.936   2.352  0.00  0.00    -0.309 N 
ATOM      6  H   UNL     1       0.712   1.226   2.201  0.00  0.00    +0.149 HD
BRANCH   5   7
ATOM      7  C   UNL     1      -0.715   2.466   1.233  0.00  0.00    +0.076 C 
ATOM      8  C   UNL     1      -2.066   1.751   1.173  0.00  0.00    +0.022 C 
ATOM      9  C   UNL     1      -2.884   2.305   0.004  0.00  0.00    +0.002 C 
ATOM     10  C   UNL     1      -2.126   2.072  -1.304  0.00  0.00    +0.003 C 
ATOM     11  C   UNL     1      -0.774   2.787  -1.244  0.00  0.00    -0.009 C 
ATOM     12  C   UNL     1       0.044   2.234  -0.075  0.00  0.00    +0.009 C 
ATOM     13  C   UNL     1       0.269   0.734  -0.275  0.00  0.00    +0.009 C 
ATOM     14  C   UNL     1      -0.016   2.555  -2.553  0.00  0.00    +0.008 C 
ENDBRANCH   5   7
ENDBRANCH   1   3
BRANCH   1  15
ATOM     15  O   UNL     1       0.340   2.576   5.944  0.00  0.00    -0.476 OA
BRANCH  15  20
ATOM     16  C   UNL     1       4.066   2.817  10.099  0.00  0.00    +0.065 C 
ATOM     17  C   UNL     1       3.076   2.737   8.966  0.00  0.00    +0.041 A 
ATOM     18  C   UNL     1       3.376   1.977   7.851  0.00  0.00    +0.027 A 
ATOM     19  C   UNL     1       2.461   1.908   6.813  0.00  0.00    +0.051 A 
ATOM     20  C   UNL     1       1.268   2.613   6.936  0.00  0.00    +0.170 A 
ATOM     21  C   UNL     1       1.041   3.359   8.083  0.00  0.00    +0.257 A 
ATOM     22  N   UNL     1       1.936   3.393   9.051  0.00  0.00    -0.226 NA
BRANCH  21  23
ATOM     23  N   UNL     1      -0.114   4.055   8.214  0.00  0.00    +0.079 N 
ATOM     24  O   UNL     1      -0.948   4.023   7.326  0.00  0.00    -0.124 OA
ATOM     25  O   UNL     1      -0.320   4.712   9.219  0.00  0.00    -0.124 OA
ENDBRANCH  21  23
ENDBRANCH  15  20
ENDBRANCH   1  15
TORSDOF 5
