REMARK  Name = ZINC44979154
REMARK  6 active torsions:
REMARK  status: ('A' for Active; 'I' for Inactive)
REMARK    1  A    between atoms: C_1  and  C_2
REMARK    2  A    between atoms: C_7  and  C_10
REMARK    3  A    between atoms: C_16  and  C_18
REMARK    4  A    between atoms: C_18  and  C_19
REMARK    5  A    between atoms: C_18  and  C_20
REMARK    6  A    between atoms: C_18  and  C_21
REMARK                            x       y       z     vdW  Elec       q    Type
REMARK                         _______ _______ _______ _____ _____    ______ ____
ROOT
ATOM      1  C   UNL     1       2.906  -0.480   2.452  0.00  0.00    +0.113 A 
ATOM      2  N   UNL     1       2.791   0.197   3.611  0.00  0.00    -0.311 N 
ATOM      3  H   UNL     1       2.243   0.996   3.653  0.00  0.00    +0.170 HD
ATOM      4  C   UNL     1       3.438  -0.238   4.713  0.00  0.00    +0.252 A 
ATOM      5  O   UNL     1       3.343   0.364   5.769  0.00  0.00    -0.268 OA
ATOM      6  C   UNL     1       4.226  -1.404   4.616  0.00  0.00    +0.094 A 
ATOM      7  C   UNL     1       4.301  -2.042   3.415  0.00  0.00    +0.054 A 
ATOM      8  N   UNL     1       3.632  -1.563   2.364  0.00  0.00    -0.238 NA
ENDROOT
BRANCH   1  14
ATOM      9  C   UNL     1      -0.019   1.526   0.010  0.00  0.00    +0.007 C 
ATOM     10  C   UNL     1       0.002  -0.004   0.002  0.00  0.00    -0.013 C 
ATOM     11  C   UNL     1       0.718  -0.497  -1.257  0.00  0.00    +0.003 C 
ATOM     12  C   UNL     1       2.154   0.032  -1.268  0.00  0.00    +0.001 C 
ATOM     13  C   UNL     1       2.894  -0.475  -0.028  0.00  0.00    +0.011 C 
ATOM     14  C   UNL     1       2.178   0.019   1.231  0.00  0.00    +0.055 C 
ATOM     15  C   UNL     1       0.742  -0.511   1.242  0.00  0.00    +0.014 C 
ENDBRANCH   1  14
BRANCH   7  16
ATOM     16  C   UNL     1       5.133  -3.291   3.275  0.00  0.00    +0.005 C 
ATOM     17  C   UNL     1       5.783  -3.624   4.620  0.00  0.00    +0.017 C 
ATOM     18  C   UNL     1       4.239  -4.454   2.840  0.00  0.00    +0.017 C 
ATOM     19  C   UNL     1       6.222  -3.063   2.225  0.00  0.00    +0.017 C 
ENDBRANCH   7  16
TORSDOF 2
