REMARK  Name = ZINC39914020
REMARK  17 active torsions:
REMARK  status: ('A' for Active; 'I' for Inactive)
REMARK    1  A    between atoms: C_1  and  C_2
REMARK    2  A    between atoms: C_2  and  O_3
REMARK    3  A    between atoms: O_3  and  C_4
REMARK    4  A    between atoms: C_6  and  C_16
REMARK    5  A    between atoms: C_9  and  O_10
REMARK    6  A    between atoms: O_10  and  C_11
REMARK    7  A    between atoms: C_11  and  C_12
REMARK    8  A    between atoms: C_12  and  C_13
REMARK    9  A    between atoms: C_13  and  C_14
REMARK   10  A    between atoms: C_13  and  C_15
REMARK   11  A    between atoms: C_19  and  C_31
REMARK   12  A    between atoms: N_26  and  C_27
REMARK   13  A    between atoms: C_27  and  C_28
REMARK   14  A    between atoms: C_28  and  C_29
REMARK   15  A    between atoms: C_29  and  O_30
REMARK   16  A    between atoms: C_34  and  C_38
REMARK   17  A    between atoms: C_36  and  O_37
REMARK                            x       y       z     vdW  Elec       q    Type
REMARK                         _______ _______ _______ _____ _____    ______ ____
ROOT
ATOM      1  C   UNL     1       0.144  -4.974  -0.004  0.00  0.00    +0.141 C 
ATOM      2  C   UNL     1       0.786  -5.334  -1.315  0.00  0.00    +0.035 A 
ATOM      3  C   UNL     1       1.390  -4.886  -2.495  0.00  0.00    +0.102 A 
ATOM      4  N   UNL     1       1.706  -5.951  -3.205  0.00  0.00    -0.173 NA
ATOM      5  N   UNL     1       1.361  -7.027  -2.591  0.00  0.00    -0.272 N 
ATOM      6  H   UNL     1       1.496  -7.927  -2.926  0.00  0.00    +0.189 HD
ATOM      7  C   UNL     1       0.777  -6.713  -1.397  0.00  0.00    +0.126 A 
ATOM      8  C   UNL     1       0.151  -7.248  -0.182  0.00  0.00    +0.265 C 
ATOM      9  O   UNL     1      -0.009  -8.431   0.053  0.00  0.00    -0.268 OA
ATOM     10  N   UNL     1      -0.220  -6.245   0.635  0.00  0.00    -0.285 N 
ENDROOT
BRANCH   3  11
ATOM     11  C   UNL     1       1.631  -3.473  -2.877  0.00  0.00    +0.045 A 
ATOM     12  C   UNL     1       1.361  -2.448  -1.973  0.00  0.00    +0.034 A 
ATOM     13  C   UNL     1       1.586  -1.134  -2.333  0.00  0.00    +0.045 A 
ATOM     14  C   UNL     1       2.081  -0.832  -3.591  0.00  0.00    -0.029 A 
ATOM     15  C   UNL     1       2.352  -1.841  -4.495  0.00  0.00    +0.050 A 
ATOM     16  C   UNL     1       2.135  -3.164  -4.143  0.00  0.00    +0.126 A 
ATOM     17  C   UNL     1       2.324   0.605  -3.976  0.00  0.00    +0.045 C 
ATOM     18 CL   UNL     1       1.248   0.142  -1.206  0.00  0.00    -0.083 Cl
BRANCH  16  19
ATOM     19  O   UNL     1       2.407  -4.158  -5.029  0.00  0.00    -0.506 OA
ATOM     20  H   UNL     1       1.662  -4.390  -5.600  0.00  0.00    +0.292 HD
ENDBRANCH  16  19
ENDBRANCH   3  11
BRANCH   1  23
ATOM     21  C   UNL     1      -3.345  -3.951  -1.030  0.00  0.00    +0.162 A 
ATOM     22  C   UNL     1      -2.210  -4.715  -0.811  0.00  0.00    +0.055 A 
ATOM     23  C   UNL     1      -1.089  -4.141  -0.241  0.00  0.00    -0.019 A 
ATOM     24  C   UNL     1      -1.097  -2.804   0.112  0.00  0.00    +0.009 A 
ATOM     25  C   UNL     1      -2.226  -2.036  -0.103  0.00  0.00    +0.050 A 
ATOM     26  C   UNL     1      -3.351  -2.604  -0.680  0.00  0.00    +0.162 A 
BRANCH  21  27
ATOM     27  O   UNL     1      -4.448  -4.514  -1.591  0.00  0.00    -0.489 OA
BRANCH  27  29
ATOM     28  C   UNL     1      -5.768  -6.390  -2.351  0.00  0.00    +0.048 C 
ATOM     29  C   UNL     1      -4.410  -5.923  -1.823  0.00  0.00    +0.226 C 
ENDBRANCH  27  29
ENDBRANCH  21  27
BRANCH  26  30
ATOM     30  O   UNL     1      -4.460  -1.848  -0.897  0.00  0.00    -0.488 OA
BRANCH  30  31
ATOM     31  C   UNL     1      -4.395  -0.473  -0.513  0.00  0.00    +0.229 C 
BRANCH  31  32
ATOM     32  C   UNL     1      -5.726   0.210  -0.833  0.00  0.00    +0.044 C 
BRANCH  32  33
ATOM     33  C   UNL     1      -5.655   1.682  -0.421  0.00  0.00    -0.014 C 
ATOM     34  C   UNL     1      -4.614   2.402  -1.280  0.00  0.00    +0.007 C 
ATOM     35  C   UNL     1      -7.024   2.334  -0.625  0.00  0.00    +0.007 C 
ENDBRANCH  32  33
ENDBRANCH  31  32
ENDBRANCH  30  31
ENDBRANCH  26  30
ENDBRANCH   1  23
BRANCH  10  36
ATOM     36  C   UNL     1      -0.874  -6.395   1.938  0.00  0.00    +0.111 C 
BRANCH  36  37
ATOM     37  C   UNL     1      -2.392  -6.401   1.749  0.00  0.00    +0.047 C 
BRANCH  37  38
ATOM     38  C   UNL     1      -3.075  -6.557   3.109  0.00  0.00    +0.157 C 
BRANCH  38  39
ATOM     39  O   UNL     1      -4.493  -6.562   2.932  0.00  0.00    -0.395 OA
ATOM     40  H   UNL     1      -4.991  -6.658   3.755  0.00  0.00    +0.209 HD
ENDBRANCH  38  39
ENDBRANCH  37  38
ENDBRANCH  36  37
ENDBRANCH  10  36
TORSDOF 13
