REMARK  Name = ZINC09181965
REMARK  11 active torsions:
REMARK  status: ('A' for Active; 'I' for Inactive)
REMARK    1  A    between atoms: C_1  and  C_2
REMARK    2  A    between atoms: C_2  and  C_3
REMARK    3  A    between atoms: C_4  and  C_32
REMARK    4  A    between atoms: N_10  and  C_25
REMARK    5  A    between atoms: C_11  and  S_13
REMARK    6  A    between atoms: S_13  and  C_14
REMARK    7  A    between atoms: C_14  and  C_16
REMARK    8  A    between atoms: C_14  and  C_19
REMARK    9  A    between atoms: C_16  and  C_17
REMARK   10  A    between atoms: C_16  and  C_18
REMARK   11  A    between atoms: C_25  and  C_26
REMARK                            x       y       z     vdW  Elec       q    Type
REMARK                         _______ _______ _______ _____ _____    ______ ____
ROOT
ATOM      1  C   UNL     1       2.262   0.838  -0.015  0.00  0.00    -0.023 A 
ATOM      2  C   UNL     1       1.735   2.071  -0.003  0.00  0.00    -0.007 A 
ATOM      3  S   UNL     1      -0.022   1.770   0.012  0.00  0.00    -0.073 S 
ATOM      4  C   UNL     1       0.002  -0.004   0.002  0.00  0.00    +0.117 A 
ATOM      5  C   UNL     1       1.375  -0.313  -0.013  0.00  0.00    +0.076 A 
ATOM      6  C   UNL     1       1.700  -1.706  -0.024  0.00  0.00    +0.263 A 
ATOM      7  O   UNL     1       2.864  -2.069  -0.037  0.00  0.00    -0.267 OA
ATOM      8  N   UNL     1       0.704  -2.611  -0.020  0.00  0.00    -0.285 N 
ATOM      9  C   UNL     1      -0.605  -2.224  -0.005  0.00  0.00    +0.173 A 
ATOM     10  N   UNL     1      -0.932  -0.947   0.005  0.00  0.00    -0.216 NA
ATOM     11  C   UNL     1       2.456   3.394  -0.004  0.00  0.00    +0.052 C 
ENDROOT
BRANCH   1  13
ATOM     12  C   UNL     1       4.249   0.592  -1.479  0.00  0.00    +0.009 C 
ATOM     13  C   UNL     1       3.757   0.648  -0.031  0.00  0.00    +0.033 C 
ENDBRANCH   1  13
BRANCH   9  14
ATOM     14  S   UNL     1      -1.873  -3.446   0.000  0.00  0.00    -0.075 S 
BRANCH  14  15
ATOM     15  C   UNL     1      -3.337  -2.381   0.020  0.00  0.00    +0.143 C 
BRANCH  15  16
ATOM     16  C   UNL     1      -4.577  -3.229  -0.097  0.00  0.00    +0.234 C 
ATOM     17  O   UNL     1      -4.555  -4.387   0.261  0.00  0.00    -0.274 OA
ATOM     18  N   UNL     1      -5.710  -2.700  -0.599  0.00  0.00    -0.239 N 
ATOM     19  C   UNL     1      -6.819  -3.458  -0.704  0.00  0.00    +0.303 C 
ATOM     20  O   UNL     1      -6.798  -4.619  -0.345  0.00  0.00    -0.253 OA
ATOM     21  N   UNL     1      -7.952  -2.929  -1.206  0.00  0.00    -0.313 N 
ATOM     22  H   UNL     1      -5.727  -1.773  -0.885  0.00  0.00    +0.159 HD
ATOM     23  H   UNL     1      -7.970  -2.002  -1.492  0.00  0.00    +0.146 HD
ATOM     24  H   UNL     1      -8.751  -3.475  -1.281  0.00  0.00    +0.146 HD
ENDBRANCH  15  16
BRANCH  15  25
ATOM     25  C   UNL     1      -3.378  -1.595   1.332  0.00  0.00    +0.005 C 
ATOM     26  C   UNL     1      -4.614  -0.695   1.349  0.00  0.00    +0.009 C 
ATOM     27  C   UNL     1      -3.441  -2.571   2.509  0.00  0.00    +0.009 C 
ENDBRANCH  15  25
ENDBRANCH  14  15
ENDBRANCH   9  14
BRANCH   8  28
ATOM     28  C   UNL     1       1.030  -4.039  -0.032  0.00  0.00    +0.159 C 
BRANCH  28  29
ATOM     29  C   UNL     1       1.130  -4.527  -1.479  0.00  0.00    +0.138 C 
ATOM     30  C   UNL     1       1.405  -6.052  -1.514  0.00  0.00    +0.035 C 
ATOM     31  C   UNL     1       0.837  -6.421  -2.912  0.00  0.00    +0.031 C 
ATOM     32  C   UNL     1      -0.355  -5.450  -3.048  0.00  0.00    +0.160 C 
ATOM     33  O   UNL     1      -0.128  -4.357  -2.150  0.00  0.00    -0.375 OA
ENDBRANCH  28  29
ENDBRANCH   8  28
TORSDOF 7
