REMARK  Name = ZINC65229086
REMARK  3 active torsions:
REMARK  status: ('A' for Active; 'I' for Inactive)
REMARK    1  A    between atoms: C_6  and  N_7
REMARK    2  A    between atoms: C_10  and  N_14
REMARK    3  A    between atoms: N_17  and  C_18
REMARK                            x       y       z     vdW  Elec       q    Type
REMARK                         _______ _______ _______ _____ _____    ______ ____
ROOT
ATOM      1  N   UNL     1      -4.489  -0.995   1.144  0.00  0.00    -0.288 N 
ATOM      2  C   UNL     1      -5.571  -0.237   0.877  0.00  0.00    +0.304 C 
ATOM      3  O   UNL     1      -5.724   0.235  -0.233  0.00  0.00    -0.252 OA
ATOM      4  N   UNL     1      -6.483  -0.002   1.841  0.00  0.00    -0.269 N 
ATOM      5  H   UNL     1      -4.367  -1.372   2.029  0.00  0.00    +0.151 HD
ATOM      6  H   UNL     1      -6.323  -0.311   2.746  0.00  0.00    +0.156 HD
ENDROOT
BRANCH   4   7
ATOM      7  C   UNL     1      -7.663   0.689   1.535  0.00  0.00    +0.038 A 
ATOM      8  C   UNL     1      -8.229   1.546   2.470  0.00  0.00    +0.027 A 
ATOM      9  C   UNL     1      -9.393   2.226   2.169  0.00  0.00    +0.051 A 
ATOM     10  C   UNL     1     -10.000   2.056   0.934  0.00  0.00    +0.162 A 
ATOM     11  C   UNL     1      -9.435   1.201  -0.005  0.00  0.00    +0.164 A 
ATOM     12  C   UNL     1      -8.265   0.521   0.296  0.00  0.00    +0.072 A 
ATOM     13  O   UNL     1     -10.012   1.027  -1.226  0.00  0.00    -0.485 OA
ATOM     14  C   UNL     1     -11.377   1.438  -1.357  0.00  0.00    +0.270 C 
ATOM     15  C   UNL     1     -11.524   2.828  -0.722  0.00  0.00    +0.270 C 
ATOM     16  O   UNL     1     -11.150   2.732   0.657  0.00  0.00    -0.485 OA
ENDBRANCH   4   7
BRANCH   1  20
ATOM     17  N   UNL     1      -1.208  -0.757   0.003  0.00  0.00    -0.270 N 
ATOM     18  C   UNL     1      -1.312  -2.217  -0.105  0.00  0.00    +0.116 C 
ATOM     19  C   UNL     1      -2.736  -2.566   0.380  0.00  0.00    +0.051 C 
ATOM     20  C   UNL     1      -3.498  -1.251   0.096  0.00  0.00    +0.162 C 
ATOM     21  C   UNL     1      -2.421  -0.189   0.117  0.00  0.00    +0.240 C 
ATOM     22  O   UNL     1      -2.622   1.003   0.220  0.00  0.00    -0.273 OA
BRANCH  17  28
ATOM     23  C   UNL     1      -0.009   1.340  -0.004  0.00  0.00    +0.026 A 
ATOM     24  C   UNL     1       1.183   2.037  -0.013  0.00  0.00    +0.040 A 
ATOM     25  C   UNL     1       2.386   1.352  -0.023  0.00  0.00    +0.124 A 
ATOM     26  C   UNL     1       2.397  -0.032  -0.025  0.00  0.00    +0.040 A 
ATOM     27  C   UNL     1       1.208  -0.733  -0.017  0.00  0.00    +0.026 A 
ATOM     28  C   UNL     1      -0.000  -0.049  -0.006  0.00  0.00    +0.036 A 
ATOM     29  F   UNL     1       3.552   2.036  -0.031  0.00  0.00    -0.205 F 
ENDBRANCH  17  28
ENDBRANCH   1  20
TORSDOF 3
