REMARK  Name = ZINC35577179
REMARK  5 active torsions:
REMARK  status: ('A' for Active; 'I' for Inactive)
REMARK    1  A    between atoms: C_4  and  N_7
REMARK    2  A    between atoms: C_8  and  N_28
REMARK    3  A    between atoms: C_10  and  C_21
REMARK    4  A    between atoms: N_16  and  C_17
REMARK    5  A    between atoms: C_17  and  C_18
REMARK                            x       y       z     vdW  Elec       q    Type
REMARK                         _______ _______ _______ _____ _____    ______ ____
ROOT
ATOM      1  N   UNL     1       3.803  -0.528   0.307  0.00  0.00    -0.216 N 
ATOM      2  C   UNL     1       3.925  -1.824   0.656  0.00  0.00    +0.131 A 
ATOM      3  C   UNL     1       5.110  -2.295   0.104  0.00  0.00    +0.086 A 
ATOM      4  C   UNL     1       5.802  -3.527   0.093  0.00  0.00    +0.089 A 
ATOM      5  N   UNL     1       6.951  -3.596  -0.567  0.00  0.00    -0.214 NA
ATOM      6  C   UNL     1       7.461  -2.551  -1.211  0.00  0.00    +0.218 A 
ATOM      7  N   UNL     1       6.884  -1.368  -1.252  0.00  0.00    -0.193 NA
ATOM      8  C   UNL     1       5.711  -1.161  -0.622  0.00  0.00    +0.189 A 
ATOM      9  N   UNL     1       4.896  -0.140  -0.476  0.00  0.00    -0.144 NA
ATOM     10  N   UNL     1       8.665  -2.715  -1.873  0.00  0.00    -0.313 N 
ATOM     11  H   UNL     1       9.113  -3.575  -1.859  0.00  0.00    +0.149 HD
ENDROOT
BRANCH   4  12
ATOM     12  C   UNL     1       5.260  -4.708   0.801  0.00  0.00    +0.001 A 
ATOM     13  C   UNL     1       3.917  -5.056   0.656  0.00  0.00    +0.011 A 
ATOM     14  C   UNL     1       3.417  -6.158   1.318  0.00  0.00    +0.020 A 
ATOM     15  C   UNL     1       4.246  -6.919   2.125  0.00  0.00    +0.041 A 
ATOM     16  C   UNL     1       5.580  -6.578   2.273  0.00  0.00    +0.020 A 
ATOM     17  C   UNL     1       6.092  -5.482   1.611  0.00  0.00    +0.011 A 
ATOM     18 CL   UNL     1       3.610  -8.304   2.956  0.00  0.00    -0.084 Cl
ENDBRANCH   4  12
BRANCH   1  22
ATOM     19  C   UNL     1       0.631   1.951   1.384  0.00  0.00    +0.000 A 
ATOM     20  C   UNL     1       1.909   2.471   1.281  0.00  0.00    +0.002 A 
ATOM     21  C   UNL     1       2.962   1.652   0.925  0.00  0.00    +0.028 A 
ATOM     22  C   UNL     1       2.737   0.305   0.669  0.00  0.00    +0.067 A 
ATOM     23  C   UNL     1       1.453  -0.213   0.774  0.00  0.00    +0.028 A 
ATOM     24  C   UNL     1       0.404   0.611   1.131  0.00  0.00    +0.002 A 
ENDBRANCH   1  22
BRANCH   2  25
ATOM     25  N   UNL     1       3.035  -2.551   1.423  0.00  0.00    -0.342 N 
ATOM     26  H   UNL     1       2.159  -2.187   1.625  0.00  0.00    +0.144 HD
ATOM     27  H   UNL     1       3.286  -3.426   1.759  0.00  0.00    +0.144 HD
ENDBRANCH   2  25
BRANCH  10  28
ATOM     28  C   UNL     1       9.263  -1.589  -2.595  0.00  0.00    +0.108 C 
BRANCH  28  29
ATOM     29  C   UNL     1      10.580  -2.034  -3.233  0.00  0.00    +0.006 C 
ATOM     30  C   UNL     1      11.864  -1.358  -2.747  0.00  0.00    +0.005 C 
ATOM     31  C   UNL     1      11.304  -1.030  -4.133  0.00  0.00    +0.005 C 
ENDBRANCH  28  29
ENDBRANCH  10  28
TORSDOF 5
