REMARK  Name = ZINC12348065
REMARK  12 active torsions:
REMARK  status: ('A' for Active; 'I' for Inactive)
REMARK    1  A    between atoms: C_1  and  C_2
REMARK    2  A    between atoms: C_5  and  N_9
REMARK    3  A    between atoms: C_6  and  C_8
REMARK    4  A    between atoms: C_10  and  C_12
REMARK    5  A    between atoms: C_12  and  S_13
REMARK    6  A    between atoms: S_13  and  C_14
REMARK    7  A    between atoms: C_17  and  C_22
REMARK    8  A    between atoms: N_20  and  N_21
REMARK    9  A    between atoms: C_22  and  C_23
REMARK   10  A    between atoms: C_26  and  C_29
REMARK   11  A    between atoms: C_29  and  C_30
REMARK   12  A    between atoms: C_29  and  C_31
REMARK                            x       y       z     vdW  Elec       q    Type
REMARK                         _______ _______ _______ _____ _____    ______ ____
ROOT
ATOM      1  C   UNL     1      -6.428   2.048  -0.410  0.00  0.00    +0.210 A 
ATOM      2  N   UNL     1      -6.218   3.354  -0.384  0.00  0.00    -0.122 NA
ATOM      3  N   UNL     1      -7.182   4.200  -0.459  0.00  0.00    -0.146 NA
ATOM      4  C   UNL     1      -8.430   3.809  -0.565  0.00  0.00    +0.134 A 
ATOM      5  C   UNL     1      -8.723   2.429  -0.598  0.00  0.00    +0.293 A 
ATOM      6  O   UNL     1      -9.873   2.035  -0.697  0.00  0.00    -0.264 OA
ATOM      7  N   UNL     1      -7.693   1.555  -0.523  0.00  0.00    -0.206 N 
ENDROOT
BRANCH   7   8
ATOM      8  N   UNL     1      -7.917   0.208  -0.556  0.00  0.00    -0.293 N 
ATOM      9  H   UNL     1      -7.050  -0.304  -0.487  0.00  0.00    +0.163 HD
ATOM     10  H   UNL     1      -8.560  -0.070   0.170  0.00  0.00    +0.163 HD
ENDBRANCH   7   8
BRANCH   1  11
ATOM     11  S   UNL     1      -5.062   0.940  -0.304  0.00  0.00    -0.075 S 
BRANCH  11  12
ATOM     12  C   UNL     1      -3.702   2.128  -0.184  0.00  0.00    +0.173 C 
BRANCH  12  14
ATOM     13  N   UNL     1      -1.237   2.069   0.019  0.00  0.00    -0.285 N 
ATOM     14  C   UNL     1      -2.394   1.385  -0.081  0.00  0.00    +0.227 C 
ATOM     15  O   UNL     1      -2.383   0.173  -0.088  0.00  0.00    -0.275 OA
ATOM     16  H   UNL     1      -1.250   3.037   0.090  0.00  0.00    +0.155 HD
BRANCH  13  21
ATOM     17  C   UNL     1       3.704  -0.717   0.009  0.00  0.00    +0.044 C 
ATOM     18  C   UNL     1       2.392   0.024   0.013  0.00  0.00    -0.050 A 
ATOM     19  C   UNL     1       1.282  -0.542   0.613  0.00  0.00    +0.005 A 
ATOM     20  C   UNL     1       0.078   0.134   0.619  0.00  0.00    +0.024 A 
ATOM     21  C   UNL     1      -0.017   1.384   0.021  0.00  0.00    +0.036 A 
ATOM     22  C   UNL     1       1.099   1.949  -0.581  0.00  0.00    -0.029 A 
ATOM     23  C   UNL     1       2.300   1.267  -0.584  0.00  0.00    +0.008 A 
ATOM     24  C   UNL     1       1.000   3.305  -1.231  0.00  0.00    +0.045 C 
ENDBRANCH  13  21
ENDBRANCH  12  14
ENDBRANCH  11  12
ENDBRANCH   1  11
BRANCH   4  25
ATOM     25  C   UNL     1      -9.540   4.824  -0.650  0.00  0.00    +0.098 C 
BRANCH  25  26
ATOM     26  C   UNL     1      -8.957   6.213  -0.593  0.00  0.00    -0.041 A 
ATOM     27  C   UNL     1      -8.793   6.844   0.626  0.00  0.00    +0.004 A 
ATOM     28  C   UNL     1      -8.254   8.115   0.679  0.00  0.00    +0.004 A 
ATOM     29  C   UNL     1      -7.887   8.760  -0.487  0.00  0.00    -0.045 A 
ATOM     30  C   UNL     1      -8.055   8.131  -1.706  0.00  0.00    +0.004 A 
ATOM     31  C   UNL     1      -8.590   6.857  -1.759  0.00  0.00    +0.004 A 
BRANCH  29  32
ATOM     32  C   UNL     1      -7.302  10.148  -0.429  0.00  0.00    +0.013 C 
ATOM     33  C   UNL     1      -8.311  11.100   0.216  0.00  0.00    +0.012 C 
ATOM     34  C   UNL     1      -6.018  10.126   0.402  0.00  0.00    +0.012 C 
ENDBRANCH  29  32
ENDBRANCH  25  26
ENDBRANCH   4  25
TORSDOF 8
