REMARK  Name = ZINC26456130
REMARK  1 active torsions:
REMARK  status: ('A' for Active; 'I' for Inactive)
REMARK    1  A    between atoms: C_20  and  C_25
REMARK                            x       y       z     vdW  Elec       q    Type
REMARK                         _______ _______ _______ _____ _____    ______ ____
ROOT
ATOM      1  C   UNL     1      -1.339   0.483  -0.319  0.00  0.00    +0.001 A 
ATOM      2  C   UNL     1      -0.348   1.435  -0.485  0.00  0.00    +0.002 A 
ATOM      3  C   UNL     1       0.994   1.100  -0.556  0.00  0.00    +0.026 A 
ATOM      4  C   UNL     1       1.309  -0.253  -0.457  0.00  0.00    +0.047 A 
ATOM      5  C   UNL     1       0.293  -1.222  -0.274  0.00  0.00    +0.003 A 
ATOM      6  C   UNL     1      -1.055  -0.856  -0.207  0.00  0.00    +0.010 A 
ATOM      7  C   UNL     1       0.973  -2.497  -0.194  0.00  0.00    -0.016 A 
ATOM      8  C   UNL     1       2.303  -2.260  -0.332  0.00  0.00    +0.042 A 
ATOM      9  N   UNL     1       2.502  -0.921  -0.508  0.00  0.00    -0.356 N 
ATOM     10  H   UNL     1       3.437  -0.365  -0.673  0.00  0.00    +0.166 HD
ATOM     11  C   UNL     1       3.325  -3.372  -0.302  0.00  0.00    +0.138 C 
ATOM     12  C   UNL     1       4.548  -3.010   0.491  0.00  0.00    -0.004 A 
ATOM     13  C   UNL     1       5.156  -1.780   0.339  0.00  0.00    +0.007 A 
ATOM     14  C   UNL     1       6.233  -1.421   1.130  0.00  0.00    +0.000 A 
ATOM     15  C   UNL     1       6.744  -2.312   2.055  0.00  0.00    +0.002 A 
ATOM     16  C   UNL     1       6.197  -3.574   2.159  0.00  0.00    +0.023 A 
ATOM     17  C   UNL     1       5.117  -3.935   1.361  0.00  0.00    +0.034 A 
ATOM     18  N   UNL     1       4.614  -5.236   1.458  0.00  0.00    -0.324 N 
ATOM     19  C   UNL     1       3.579  -5.674   0.509  0.00  0.00    +0.174 C 
ATOM     20  N   UNL     1       2.681  -4.554   0.271  0.00  0.00    -0.268 NA
ATOM     21  C   UNL     1       1.432  -4.907  -0.398  0.00  0.00    +0.092 C 
ATOM     22  C   UNL     1       0.369  -3.867  -0.007  0.00  0.00    +0.053 C 
ATOM     23  H   UNL     1       4.981  -5.929   2.230  0.00  0.00    +0.148 HD
ENDROOT
BRANCH  19  24
ATOM     24  C   UNL     1       4.215  -6.151  -0.771  0.00  0.00    -0.010 A 
ATOM     25  C   UNL     1       3.904  -7.395  -1.298  0.00  0.00    +0.026 A 
ATOM     26  C   UNL     1       4.505  -7.796  -2.476  0.00  0.00    +0.111 A 
ATOM     27  N   UNL     1       5.371  -7.015  -3.092  0.00  0.00    -0.263 NA
ATOM     28  C   UNL     1       5.694  -5.828  -2.617  0.00  0.00    +0.111 A 
ATOM     29  C   UNL     1       5.130  -5.357  -1.446  0.00  0.00    +0.026 A 
ENDBRANCH  19  24
TORSDOF 1
