REMARK  Name = ZINC04638885
REMARK  8 active torsions:
REMARK  status: ('A' for Active; 'I' for Inactive)
REMARK    1  A    between atoms: C_1  and  O_2
REMARK    2  A    between atoms: O_2  and  C_3
REMARK    3  A    between atoms: C_12  and  C_13
REMARK    4  A    between atoms: C_21  and  C_29
REMARK    5  A    between atoms: C_23  and  C_24
REMARK    6  A    between atoms: C_23  and  C_26
REMARK    7  A    between atoms: C_31  and  C_32
REMARK    8  A    between atoms: C_31  and  N_61
REMARK                            x       y       z     vdW  Elec       q    Type
REMARK                         _______ _______ _______ _____ _____    ______ ____
ROOT
ATOM      1  C   UNL     1       0.007  -0.001  -0.053  0.00  0.00    +0.068 C 
ATOM      2  C   UNL     1      -0.702   1.204   0.568  0.00  0.00    +0.010 C 
ATOM      3  C   UNL     1      -1.785   0.782   1.536  0.00  0.00    -0.069 C 
ATOM      4  C   UNL     1      -0.935   2.227   3.269  0.00  0.00    -0.051 C 
ATOM      5  C   UNL     1       0.240   2.593   2.397  0.00  0.00    -0.044 C 
ATOM      6  C   UNL     1       0.341   2.097   1.178  0.00  0.00    -0.051 C 
ATOM      7  C   UNL     1       1.553   2.373   0.367  0.00  0.00    +0.163 C 
ATOM      8  C   UNL     1       1.813   1.604  -0.721  0.00  0.00    +0.065 C 
ATOM      9  C   UNL     1       0.923   0.487  -1.176  0.00  0.00    +0.188 C 
ATOM     10  N   UNL     1       2.947   1.861  -1.440  0.00  0.00    -0.304 NA
ATOM     11  H   UNL     1       3.158   1.327  -2.221  0.00  0.00    +0.186 HD
ATOM     12  N   UNL     1      -1.311   0.839   2.928  0.00  0.00    +0.385 N 
ATOM     13  H   UNL     1      -0.488   0.234   3.027  0.00  0.00    -0.081 HD
ENDROOT
BRANCH   1  23
ATOM     14  C   UNL     1       2.163  -0.435   1.118  0.00  0.00    +0.124 A 
ATOM     15  C   UNL     1       2.939  -1.077   2.089  0.00  0.00    +0.046 A 
ATOM     16  C   UNL     1       2.385  -1.980   2.941  0.00  0.00    +0.012 A 
ATOM     17  C   UNL     1       1.014  -2.277   2.848  0.00  0.00    -0.017 A 
ATOM     18  C   UNL     1       0.410  -3.206   3.712  0.00  0.00    +0.008 A 
ATOM     19  C   UNL     1      -0.920  -3.471   3.593  0.00  0.00    +0.001 A 
ATOM     20  C   UNL     1      -1.695  -2.833   2.626  0.00  0.00    +0.001 A 
ATOM     21  C   UNL     1      -1.144  -1.929   1.771  0.00  0.00    +0.009 A 
ATOM     22  C   UNL     1       0.225  -1.626   1.867  0.00  0.00    -0.011 A 
ATOM     23  C   UNL     1       0.829  -0.701   0.999  0.00  0.00    +0.008 A 
BRANCH  14  25
ATOM     24  C   UNL     1       4.164   0.607   0.368  0.00  0.00    +0.277 C 
ATOM     25  O   UNL     1       2.745   0.463   0.280  0.00  0.00    -0.495 OA
ENDBRANCH  14  25
ENDBRANCH   1  23
BRANCH   9  26
ATOM     26  C   UNL     1       1.758  -0.635  -1.637  0.00  0.00    +0.091 C 
ATOM     27  N   UNL     1       2.401  -1.500  -1.992  0.00  0.00    -0.195 NA
ENDBRANCH   9  26
BRANCH   9  28
ATOM     28  C   UNL     1       0.096   0.961  -2.297  0.00  0.00    +0.091 C 
ATOM     29  N   UNL     1      -0.543   1.327  -3.163  0.00  0.00    -0.195 NA
ENDBRANCH   9  28
BRANCH   7  30
ATOM     30  C   UNL     1       2.439   3.439   0.728  0.00  0.00    +0.076 C 
ATOM     31  N   UNL     1       3.141   4.284   1.015  0.00  0.00    -0.196 NA
ENDBRANCH   7  30
BRANCH  12  32
ATOM     32  C   UNL     1      -2.373   0.360   3.843  0.00  0.00    -0.043 C 
BRANCH  32  33
ATOM     33  C   UNL     1      -3.635   1.159   3.641  0.00  0.00    -0.064 A 
ATOM     34  C   UNL     1      -3.854   2.305   4.383  0.00  0.00    +0.002 A 
ATOM     35  C   UNL     1      -5.010   3.039   4.195  0.00  0.00    +0.000 A 
ATOM     36  C   UNL     1      -5.951   2.623   3.271  0.00  0.00    +0.000 A 
ATOM     37  C   UNL     1      -5.734   1.474   2.533  0.00  0.00    +0.000 A 
ATOM     38  C   UNL     1      -4.577   0.742   2.719  0.00  0.00    +0.002 A 
ENDBRANCH  32  33
ENDBRANCH  12  32
TORSDOF 7
