REMARK  Name = ZINC04195707
REMARK  9 active torsions:
REMARK  status: ('A' for Active; 'I' for Inactive)
REMARK    1  A    between atoms: C_1  and  C_2
REMARK    2  A    between atoms: C_2  and  O_3
REMARK    3  A    between atoms: O_3  and  C_4
REMARK    4  A    between atoms: C_4  and  C_6
REMARK    5  A    between atoms: C_7  and  C_23
REMARK    6  A    between atoms: C_12  and  C_14
REMARK    7  A    between atoms: C_23  and  N_52
REMARK    8  A    between atoms: C_24  and  C_25
REMARK    9  A    between atoms: C_24  and  N_52
REMARK                            x       y       z     vdW  Elec       q    Type
REMARK                         _______ _______ _______ _____ _____    ______ ____
ROOT
ATOM      1  C   UNL     1      -2.795  -2.412   0.128  0.00  0.00    +0.076 C 
ATOM      2  C   UNL     1      -2.985  -3.730  -0.096  0.00  0.00    +0.007 C 
ATOM      3  N   UNL     1      -4.242  -4.254  -0.195  0.00  0.00    -0.274 N 
ATOM      4  C   UNL     1      -5.361  -3.525  -0.092  0.00  0.00    +0.304 C 
ATOM      5  O   UNL     1      -6.436  -4.081  -0.199  0.00  0.00    -0.252 OA
ATOM      6  N   UNL     1      -5.333  -2.195   0.125  0.00  0.00    -0.288 N 
ATOM      7  C   UNL     1      -4.023  -1.533   0.253  0.00  0.00    +0.144 C 
ATOM      8  H   UNL     1      -4.330  -5.207  -0.352  0.00  0.00    +0.156 HD
ATOM      9  H   UNL     1      -6.155  -1.686   0.196  0.00  0.00    +0.151 HD
ENDROOT
BRANCH   7  10
ATOM     10  C   UNL     1      -3.975  -0.856   1.598  0.00  0.00    -0.019 A 
ATOM     11  C   UNL     1      -4.370  -1.544   2.731  0.00  0.00    +0.009 A 
ATOM     12  C   UNL     1      -4.327  -0.927   3.967  0.00  0.00    +0.050 A 
ATOM     13  C   UNL     1      -3.888   0.383   4.074  0.00  0.00    +0.166 A 
ATOM     14  C   UNL     1      -3.491   1.075   2.933  0.00  0.00    +0.167 A 
ATOM     15  C   UNL     1      -3.531   0.449   1.698  0.00  0.00    +0.055 A 
ATOM     16  O   UNL     1      -3.106   2.333   3.298  0.00  0.00    -0.453 OA
ATOM     17  C   UNL     1      -2.884   2.270   4.719  0.00  0.00    +0.466 C 
ATOM     18  O   UNL     1      -3.752   1.207   5.154  0.00  0.00    -0.453 OA
ENDBRANCH   7  10
BRANCH   1  19
ATOM     19  C   UNL     1      -1.493  -1.868   0.235  0.00  0.00    +0.339 C 
ATOM     20  O   UNL     1      -1.002  -1.275  -0.707  0.00  0.00    -0.245 OA
BRANCH  19  21
ATOM     21  O   UNL     1      -0.797  -2.008   1.382  0.00  0.00    -0.462 OA
BRANCH  21  23
ATOM     22  C   UNL     1       1.141  -1.692   2.791  0.00  0.00    +0.048 C 
ATOM     23  C   UNL     1       0.512  -1.434   1.421  0.00  0.00    +0.229 C 
ENDBRANCH  21  23
ENDBRANCH  19  21
ENDBRANCH   1  19
BRANCH   2  24
ATOM     24  C   UNL     1      -1.790  -4.638  -0.233  0.00  0.00    -0.030 C 
BRANCH  24  25
ATOM     25  N   UNL     1      -1.776  -5.590   0.894  0.00  0.00    +0.385 N 
ATOM     26  H   UNL     1      -2.639  -6.146   0.879  0.00  0.00    -0.085 HD
ATOM     27  H   UNL     1      -1.719  -5.070   1.777  0.00  0.00    -0.085 HD
BRANCH  25  28
ATOM     28  C   UNL     1      -0.615  -6.494   0.786  0.00  0.00    -0.045 C 
BRANCH  28  29
ATOM     29  C   UNL     1      -0.626  -7.454   1.948  0.00  0.00    -0.046 A 
ATOM     30  C   UNL     1       0.194  -7.229   3.038  0.00  0.00    +0.003 A 
ATOM     31  C   UNL     1       0.181  -8.107   4.105  0.00  0.00    +0.000 A 
ATOM     32  C   UNL     1      -0.646  -9.215   4.079  0.00  0.00    +0.001 A 
ATOM     33  C   UNL     1      -1.462  -9.444   2.988  0.00  0.00    +0.020 A 
ATOM     34  C   UNL     1      -1.453  -8.562   1.921  0.00  0.00    +0.042 A 
ATOM     35 CL   UNL     1      -2.478  -8.848   0.549  0.00  0.00    -0.083 Cl
ENDBRANCH  28  29
ENDBRANCH  25  28
ENDBRANCH  24  25
ENDBRANCH   2  24
TORSDOF 8
