REMARK  Name = ZINC20108488
REMARK  12 active torsions:
REMARK  status: ('A' for Active; 'I' for Inactive)
REMARK    1  A    between atoms: C_1  and  C_2
REMARK    2  A    between atoms: C_2  and  O_3
REMARK    3  A    between atoms: O_3  and  C_4
REMARK    4  A    between atoms: C_4  and  C_6
REMARK    5  A    between atoms: C_6  and  N_7
REMARK    6  A    between atoms: N_7  and  C_8
REMARK    7  A    between atoms: N_7  and  C_15
REMARK    8  A    between atoms: C_8  and  C_9
REMARK    9  A    between atoms: C_15  and  C_17
REMARK   10  A    between atoms: C_15  and  C_29
REMARK   11  A    between atoms: C_22  and  N_23
REMARK   12  A    between atoms: N_31  and  C_32
REMARK                            x       y       z     vdW  Elec       q    Type
REMARK                         _______ _______ _______ _____ _____    ______ ____
ROOT
ATOM      1  C   UNL     1       5.619  -1.597  -1.278  0.00  0.00    +0.054 C 
ENDROOT
BRANCH   1   2
ATOM      2  C   UNL     1       4.902  -2.896  -1.016  0.00  0.00    -0.018 A 
ATOM      3  C   UNL     1       5.004  -3.935  -1.922  0.00  0.00    +0.054 A 
ATOM      4  C   UNL     1       4.350  -5.132  -1.681  0.00  0.00    +0.167 A 
ATOM      5  C   UNL     1       3.581  -5.281  -0.528  0.00  0.00    +0.168 A 
ATOM      6  C   UNL     1       3.479  -4.234   0.372  0.00  0.00    +0.082 A 
ATOM      7  C   UNL     1       4.139  -3.044   0.127  0.00  0.00    +0.132 A 
ATOM      8  O   UNL     1       3.040  -6.535  -0.524  0.00  0.00    -0.453 OA
ATOM      9  C   UNL     1       3.813  -7.290  -1.476  0.00  0.00    +0.466 C 
ATOM     10  O   UNL     1       4.290  -6.292  -2.398  0.00  0.00    -0.453 OA
BRANCH   7  11
ATOM     11  N   UNL     1       4.029  -1.926   1.092  0.00  0.00    +0.057 N 
ATOM     12  O   UNL     1       3.449  -2.090   2.150  0.00  0.00    -0.126 OA
ATOM     13  O   UNL     1       4.519  -0.843   0.827  0.00  0.00    -0.126 OA
ENDBRANCH   7  11
ENDBRANCH   1   2
BRANCH   1  14
ATOM     14  C   UNL     1       6.418  -1.712  -2.550  0.00  0.00    +0.204 C 
ATOM     15  O   UNL     1       6.001  -1.216  -3.576  0.00  0.00    -0.277 OA
ATOM     16  N   UNL     1       7.596  -2.366  -2.549  0.00  0.00    -0.314 N 
ATOM     17  H   UNL     1       7.934  -2.889  -1.642  0.00  0.00    +0.149 HD
BRANCH  16  18
ATOM     18  C   UNL     1       8.427  -2.382  -3.756  0.00  0.00    +0.073 C 
ATOM     19  C   UNL     1       7.967  -3.513  -4.677  0.00  0.00    +0.022 C 
ATOM     20  C   UNL     1       8.834  -3.529  -5.938  0.00  0.00    +0.002 C 
ATOM     21  C   UNL     1      10.297  -3.752  -5.547  0.00  0.00    +0.000 C 
ATOM     22  C   UNL     1      10.757  -2.621  -4.626  0.00  0.00    +0.002 C 
ATOM     23  C   UNL     1       9.889  -2.605  -3.365  0.00  0.00    +0.022 C 
ENDBRANCH  16  18
ENDBRANCH   1  14
BRANCH   1  24
ATOM     24  N   UNL     1       4.636  -0.513  -1.414  0.00  0.00    +0.400 N 
ATOM     25  H   UNL     1       4.168  -0.356  -0.431  0.00  0.00    -0.079 HD
BRANCH  24  26
ATOM     26  C   UNL     1       5.287   0.742  -1.810  0.00  0.00    +0.046 C 
BRANCH  26  27
ATOM     27  C   UNL     1       6.229   1.185  -0.721  0.00  0.00    +0.290 C 
ATOM     28  O   UNL     1       6.415   0.479   0.242  0.00  0.00    -0.253 OA
BRANCH  27  29
ATOM     29  O   UNL     1       6.861   2.365  -0.819  0.00  0.00    -0.466 OA
BRANCH  29  31
ATOM     30  C   UNL     1       8.377   4.095  -0.019  0.00  0.00    +0.048 C 
ATOM     31  C   UNL     1       7.753   2.728   0.268  0.00  0.00    +0.228 C 
ENDBRANCH  29  31
ENDBRANCH  27  29
ENDBRANCH  26  27
ENDBRANCH  24  26
BRANCH  24  32
ATOM     32  C   UNL     1       3.577  -0.880  -2.364  0.00  0.00    -0.041 C 
BRANCH  32  33
ATOM     33  C   UNL     1       2.404   0.051  -2.192  0.00  0.00    -0.064 A 
ATOM     34  C   UNL     1       2.337   1.221  -2.925  0.00  0.00    +0.002 A 
ATOM     35  C   UNL     1       1.262   2.075  -2.768  0.00  0.00    +0.000 A 
ATOM     36  C   UNL     1       0.253   1.759  -1.877  0.00  0.00    +0.000 A 
ATOM     37  C   UNL     1       0.320   0.589  -1.144  0.00  0.00    +0.000 A 
ATOM     38  C   UNL     1       1.395  -0.265  -1.301  0.00  0.00    +0.002 A 
ENDBRANCH  32  33
ENDBRANCH  24  32
ENDBRANCH   1  24
TORSDOF 11
