REMARK  Name = ZINC23157864
REMARK  8 active torsions:
REMARK  status: ('A' for Active; 'I' for Inactive)
REMARK    1  A    between atoms: C_1  and  C_2
REMARK    2  A    between atoms: C_8  and  C_10
REMARK    3  A    between atoms: C_10  and  C_12
REMARK    4  A    between atoms: C_10  and  N_20
REMARK    5  A    between atoms: C_16  and  O_18
REMARK    6  A    between atoms: O_18  and  C_19
REMARK    7  A    between atoms: C_22  and  C_29
REMARK    8  A    between atoms: C_25  and  C_28
REMARK                            x       y       z     vdW  Elec       q    Type
REMARK                         _______ _______ _______ _____ _____    ______ ____
ROOT
ATOM      1  C   UNL     1       0.085  -5.916   0.773  0.00  0.00    +0.006 C 
ENDROOT
BRANCH   1   9
ATOM      2  C   UNL     1      -0.018   1.503   0.010  0.00  0.00    +0.090 C 
ATOM      3  C   UNL     1       0.002  -0.004   0.002  0.00  0.00    +0.150 A 
ATOM      4  N   UNL     1       0.008  -0.769  -1.088  0.00  0.00    -0.205 NA
ATOM      5  C   UNL     1       0.026  -2.025  -0.733  0.00  0.00    +0.199 A 
ATOM      6  N   UNL     1       0.033  -2.116   0.625  0.00  0.00    -0.170 N 
ATOM      7  N   UNL     1       0.022  -0.766   1.063  0.00  0.00    -0.147 NA
ATOM      8  C   UNL     1       0.052  -3.377   1.171  0.00  0.00    +0.282 A 
ATOM      9  C   UNL     1       0.063  -4.460   0.386  0.00  0.00    +0.050 A 
ATOM     10  S   UNL     1       0.047  -3.727  -1.243  0.00  0.00    -0.050 S 
ATOM     11  O   UNL     1       0.060  -3.525   2.523  0.00  0.00    -0.265 OA
ENDBRANCH   1   9
BRANCH   1  12
ATOM     12  N   UNL     1      -1.043  -6.609   0.137  0.00  0.00    +0.388 N 
ATOM     13  C   UNL     1      -2.302  -5.997   0.576  0.00  0.00    -0.074 C 
ATOM     14  C   UNL     1      -3.476  -6.662  -0.146  0.00  0.00    -0.031 C 
ATOM     15  C   UNL     1      -3.491  -8.157   0.185  0.00  0.00    +0.003 C 
ATOM     16  C   UNL     1      -2.145  -8.770  -0.209  0.00  0.00    -0.031 C 
ATOM     17  C   UNL     1      -1.020  -8.027   0.515  0.00  0.00    -0.074 C 
ATOM     18  C   UNL     1      -2.121 -10.248   0.188  0.00  0.00    +0.005 C 
ATOM     19  C   UNL     1      -4.788  -6.022   0.315  0.00  0.00    +0.005 C 
ATOM     20  H   UNL     1      -0.964  -6.528  -0.866  0.00  0.00    -0.080 HD
ENDBRANCH   1  12
BRANCH   1  21
ATOM     21  C   UNL     1       1.379  -6.538   0.316  0.00  0.00    -0.053 A 
ATOM     22  C   UNL     1       1.535  -6.917  -1.005  0.00  0.00    +0.002 A 
ATOM     23  C   UNL     1       2.721  -7.488  -1.427  0.00  0.00    +0.004 A 
ATOM     24  C   UNL     1       3.754  -7.682  -0.530  0.00  0.00    +0.045 A 
ATOM     25  C   UNL     1       3.600  -7.302   0.795  0.00  0.00    +0.120 A 
ATOM     26  C   UNL     1       2.411  -6.724   1.215  0.00  0.00    +0.048 A 
BRANCH  25  27
ATOM     27  O   UNL     1       4.615  -7.492   1.679  0.00  0.00    -0.495 OA
ATOM     28  C   UNL     1       5.812  -8.087   1.175  0.00  0.00    +0.277 C 
ENDBRANCH  25  27
ENDBRANCH   1  21
TORSDOF 4
