REMARK  Name = ZINC38768233
REMARK  5 active torsions:
REMARK  status: ('A' for Active; 'I' for Inactive)
REMARK    1  A    between atoms: C_6  and  C_7
REMARK    2  A    between atoms: C_9  and  C_12
REMARK    3  A    between atoms: C_12  and  O_13
REMARK    4  A    between atoms: O_13  and  C_14
REMARK    5  A    between atoms: C_14  and  C_16
REMARK                            x       y       z     vdW  Elec       q    Type
REMARK                         _______ _______ _______ _____ _____    ______ ____
ROOT
ATOM      1  C   UNL     1      -1.266  -0.762   0.010  0.00  0.00    +0.168 A 
ATOM      2  C   UNL     1      -2.520  -0.230   0.020  0.00  0.00    +0.079 A 
ATOM      3  C   UNL     1      -3.439  -1.289   0.024  0.00  0.00    +0.121 A 
ATOM      4  N   UNL     1      -2.773  -2.410   0.018  0.00  0.00    -0.079 NA
ATOM      5  O   UNL     1      -1.391  -2.103   0.004  0.00  0.00    -0.354 OA
ENDROOT
BRANCH   1  11
ATOM      6  C   UNL     1      -0.017   1.391   0.010  0.00  0.00    +0.015 A 
ATOM      7  C   UNL     1       1.168   2.097   0.002  0.00  0.00    +0.050 A 
ATOM      8  C   UNL     1       2.381   1.425  -0.013  0.00  0.00    +0.166 A 
ATOM      9  C   UNL     1       2.407   0.030  -0.021  0.00  0.00    +0.167 A 
ATOM     10  C   UNL     1       1.223  -0.682  -0.014  0.00  0.00    +0.061 A 
ATOM     11  C   UNL     1       0.002  -0.004   0.002  0.00  0.00    +0.024 A 
ATOM     12  O   UNL     1       3.708  -0.382  -0.036  0.00  0.00    -0.453 OA
ATOM     13  C   UNL     1       4.470   0.768  -0.450  0.00  0.00    +0.466 C 
ATOM     14  O   UNL     1       3.667   1.883  -0.023  0.00  0.00    -0.453 OA
ENDBRANCH   1  11
BRANCH   3  15
ATOM     15  C   UNL     1      -4.940  -1.154   0.035  0.00  0.00    +0.291 C 
BRANCH  15  16
ATOM     16  O   UNL     1      -5.294   0.230   0.040  0.00  0.00    -0.457 OA
BRANCH  16  17
ATOM     17  C   UNL     1      -6.604   0.524   0.050  0.00  0.00    +0.328 C 
ATOM     18  O   UNL     1      -7.422  -0.364   0.054  0.00  0.00    -0.249 OA
BRANCH  17  19
ATOM     19  C   UNL     1      -7.053   1.963   0.056  0.00  0.00    +0.182 C 
ATOM     20  C   UNL     1      -7.011   2.542  -1.376  0.00  0.00    +0.043 C 
ATOM     21  C   UNL     1      -8.238   3.483  -1.371  0.00  0.00    +0.098 C 
ATOM     22  C   UNL     1      -9.144   2.906  -0.306  0.00  0.00    +0.214 C 
ATOM     23  O   UNL     1     -10.320   3.172  -0.175  0.00  0.00    -0.276 OA
ATOM     24  N   UNL     1      -8.456   2.055   0.477  0.00  0.00    -0.302 N 
ATOM     25  H   UNL     1      -8.837   1.565   1.222  0.00  0.00    +0.150 HD
ENDBRANCH  17  19
ENDBRANCH  16  17
ENDBRANCH  15  16
ENDBRANCH   3  15
TORSDOF 5
