REMARK  Name = ZINC20910791
REMARK  10 active torsions:
REMARK  status: ('A' for Active; 'I' for Inactive)
REMARK    1  A    between atoms: C_1  and  C_2
REMARK    2  A    between atoms: C_3  and  C_11
REMARK    3  A    between atoms: C_4  and  C_10
REMARK    4  A    between atoms: C_6  and  S_8
REMARK    5  A    between atoms: S_8  and  C_9
REMARK    6  A    between atoms: C_11  and  C_12
REMARK    7  A    between atoms: C_12  and  C_13
REMARK    8  A    between atoms: N_15  and  N_16
REMARK    9  A    between atoms: C_17  and  C_19
REMARK   10  A    between atoms: C_20  and  C_30
REMARK                            x       y       z     vdW  Elec       q    Type
REMARK                         _______ _______ _______ _____ _____    ______ ____
ROOT
ATOM      1  C   UNL     1       2.279   4.238   0.003  0.00  0.00    +0.229 C 
ATOM      2  O   UNL     1       3.337   3.646  -0.010  0.00  0.00    -0.274 OA
ATOM      3  N   UNL     1       1.121   3.549   0.010  0.00  0.00    -0.234 N 
ATOM      4  H   UNL     1       0.161   4.085   0.022  0.00  0.00    +0.173 HD
ENDROOT
BRANCH   3   5
ATOM      5  N   UNL     1       1.140   2.148   0.003  0.00  0.00    -0.230 N 
ATOM      6  C   UNL     1      -0.018   1.458   0.010  0.00  0.00    +0.269 C 
ATOM      7  O   UNL     1      -1.080   2.052   0.018  0.00  0.00    -0.268 OA
ATOM      8  H   UNL     1       2.100   1.611  -0.009  0.00  0.00    +0.173 HD
BRANCH   6   9
ATOM      9  C   UNL     1       0.002  -0.004   0.002  0.00  0.00    +0.099 A 
ATOM     10  C   UNL     1      -1.053  -0.905   0.013  0.00  0.00    +0.060 A 
ATOM     11  N   UNL     1      -0.766  -2.180  -0.003  0.00  0.00    -0.229 NA
ATOM     12  C   UNL     1       0.488  -2.609  -0.016  0.00  0.00    +0.162 A 
ATOM     13  S   UNL     1       1.392  -1.127  -0.017  0.00  0.00    -0.047 S 
ATOM     14  N   UNL     1       0.956  -3.905  -0.027  0.00  0.00    -0.305 N 
ATOM     15  C   UNL     1       0.430  -4.665   1.117  0.00  0.00    +0.135 C 
ATOM     16  C   UNL     1       0.926  -6.111   1.033  0.00  0.00    +0.179 C 
ATOM     17  O   UNL     1       2.356  -6.118   0.989  0.00  0.00    -0.377 OA
ATOM     18  C   UNL     1       2.901  -5.388  -0.113  0.00  0.00    +0.179 C 
ATOM     19  C   UNL     1       2.426  -3.934  -0.041  0.00  0.00    +0.135 C 
ATOM     20  C   UNL     1      -2.483  -0.429   0.037  0.00  0.00    +0.067 C 
ENDBRANCH   6   9
ENDBRANCH   3   5
BRANCH   1  21
ATOM     21  C   UNL     1       2.259   5.745   0.011  0.00  0.00    +0.102 C 
BRANCH  21  22
ATOM     22  C   UNL     1       3.694   6.275   0.001  0.00  0.00    +0.048 C 
BRANCH  22  25
ATOM     23  C   UNL     1       3.698   7.748   2.520  0.00  0.00    +0.066 C 
ATOM     24  C   UNL     1       3.675   8.483   1.204  0.00  0.00    +0.046 A 
ATOM     25  C   UNL     1       3.674   7.782   0.009  0.00  0.00    -0.005 A 
ATOM     26  C   UNL     1       3.658   8.496  -1.179  0.00  0.00    +0.046 A 
ATOM     27  N   UNL     1       3.635   9.818  -1.137  0.00  0.00    -0.227 NA
ATOM     28  C   UNL     1       3.637  10.459   0.024  0.00  0.00    +0.188 A 
ATOM     29  N   UNL     1       3.657   9.805   1.177  0.00  0.00    -0.227 NA
ATOM     30  C   UNL     1       3.663   7.775  -2.502  0.00  0.00    +0.066 C 
BRANCH  28  31
ATOM     31  S   UNL     1       3.613  12.220   0.033  0.00  0.00    -0.089 S 
ATOM     32  C   UNL     1       3.592  12.544  -1.748  0.00  0.00    +0.093 C 
ENDBRANCH  28  31
ENDBRANCH  22  25
ENDBRANCH  21  22
ENDBRANCH   1  21
TORSDOF 6
