REMARK  Name = ZINC13567367
REMARK  8 active torsions:
REMARK  status: ('A' for Active; 'I' for Inactive)
REMARK    1  A    between atoms: C_1  and  O_2
REMARK    2  A    between atoms: O_2  and  C_3
REMARK    3  A    between atoms: C_6  and  C_11
REMARK    4  A    between atoms: C_7  and  O_9
REMARK    5  A    between atoms: O_9  and  C_10
REMARK    6  A    between atoms: C_22  and  S_24
REMARK    7  A    between atoms: S_24  and  C_25
REMARK    8  A    between atoms: C_25  and  C_26
REMARK                            x       y       z     vdW  Elec       q    Type
REMARK                         _______ _______ _______ _____ _____    ______ ____
ROOT
ATOM      1  C   UNL     1       2.507  -2.495  -4.390  0.00  0.00    +0.070 C 
ATOM      2  C   UNL     1       3.974  -2.067  -4.450  0.00  0.00    +0.109 C 
ATOM      3  C   UNL     1       4.073  -0.634  -4.900  0.00  0.00    +0.219 C 
ATOM      4  O   UNL     1       4.943   0.077  -4.445  0.00  0.00    -0.275 OA
ATOM      5  N   UNL     1       3.210  -0.132  -5.803  0.00  0.00    -0.270 N 
ATOM      6  C   UNL     1       2.190  -0.921  -6.317  0.00  0.00    +0.137 A 
ATOM      7  C   UNL     1       1.813  -2.085  -5.660  0.00  0.00    +0.067 A 
ATOM      8  C   UNL     1       0.791  -2.856  -6.195  0.00  0.00    +0.280 A 
ATOM      9  O   UNL     1       0.394  -3.998  -5.582  0.00  0.00    -0.265 OA
ATOM     10  N   UNL     1       0.207  -2.454  -7.321  0.00  0.00    -0.183 NA
ATOM     11  C   UNL     1       0.591  -1.338  -7.924  0.00  0.00    +0.194 A 
ATOM     12  N   UNL     1       1.564  -0.579  -7.438  0.00  0.00    -0.206 NA
ATOM     13  H   UNL     1       3.301   0.788  -6.095  0.00  0.00    +0.156 HD
ENDROOT
BRANCH   1  17
ATOM     14  C   UNL     1       0.606  -0.607  -1.056  0.00  0.00    +0.124 A 
ATOM     15  C   UNL     1       1.173   0.162  -2.062  0.00  0.00    +0.046 A 
ATOM     16  C   UNL     1       1.787  -0.451  -3.138  0.00  0.00    +0.011 A 
ATOM     17  C   UNL     1       1.837  -1.830  -3.215  0.00  0.00    +0.003 A 
ATOM     18  C   UNL     1       1.272  -2.603  -2.211  0.00  0.00    +0.127 A 
ATOM     19  C   UNL     1       0.660  -1.990  -1.127  0.00  0.00    +0.091 A 
BRANCH  14  21
ATOM     20  C   UNL     1      -0.017   1.425   0.010  0.00  0.00    +0.277 C 
ATOM     21  O   UNL     1       0.002  -0.004   0.002  0.00  0.00    -0.495 OA
ENDBRANCH  14  21
BRANCH  18  22
ATOM     22  O   UNL     1       1.322  -3.959  -2.286  0.00  0.00    -0.495 OA
ATOM     23  C   UNL     1       0.719  -4.691  -1.217  0.00  0.00    +0.277 C 
ENDBRANCH  18  22
ENDBRANCH   1  17
BRANCH  11  24
ATOM     24  S   UNL     1      -0.213  -0.849  -9.414  0.00  0.00    -0.081 S 
BRANCH  24  25
ATOM     25  C   UNL     1      -1.444  -2.151  -9.695  0.00  0.00    +0.112 C 
BRANCH  25  26
ATOM     26  C   UNL     1      -2.213  -1.851 -10.956  0.00  0.00    -0.034 A 
ATOM     27  C   UNL     1      -3.365  -1.089 -10.899  0.00  0.00    +0.004 A 
ATOM     28  C   UNL     1      -4.071  -0.813 -12.054  0.00  0.00    +0.003 A 
ATOM     29  C   UNL     1      -3.627  -1.300 -13.269  0.00  0.00    +0.038 A 
ATOM     30  C   UNL     1      -2.474  -2.064 -13.328  0.00  0.00    +0.124 A 
ATOM     31  C   UNL     1      -1.764  -2.334 -12.171  0.00  0.00    +0.042 A 
ATOM     32  F   UNL     1      -2.039  -2.541 -14.515  0.00  0.00    -0.205 F 
ENDBRANCH  25  26
ENDBRANCH  24  25
ENDBRANCH  11  24
TORSDOF 6
