REMARK  Name = ZINC21890600
REMARK  2 active torsions:
REMARK  status: ('A' for Active; 'I' for Inactive)
REMARK    1  A    between atoms: C_1  and  C_2
REMARK    2  A    between atoms: N_19  and  C_20
REMARK                            x       y       z     vdW  Elec       q    Type
REMARK                         _______ _______ _______ _____ _____    ______ ____
ROOT
ATOM      1  C   UNL     1       4.559   1.393  -0.449  0.00  0.00    +0.035 C 
ATOM      2  C   UNL     1       3.685   1.143   0.781  0.00  0.00    +0.122 C 
ATOM      3  C   UNL     1       4.306   0.065   1.640  0.00  0.00    +0.044 A 
ATOM      4  C   UNL     1       4.563   0.091   2.957  0.00  0.00    +0.025 A 
ATOM      5  C   UNL     1       5.146  -1.149   3.297  0.00  0.00    +0.020 A 
ATOM      6  C   UNL     1       5.223  -1.886   2.167  0.00  0.00    +0.091 A 
ATOM      7  N   UNL     1       4.712  -1.148   1.149  0.00  0.00    -0.318 N 
ATOM      8  C   UNL     1       4.578  -1.481  -0.208  0.00  0.00    +0.051 A 
ATOM      9  C   UNL     1       5.644  -1.993  -0.927  0.00  0.00    +0.026 A 
ATOM     10  C   UNL     1       5.519  -2.193  -2.289  0.00  0.00    +0.002 A 
ATOM     11  C   UNL     1       4.331  -1.884  -2.928  0.00  0.00    +0.000 A 
ATOM     12  C   UNL     1       3.257  -1.396  -2.206  0.00  0.00    +0.007 A 
ATOM     13  C   UNL     1       3.370  -1.212  -0.843  0.00  0.00    -0.006 A 
ATOM     14  C   UNL     1       2.201  -0.731  -0.029  0.00  0.00    +0.147 C 
ATOM     15  N   UNL     1       2.348   0.685   0.354  0.00  0.00    -0.273 N 
ATOM     16  C   UNL     1       1.301   1.533   0.312  0.00  0.00    +0.307 C 
ATOM     17  O   UNL     1       1.473   2.722   0.494  0.00  0.00    -0.252 OA
ATOM     18  N   UNL     1       0.062   1.061   0.067  0.00  0.00    -0.269 N 
ATOM     19  H   UNL     1      -0.077   0.015  -0.242  0.00  0.00    +0.156 HD
ENDROOT
BRANCH  18  20
ATOM     20  C   UNL     1      -1.048   1.904   0.206  0.00  0.00    +0.035 A 
ATOM     21  C   UNL     1      -0.886   3.282   0.154  0.00  0.00    +0.026 A 
ATOM     22  C   UNL     1      -1.983   4.111   0.285  0.00  0.00    +0.040 A 
ATOM     23  C   UNL     1      -3.242   3.569   0.481  0.00  0.00    +0.124 A 
ATOM     24  C   UNL     1      -3.405   2.195   0.538  0.00  0.00    +0.040 A 
ATOM     25  C   UNL     1      -2.312   1.363   0.401  0.00  0.00    +0.026 A 
ATOM     26  F   UNL     1      -4.313   4.382   0.615  0.00  0.00    -0.205 F 
ENDBRANCH  18  20
TORSDOF 1
