REMARK  Name = ZINC20704873
REMARK  5 active torsions:
REMARK  status: ('A' for Active; 'I' for Inactive)
REMARK    1  A    between atoms: C_4  and  N_33
REMARK    2  A    between atoms: C_6  and  C_7
REMARK    3  A    between atoms: C_18  and  C_23
REMARK    4  A    between atoms: N_25  and  C_26
REMARK    5  A    between atoms: C_26  and  C_27
REMARK                            x       y       z     vdW  Elec       q    Type
REMARK                         _______ _______ _______ _____ _____    ______ ____
ROOT
ATOM      1  C   UNL     1      -0.018   1.475   0.010  0.00  0.00    +0.105 C 
ATOM      2  C   UNL     1       1.438   1.904  -0.001  0.00  0.00    +0.029 C 
ATOM      3  C   UNL     1       1.725   3.401  -0.178  0.00  0.00    +0.033 C 
ATOM      4  C   UNL     1       3.088   3.373  -0.873  0.00  0.00    -0.030 C 
ATOM      5  C   UNL     1       3.237   2.232  -1.535  0.00  0.00    -0.023 C 
ATOM      6  C   UNL     1       2.000   1.426  -1.374  0.00  0.00    +0.049 C 
ATOM      7  C   UNL     1       2.023  -0.052  -1.365  0.00  0.00    -0.019 A 
ATOM      8  C   UNL     1       2.998  -0.776  -2.006  0.00  0.00    +0.019 A 
ATOM      9  C   UNL     1       2.964  -2.173  -1.987  0.00  0.00    +0.037 A 
ATOM     10  C   UNL     1       1.932  -2.831  -1.311  0.00  0.00    +0.015 A 
ATOM     11  C   UNL     1       0.962  -2.104  -0.664  0.00  0.00    +0.024 A 
ATOM     12  C   UNL     1       0.994  -0.712  -0.676  0.00  0.00    +0.031 A 
ATOM     13  N   UNL     1       0.002  -0.004   0.002  0.00  0.00    -0.336 N 
ATOM     14  H   UNL     1      -0.776  -0.568   0.538  0.00  0.00    +0.147 HD
ENDROOT
BRANCH   1  20
ATOM     15  C   UNL     1      -0.475   1.353   2.468  0.00  0.00    +0.007 A 
ATOM     16  C   UNL     1      -1.100   1.815   3.611  0.00  0.00    +0.022 A 
ATOM     17  C   UNL     1      -1.950   2.905   3.542  0.00  0.00    +0.071 A 
ATOM     18  C   UNL     1      -2.174   3.531   2.329  0.00  0.00    +0.145 A 
ATOM     19  C   UNL     1      -1.545   3.071   1.187  0.00  0.00    +0.039 A 
ATOM     20  C   UNL     1      -0.700   1.979   1.256  0.00  0.00    -0.025 A 
ATOM     21 CL   UNL     1      -2.735   3.486   4.977  0.00  0.00    -0.081 Cl
BRANCH  18  22
ATOM     22  N   UNL     1      -3.083   4.696   2.254  0.00  0.00    +0.058 N 
ATOM     23  O   UNL     1      -3.281   5.247   1.186  0.00  0.00    -0.126 OA
ATOM     24  O   UNL     1      -3.634   5.104   3.261  0.00  0.00    -0.126 OA
ENDBRANCH  18  22
ENDBRANCH   1  20
BRANCH   9  25
ATOM     25  C   UNL     1       4.011  -2.950  -2.677  0.00  0.00    +0.244 C 
ATOM     26  O   UNL     1       4.907  -2.374  -3.265  0.00  0.00    -0.270 OA
ATOM     27  N   UNL     1       3.975  -4.297  -2.657  0.00  0.00    -0.309 N 
ATOM     28  H   UNL     1       3.165  -4.817  -2.125  0.00  0.00    +0.149 HD
BRANCH  27  29
ATOM     29  C   UNL     1       5.015  -5.068  -3.342  0.00  0.00    +0.136 C 
BRANCH  29  30
ATOM     30  C   UNL     1       4.742  -6.563  -3.166  0.00  0.00    +0.135 C 
ATOM     31  C   UNL     1       5.893  -7.383  -3.786  0.00  0.00    +0.035 C 
ATOM     32  C   UNL     1       5.137  -8.570  -4.442  0.00  0.00    +0.031 C 
ATOM     33  C   UNL     1       3.827  -7.873  -4.889  0.00  0.00    +0.160 C 
ATOM     34  O   UNL     1       3.537  -6.921  -3.853  0.00  0.00    -0.375 OA
ENDBRANCH  29  30
ENDBRANCH  27  29
ENDBRANCH   9  25
TORSDOF 5
