REMARK  Name = ZINC05996274
REMARK  1 active torsions:
REMARK  status: ('A' for Active; 'I' for Inactive)
REMARK    1  A    between atoms: C_3  and  N_8
REMARK                            x       y       z     vdW  Elec       q    Type
REMARK                         _______ _______ _______ _____ _____    ______ ____
ROOT
ATOM      1  N   UNL     1       2.600  -2.639  -0.052  0.00  0.00    -0.255 N 
ATOM      2  C   UNL     1       1.453  -2.098  -0.524  0.00  0.00    +0.268 A 
ATOM      3  O   UNL     1       0.557  -2.796  -0.962  0.00  0.00    -0.266 OA
ATOM      4  C   UNL     1       1.330  -0.635  -0.488  0.00  0.00    +0.084 A 
ATOM      5  C   UNL     1       0.195   0.027  -0.950  0.00  0.00    +0.022 A 
ATOM      6  C   UNL     1       0.164   1.414  -0.878  0.00  0.00    -0.025 A 
ATOM      7  C   UNL     1       1.245   2.095  -0.352  0.00  0.00    +0.047 A 
ATOM      8  N   UNL     1       2.316   1.443   0.079  0.00  0.00    -0.232 NA
ATOM      9  C   UNL     1       2.406   0.120   0.034  0.00  0.00    +0.168 A 
ATOM     10  N   UNL     1       3.501  -0.528   0.475  0.00  0.00    -0.202 NA
ATOM     11  C   UNL     1       3.593  -1.835   0.434  0.00  0.00    +0.189 A 
ATOM     12  S   UNL     1       5.066  -2.592   1.035  0.00  0.00    -0.010 S 
ATOM     13  C   UNL     1       1.264   3.599  -0.231  0.00  0.00    +0.056 C 
ATOM     14  C   UNL     1       0.209   4.224  -1.141  0.00  0.00    +0.006 C 
ATOM     15  C   UNL     1      -1.136   3.542  -0.866  0.00  0.00    +0.005 C 
ATOM     16  C   UNL     1      -1.066   2.111  -1.396  0.00  0.00    +0.037 C 
ENDROOT
BRANCH   1  19
ATOM     17  C   UNL     1       3.509  -6.023  -1.172  0.00  0.00    +0.003 A 
ATOM     18  C   UNL     1       3.336  -4.653  -1.167  0.00  0.00    +0.026 A 
ATOM     19  C   UNL     1       2.771  -4.030  -0.062  0.00  0.00    +0.053 A 
ATOM     20  C   UNL     1       2.370  -4.788   1.030  0.00  0.00    +0.046 A 
ATOM     21  C   UNL     1       2.540  -6.160   1.016  0.00  0.00    +0.043 A 
ATOM     22  C   UNL     1       3.109  -6.777  -0.084  0.00  0.00    +0.020 A 
ATOM     23 CL   UNL     1       2.040  -7.109   2.381  0.00  0.00    -0.083 Cl
ENDBRANCH   1  19
TORSDOF 1
