REMARK  Name = ZINC39934382
REMARK  10 active torsions:
REMARK  status: ('A' for Active; 'I' for Inactive)
REMARK    1  A    between atoms: C_1  and  C_2
REMARK    2  A    between atoms: C_4  and  C_35
REMARK    3  A    between atoms: C_5  and  C_33
REMARK    4  A    between atoms: C_6  and  N_17
REMARK    5  A    between atoms: N_8  and  C_9
REMARK    6  A    between atoms: C_9  and  C_10
REMARK    7  A    between atoms: C_18  and  C_20
REMARK    8  A    between atoms: C_20  and  S_21
REMARK    9  A    between atoms: S_21  and  C_22
REMARK   10  A    between atoms: C_26  and  C_28
REMARK                            x       y       z     vdW  Elec       q    Type
REMARK                         _______ _______ _______ _____ _____    ______ ____
ROOT
ATOM      1  C   UNL     1       0.060   1.487  -0.275  0.00  0.00    +0.029 C 
ATOM      2  C   UNL     1       0.051  -0.032  -0.092  0.00  0.00    +0.083 C 
ATOM      3  C   UNL     1       0.717  -0.705  -1.270  0.00  0.00    -0.039 C 
ATOM      4  C   UNL     1       1.525  -1.664  -0.825  0.00  0.00    +0.065 C 
ATOM      5  C   UNL     1       1.459  -1.705   0.685  0.00  0.00    +0.186 C 
ATOM      6  N   UNL     1       0.861  -0.410   1.090  0.00  0.00    -0.269 NA
ATOM      7  C   UNL     1       0.500  -0.347  -2.718  0.00  0.00    +0.042 C 
ENDROOT
BRANCH   5   8
ATOM      8  N   UNL     1       2.805  -1.842   1.247  0.00  0.00    -0.294 N 
ATOM      9  C   UNL     1       3.035  -2.728   2.236  0.00  0.00    +0.225 C 
ATOM     10  O   UNL     1       2.112  -3.346   2.724  0.00  0.00    -0.275 OA
ATOM     11  H   UNL     1       3.531  -1.296   0.907  0.00  0.00    +0.151 HD
BRANCH   9  12
ATOM     12  C   UNL     1       4.439  -2.951   2.737  0.00  0.00    +0.173 C 
BRANCH  12  13
ATOM     13  S   UNL     1       4.419  -4.192   4.060  0.00  0.00    -0.077 S 
BRANCH  13  14
ATOM     14  C   UNL     1       6.110  -4.338   4.533  0.00  0.00    +0.185 A 
ATOM     15  N   UNL     1       6.598  -5.157   5.492  0.00  0.00    -0.253 N 
ATOM     16  H   UNL     1       6.089  -5.770   6.045  0.00  0.00    +0.191 HD
ATOM     17  N   UNL     1       7.986  -4.946   5.529  0.00  0.00    -0.151 NA
ATOM     18  C   UNL     1       8.259  -4.037   4.617  0.00  0.00    +0.189 A 
ATOM     19  N   UNL     1       7.117  -3.673   4.012  0.00  0.00    -0.200 NA
BRANCH  18  20
ATOM     20  C   UNL     1       9.604  -3.505   4.309  0.00  0.00    +0.058 A 
ATOM     21  C   UNL     1      10.809  -3.829   4.870  0.00  0.00    +0.019 A 
ATOM     22  C   UNL     1      11.944  -3.196   4.414  0.00  0.00    +0.008 A 
ATOM     23  C   UNL     1      11.834  -2.272   3.425  0.00  0.00    +0.046 A 
ATOM     24  S   UNL     1      10.079  -2.280   3.100  0.00  0.00    -0.093 S 
ENDBRANCH  18  20
ENDBRANCH  13  14
ENDBRANCH  12  13
ENDBRANCH   9  12
ENDBRANCH   5   8
BRANCH   4  25
ATOM     25  C   UNL     1       2.327  -2.521  -1.645  0.00  0.00    +0.098 C 
ATOM     26  N   UNL     1       2.964  -3.201  -2.295  0.00  0.00    -0.191 NA
ENDBRANCH   4  25
BRANCH   6  27
ATOM     27  C   UNL     1       0.013  -0.570   2.279  0.00  0.00    +0.122 C 
BRANCH  27  28
ATOM     28  C   UNL     1      -0.553   0.770   2.676  0.00  0.00    -0.033 A 
ATOM     29  C   UNL     1       0.191   1.628   3.463  0.00  0.00    +0.008 A 
ATOM     30  C   UNL     1      -0.326   2.857   3.828  0.00  0.00    +0.038 A 
ATOM     31  C   UNL     1      -1.591   3.228   3.403  0.00  0.00    +0.123 A 
ATOM     32  C   UNL     1      -2.336   2.367   2.615  0.00  0.00    +0.038 A 
ATOM     33  C   UNL     1      -1.814   1.141   2.247  0.00  0.00    +0.008 A 
ATOM     34  F   UNL     1      -2.098   4.428   3.759  0.00  0.00    -0.205 F 
ENDBRANCH  27  28
ENDBRANCH   6  27
TORSDOF 8
