REMARK  Name = ZINC35696553
REMARK  14 active torsions:
REMARK  status: ('A' for Active; 'I' for Inactive)
REMARK    1  A    between atoms: C_1  and  C_2
REMARK    2  A    between atoms: C_3  and  C_31
REMARK    3  A    between atoms: C_4  and  C_23
REMARK    4  A    between atoms: C_7  and  C_12
REMARK    5  A    between atoms: C_13  and  N_15
REMARK    6  A    between atoms: N_15  and  C_16
REMARK    7  A    between atoms: C_16  and  C_17
REMARK    8  A    between atoms: C_27  and  O_29
REMARK    9  A    between atoms: O_29  and  C_30
REMARK   10  A    between atoms: C_31  and  O_33
REMARK   11  A    between atoms: O_33  and  C_34
REMARK   12  A    between atoms: C_34  and  C_35
REMARK   13  A    between atoms: C_35  and  O_36
REMARK   14  A    between atoms: O_36  and  C_37
REMARK                            x       y       z     vdW  Elec       q    Type
REMARK                         _______ _______ _______ _____ _____    ______ ____
ROOT
ATOM      1  C   UNL     1      -0.020   1.554   0.221  0.00  0.00    +0.066 C 
ATOM      2  C   UNL     1      -0.017   0.048   0.163  0.00  0.00    +0.053 C 
ATOM      3  C   UNL     1      -1.215  -0.640   0.146  0.00  0.00    +0.082 C 
ATOM      4  C   UNL     1      -1.159  -2.151   0.087  0.00  0.00    +0.150 C 
ATOM      5  N   UNL     1       0.189  -2.777   0.052  0.00  0.00    -0.267 N 
ATOM      6  C   UNL     1       0.477  -4.127  -0.003  0.00  0.00    +0.048 C 
ATOM      7  C   UNL     1       1.779  -4.489  -0.027  0.00  0.00    +0.072 C 
ATOM      8  S   UNL     1       2.603  -2.910   0.028  0.00  0.00    -0.060 S 
ATOM      9  C   UNL     1       1.251  -1.917   0.077  0.00  0.00    +0.166 C 
ATOM     10  N   UNL     1       1.133  -0.605   0.124  0.00  0.00    -0.230 NA
ENDROOT
BRANCH   4  11
ATOM     11  C   UNL     1      -1.908  -2.595  -1.143  0.00  0.00    -0.019 A 
ATOM     12  C   UNL     1      -1.344  -2.426  -2.394  0.00  0.00    +0.006 A 
ATOM     13  C   UNL     1      -2.028  -2.832  -3.524  0.00  0.00    +0.004 A 
ATOM     14  C   UNL     1      -3.279  -3.408  -3.406  0.00  0.00    +0.045 A 
ATOM     15  C   UNL     1      -3.846  -3.579  -2.152  0.00  0.00    +0.120 A 
ATOM     16  C   UNL     1      -3.155  -3.176  -1.019  0.00  0.00    +0.051 A 
BRANCH  15  17
ATOM     17  O   UNL     1      -5.076  -4.146  -2.034  0.00  0.00    -0.495 OA
ATOM     18  C   UNL     1      -5.727  -4.542  -3.243  0.00  0.00    +0.277 C 
ENDBRANCH  15  17
ENDBRANCH   4  11
BRANCH   6  19
ATOM     19  C   UNL     1      -0.594  -5.133  -0.033  0.00  0.00    +0.091 C 
ATOM     20  C   UNL     1      -0.290  -6.442   0.060  0.00  0.00    +0.239 C 
ATOM     21  O   UNL     1       0.984  -6.826   0.316  0.00  0.00    -0.271 OA
BRANCH  20  22
ATOM     22  N   UNL     1      -1.281  -7.395  -0.105  0.00  0.00    -0.309 N 
ATOM     23  H   UNL     1      -2.205  -7.121  -0.214  0.00  0.00    +0.149 HD
BRANCH  22  24
ATOM     24  C   UNL     1      -0.933  -8.818  -0.115  0.00  0.00    +0.136 C 
BRANCH  24  25
ATOM     25  C   UNL     1      -2.180  -9.646  -0.434  0.00  0.00    +0.135 C 
ATOM     26  C   UNL     1      -1.842 -11.158  -0.415  0.00  0.00    +0.035 C 
ATOM     27  C   UNL     1      -3.236 -11.768  -0.107  0.00  0.00    +0.031 C 
ATOM     28  C   UNL     1      -3.862 -10.704   0.820  0.00  0.00    +0.160 C 
ATOM     29  O   UNL     1      -3.172  -9.468   0.590  0.00  0.00    -0.375 OA
ENDBRANCH  24  25
ENDBRANCH  22  24
ENDBRANCH  20  22
ENDBRANCH   6  19
BRANCH   3  30
ATOM     30  C   UNL     1      -2.439   0.037   0.182  0.00  0.00    +0.339 C 
ATOM     31  O   UNL     1      -2.461   1.255   0.230  0.00  0.00    -0.245 OA
BRANCH  30  32
ATOM     32  O   UNL     1      -3.598  -0.658   0.164  0.00  0.00    -0.459 OA
BRANCH  32  33
ATOM     33  C   UNL     1      -4.809   0.098   0.203  0.00  0.00    +0.260 C 
BRANCH  33  34
ATOM     34  C   UNL     1      -6.006  -0.855   0.175  0.00  0.00    +0.200 C 
BRANCH  34  35
ATOM     35  O   UNL     1      -6.014  -1.644   1.367  0.00  0.00    -0.380 OA
ATOM     36  C   UNL     1      -7.098  -2.573   1.441  0.00  0.00    +0.194 C 
ENDBRANCH  34  35
ENDBRANCH  33  34
ENDBRANCH  32  33
ENDBRANCH  30  32
ENDBRANCH   3  30
TORSDOF 11
