REMARK  Name = ZINC21238318
REMARK  3 active torsions:
REMARK  status: ('A' for Active; 'I' for Inactive)
REMARK    1  A    between atoms: C_4  and  C_7
REMARK    2  A    between atoms: C_12  and  C_18
REMARK    3  A    between atoms: C_21  and  N_24
REMARK                            x       y       z     vdW  Elec       q    Type
REMARK                         _______ _______ _______ _____ _____    ______ ____
ROOT
ATOM      1  C   UNL     1      -5.948   6.713  -3.166  0.00  0.00    +0.032 C 
ATOM      2  C   UNL     1      -4.667   7.021  -2.386  0.00  0.00    +0.059 C 
ATOM      3  C   UNL     1      -4.588   6.132  -1.170  0.00  0.00    +0.018 C 
ATOM      4  C   UNL     1      -5.132   4.896  -1.180  0.00  0.00    +0.020 C 
ATOM      5  C   UNL     1      -5.034   4.022   0.048  0.00  0.00    +0.063 C 
ATOM      6  C   UNL     1      -5.121   4.894   1.302  0.00  0.00    +0.109 C 
ATOM      7  C   UNL     1      -4.176   6.059   1.159  0.00  0.00    +0.218 C 
ATOM      8  O   UNL     1      -3.617   6.508   2.136  0.00  0.00    -0.275 OA
ATOM      9  N   UNL     1      -3.951   6.602  -0.050  0.00  0.00    -0.289 N 
ATOM     10  C   UNL     1      -5.795   4.398  -2.313  0.00  0.00    +0.162 C 
ATOM     11  O   UNL     1      -6.261   3.276  -2.288  0.00  0.00    -0.292 OA
ATOM     12  C   UNL     1      -5.937   5.232  -3.558  0.00  0.00    +0.088 C 
ATOM     13  H   UNL     1      -3.242   7.439  -0.132  0.00  0.00    +0.155 HD
ENDROOT
BRANCH   1  17
ATOM     14  C   UNL     1      -6.099   9.129  -6.685  0.00  0.00    +0.000 A 
ATOM     15  C   UNL     1      -7.108   9.215  -5.744  0.00  0.00    +0.000 A 
ATOM     16  C   UNL     1      -7.059   8.433  -4.605  0.00  0.00    +0.004 A 
ATOM     17  C   UNL     1      -6.001   7.565  -4.407  0.00  0.00    -0.044 A 
ATOM     18  C   UNL     1      -4.990   7.483  -5.346  0.00  0.00    +0.004 A 
ATOM     19  C   UNL     1      -5.042   8.261  -6.488  0.00  0.00    +0.000 A 
ENDBRANCH   1  17
BRANCH   5  20
ATOM     20  C   UNL     1      -3.719   3.286   0.038  0.00  0.00    -0.039 A 
ATOM     21  C   UNL     1      -3.700   1.904   0.030  0.00  0.00    +0.006 A 
ATOM     22  C   UNL     1      -2.494   1.229   0.021  0.00  0.00    +0.033 A 
ATOM     23  C   UNL     1      -1.306   1.936   0.019  0.00  0.00    +0.126 A 
ATOM     24  C   UNL     1      -1.325   3.319   0.032  0.00  0.00    +0.033 A 
ATOM     25  C   UNL     1      -2.531   3.993   0.037  0.00  0.00    +0.006 A 
BRANCH  23  26
ATOM     26  N   UNL     1      -0.014   1.214   0.009  0.00  0.00    +0.056 N 
ATOM     27  O   UNL     1       0.002  -0.004   0.002  0.00  0.00    -0.126 OA
ATOM     28  O   UNL     1       1.032   1.837   0.002  0.00  0.00    -0.126 OA
ENDBRANCH  23  26
ENDBRANCH   5  20
TORSDOF 3
