REMARK  Name = ZINC11933123
REMARK  5 active torsions:
REMARK  status: ('A' for Active; 'I' for Inactive)
REMARK    1  A    between atoms: C_1  and  C_2
REMARK    2  A    between atoms: C_2  and  C_3
REMARK    3  A    between atoms: C_2  and  C_4
REMARK    4  A    between atoms: C_4  and  C_5
REMARK    5  A    between atoms: C_20  and  C_22
REMARK                            x       y       z     vdW  Elec       q    Type
REMARK                         _______ _______ _______ _____ _____    ______ ____
ROOT
ATOM      1  C   UNL     1      -0.574   2.984   1.546  0.00  0.00    +0.124 C 
ATOM      2  C   UNL     1      -0.593   3.629   0.178  0.00  0.00    +0.041 A 
ATOM      3  C   UNL     1      -0.330   2.959  -0.965  0.00  0.00    -0.016 A 
ATOM      4  C   UNL     1      -0.438   3.914  -2.049  0.00  0.00    +0.003 A 
ATOM      5  C   UNL     1      -0.274   3.799  -3.433  0.00  0.00    +0.010 A 
ATOM      6  C   UNL     1      -0.459   4.938  -4.176  0.00  0.00    +0.001 A 
ATOM      7  C   UNL     1      -0.792   6.151  -3.595  0.00  0.00    +0.002 A 
ATOM      8  C   UNL     1      -0.960   6.293  -2.228  0.00  0.00    +0.026 A 
ATOM      9  C   UNL     1      -0.779   5.153  -1.448  0.00  0.00    +0.047 A 
ATOM     10  N   UNL     1      -0.864   4.941  -0.102  0.00  0.00    -0.356 N 
ATOM     11  H   UNL     1      -1.083   5.619   0.556  0.00  0.00    +0.166 HD
ATOM     12  C   UNL     1       0.006   1.491  -1.043  0.00  0.00    +0.056 C 
ATOM     13  C   UNL     1       0.435   1.003   0.346  0.00  0.00    +0.113 C 
ATOM     14  N   UNL     1      -0.503   1.526   1.350  0.00  0.00    -0.286 N 
ATOM     15  C   UNL     1      -1.281   0.694   2.070  0.00  0.00    +0.282 C 
ATOM     16  O   UNL     1      -1.952   1.128   2.987  0.00  0.00    -0.267 OA
ENDROOT
BRANCH  15  17
ATOM     17  C   UNL     1      -1.318  -0.737   1.747  0.00  0.00    +0.189 A 
ATOM     18  C   UNL     1      -1.946  -1.707   2.475  0.00  0.00    +0.054 A 
ATOM     19  C   UNL     1      -1.727  -2.920   1.803  0.00  0.00    +0.042 A 
ATOM     20  C   UNL     1      -0.978  -2.642   0.713  0.00  0.00    +0.196 A 
ATOM     21  O   UNL     1      -0.734  -1.325   0.683  0.00  0.00    -0.458 OA
ENDBRANCH  15  17
BRANCH   1  22
ATOM     22  C   UNL     1       0.651   3.461   2.328  0.00  0.00    +0.031 C 
BRANCH  22  24
ATOM     23  C   UNL     1       1.880   3.276   4.496  0.00  0.00    +0.007 C 
ATOM     24  C   UNL     1       0.596   2.904   3.752  0.00  0.00    -0.015 C 
ATOM     25  C   UNL     1      -0.608   3.497   4.486  0.00  0.00    +0.007 C 
ENDBRANCH  22  24
ENDBRANCH   1  22
TORSDOF 3
