REMARK  Name = ZINC40003320
REMARK  6 active torsions:
REMARK  status: ('A' for Active; 'I' for Inactive)
REMARK    1  A    between atoms: C_1  and  C_2
REMARK    2  A    between atoms: C_9  and  C_33
REMARK    3  A    between atoms: C_10  and  C_11
REMARK    4  A    between atoms: C_11  and  C_13
REMARK    5  A    between atoms: C_18  and  C_20
REMARK    6  A    between atoms: C_24  and  O_26
REMARK                            x       y       z     vdW  Elec       q    Type
REMARK                         _______ _______ _______ _____ _____    ______ ____
ROOT
ATOM      1  C   UNL     1      -0.680  -5.324   3.842  0.00  0.00    +0.078 C 
ATOM      2  C   UNL     1      -0.650  -6.369   4.701  0.00  0.00    +0.250 C 
ATOM      3  C   UNL     1      -0.564  -5.861   6.082  0.00  0.00    +0.293 C 
ATOM      4  O   UNL     1      -0.519  -6.555   7.079  0.00  0.00    -0.266 OA
ATOM      5  N   UNL     1      -0.542  -4.515   6.077  0.00  0.00    -0.232 N 
ATOM      6  C   UNL     1      -0.606  -4.069   4.681  0.00  0.00    +0.152 C 
ATOM      7  C   UNL     1      -0.466  -3.695   7.194  0.00  0.00    +0.168 A 
ATOM      8  N   UNL     1      -0.448  -2.380   7.244  0.00  0.00    -0.233 NA
ATOM      9  C   UNL     1      -0.372  -1.742   8.396  0.00  0.00    +0.120 A 
ATOM     10  C   UNL     1      -0.315  -2.501   9.519  0.00  0.00    +0.068 A 
ATOM     11  S   UNL     1      -0.382  -4.141   8.815  0.00  0.00    -0.060 S 
ATOM     12  O   UNL     1      -0.692  -7.676   4.348  0.00  0.00    -0.282 OA
ENDROOT
BRANCH   6  13
ATOM     13  C   UNL     1       0.629  -3.282   4.327  0.00  0.00    -0.019 A 
ATOM     14  C   UNL     1       1.872  -3.721   4.746  0.00  0.00    +0.006 A 
ATOM     15  C   UNL     1       3.007  -3.002   4.423  0.00  0.00    +0.004 A 
ATOM     16  C   UNL     1       2.903  -1.841   3.681  0.00  0.00    +0.045 A 
ATOM     17  C   UNL     1       1.658  -1.398   3.260  0.00  0.00    +0.117 A 
ATOM     18  C   UNL     1       0.520  -2.126   3.580  0.00  0.00    +0.051 A 
BRANCH  17  19
ATOM     19  O   UNL     1       1.553  -0.257   2.530  0.00  0.00    -0.507 OA
ATOM     20  H   UNL     1       1.608  -0.394   1.574  0.00  0.00    +0.292 HD
ENDBRANCH  17  19
ENDBRANCH   6  13
BRANCH   1  21
ATOM     21  C   UNL     1      -0.764  -5.396   2.379  0.00  0.00    +0.213 C 
ATOM     22  O   UNL     1       0.227  -5.182   1.700  0.00  0.00    -0.285 OA
BRANCH  21  32
ATOM     23  C   UNL     1      -5.513  -6.764  -1.222  0.00  0.00    +0.047 C 
ATOM     24  C   UNL     1      -4.050  -6.453  -1.034  0.00  0.00    -0.008 A 
ATOM     25  C   UNL     1      -3.211  -6.416  -2.109  0.00  0.00    +0.008 A 
ATOM     26  C   UNL     1      -1.854  -6.126  -1.917  0.00  0.00    +0.018 A 
ATOM     27  C   UNL     1      -1.381  -5.883  -0.673  0.00  0.00    +0.093 A 
ATOM     28  N   UNL     1      -2.211  -5.918   0.403  0.00  0.00    -0.296 N 
ATOM     29  C   UNL     1      -3.540  -6.193   0.249  0.00  0.00    +0.141 A 
ATOM     30  N   UNL     1      -4.124  -6.159   1.447  0.00  0.00    -0.232 NA
ATOM     31  C   UNL     1      -3.228  -5.867   2.375  0.00  0.00    +0.068 A 
ATOM     32  C   UNL     1      -1.995  -5.713   1.754  0.00  0.00    +0.116 A 
ATOM     33  C   UNL     1      -3.496  -5.736   3.852  0.00  0.00    +0.068 C 
ENDBRANCH  21  32
ENDBRANCH   1  21
TORSDOF 4
