REMARK  Name = ZINC64773872
REMARK  8 active torsions:
REMARK  status: ('A' for Active; 'I' for Inactive)
REMARK    1  A    between atoms: C_1  and  C_2
REMARK    2  A    between atoms: C_5  and  C_8
REMARK    3  A    between atoms: C_8  and  S_9
REMARK    4  A    between atoms: S_9  and  C_10
REMARK    5  A    between atoms: C_16  and  C_24
REMARK    6  A    between atoms: C_27  and  O_30
REMARK    7  A    between atoms: O_30  and  C_31
REMARK    8  A    between atoms: C_31  and  C_32
REMARK                            x       y       z     vdW  Elec       q    Type
REMARK                         _______ _______ _______ _____ _____    ______ ____
ROOT
ATOM      1  C   UNL     1       2.244  -6.716  -0.018  0.00  0.00    +0.182 C 
ATOM      2  N   UNL     1       0.967  -7.045   0.070  0.00  0.00    -0.154 NA
ATOM      3  C   UNL     1       0.564  -8.316   0.130  0.00  0.00    +0.249 C 
ATOM      4  O   UNL     1      -0.614  -8.611   0.183  0.00  0.00    -0.273 OA
ATOM      5  C   UNL     1       1.648  -9.374   0.126  0.00  0.00    +0.148 C 
ATOM      6  C   UNL     1       1.365 -10.346  -1.022  0.00  0.00    +0.047 C 
ATOM      7  C   UNL     1       2.353 -11.512  -0.930  0.00  0.00    +0.105 C 
ATOM      8  C   UNL     1       3.760 -11.015  -0.765  0.00  0.00    +0.219 C 
ATOM      9  O   UNL     1       4.674 -11.768  -1.022  0.00  0.00    -0.275 OA
ATOM     10  N   UNL     1       4.050  -9.773  -0.344  0.00  0.00    -0.273 N 
ATOM     11  C   UNL     1       3.064  -8.870  -0.085  0.00  0.00    +0.117 C 
ATOM     12  N   UNL     1       3.258  -7.583  -0.127  0.00  0.00    -0.212 NA
ATOM     13  H   UNL     1       4.976  -9.516  -0.209  0.00  0.00    +0.156 HD
ENDROOT
BRANCH   6  14
ATOM     14  C   UNL     1       1.538  -9.636  -2.340  0.00  0.00    -0.042 A 
ATOM     15  C   UNL     1       2.807  -9.368  -2.819  0.00  0.00    +0.007 A 
ATOM     16  C   UNL     1       2.968  -8.717  -4.027  0.00  0.00    +0.046 A 
ATOM     17  C   UNL     1       1.854  -8.332  -4.759  0.00  0.00    +0.121 A 
ATOM     18  C   UNL     1       0.582  -8.603  -4.277  0.00  0.00    +0.046 A 
ATOM     19  C   UNL     1       0.427  -9.259  -3.071  0.00  0.00    +0.007 A 
BRANCH  17  20
ATOM     20  O   UNL     1       2.010  -7.691  -5.947  0.00  0.00    -0.483 OA
BRANCH  20  21
ATOM     21  C   UNL     1       0.819  -7.325  -6.647  0.00  0.00    +0.324 C 
BRANCH  21  22
ATOM     22  C   UNL     1       1.186  -6.630  -7.933  0.00  0.00    +0.248 C 
ATOM     23  O   UNL     1       2.352  -6.464  -8.222  0.00  0.00    -0.272 OA
ATOM     24  N   UNL     1       0.218  -6.191  -8.762  0.00  0.00    -0.327 N 
ATOM     25  H   UNL     1      -0.715  -6.324  -8.532  0.00  0.00    +0.145 HD
ATOM     26  H   UNL     1       0.454  -5.744  -9.590  0.00  0.00    +0.145 HD
ENDBRANCH  21  22
ENDBRANCH  20  21
ENDBRANCH  17  20
ENDBRANCH   6  14
BRANCH   1  27
ATOM     27  S   UNL     1       2.643  -5.000   0.003  0.00  0.00    -0.084 S 
BRANCH  27  28
ATOM     28  C   UNL     1       1.033  -4.177   0.159  0.00  0.00    +0.112 C 
BRANCH  28  33
ATOM     29  C   UNL     1       1.796   1.550   0.273  0.00  0.00    +0.044 C 
ATOM     30  C   UNL     1       1.597   0.056   0.243  0.00  0.00    -0.050 A 
ATOM     31  C   UNL     1       1.410  -0.592  -0.963  0.00  0.00    +0.003 A 
ATOM     32  C   UNL     1       1.228  -1.962  -0.991  0.00  0.00    +0.005 A 
ATOM     33  C   UNL     1       1.233  -2.684   0.188  0.00  0.00    -0.037 A 
ATOM     34  C   UNL     1       1.421  -2.035   1.395  0.00  0.00    +0.005 A 
ATOM     35  C   UNL     1       1.608  -0.666   1.422  0.00  0.00    +0.003 A 
ENDBRANCH  28  33
ENDBRANCH  27  28
ENDBRANCH   1  27
TORSDOF 7
