REMARK  Name = ZINC02918970
REMARK  4 active torsions:
REMARK  status: ('A' for Active; 'I' for Inactive)
REMARK    1  A    between atoms: C_1  and  O_2
REMARK    2  A    between atoms: O_2  and  C_3
REMARK    3  A    between atoms: C_6  and  C_9
REMARK    4  A    between atoms: C_12  and  C_20
REMARK                            x       y       z     vdW  Elec       q    Type
REMARK                         _______ _______ _______ _____ _____    ______ ____
ROOT
ATOM      1  C   UNL     1       2.505  -2.503  -4.381  0.00  0.00    +0.106 C 
ATOM      2  C   UNL     1       1.442  -2.970  -5.383  0.00  0.00    +0.059 C 
ATOM      3  C   UNL     1       2.122  -3.603  -6.604  0.00  0.00    +0.144 C 
ATOM      4  N   UNL     1       3.113  -4.570  -6.142  0.00  0.00    -0.206 N 
ATOM      5  C   UNL     1       3.633  -4.597  -4.888  0.00  0.00    +0.236 A 
ATOM      6  N   UNL     1       4.476  -5.589  -4.839  0.00  0.00    -0.092 NA
ATOM      7  N   UNL     1       4.525  -6.190  -5.978  0.00  0.00    -0.021 NA
ATOM      8  N   UNL     1       3.723  -5.625  -6.821  0.00  0.00    -0.042 NA
ATOM      9  N   UNL     1       3.266  -3.678  -3.913  0.00  0.00    -0.305 N 
ATOM     10  H   UNL     1       3.495  -3.802  -2.979  0.00  0.00    +0.150 HD
ENDROOT
BRANCH   3  11
ATOM     11  C   UNL     1       1.089  -4.299  -7.452  0.00  0.00    -0.022 A 
ATOM     12  C   UNL     1       0.334  -5.326  -6.918  0.00  0.00    +0.006 A 
ATOM     13  C   UNL     1      -0.613  -5.966  -7.695  0.00  0.00    +0.001 A 
ATOM     14  C   UNL     1      -0.806  -5.578  -9.008  0.00  0.00    +0.015 A 
ATOM     15  C   UNL     1      -0.050  -4.551  -9.544  0.00  0.00    +0.018 A 
ATOM     16  C   UNL     1       0.894  -3.908  -8.763  0.00  0.00    +0.021 A 
ATOM     17 BR   UNL     1      -0.312  -4.021 -11.340  0.00  0.00    -0.050 Br
ENDBRANCH   3  11
BRANCH   1  21
ATOM     18  C   UNL     1       0.606  -0.607  -1.056  0.00  0.00    +0.120 A 
ATOM     19  C   UNL     1       1.173   0.161  -2.062  0.00  0.00    +0.046 A 
ATOM     20  C   UNL     1       1.786  -0.455  -3.136  0.00  0.00    +0.009 A 
ATOM     21  C   UNL     1       1.835  -1.835  -3.209  0.00  0.00    -0.027 A 
ATOM     22  C   UNL     1       1.270  -2.602  -2.207  0.00  0.00    +0.009 A 
ATOM     23  C   UNL     1       0.661  -1.992  -1.128  0.00  0.00    +0.046 A 
BRANCH  18  25
ATOM     24  C   UNL     1      -0.017   1.425   0.010  0.00  0.00    +0.277 C 
ATOM     25  O   UNL     1       0.002  -0.004   0.002  0.00  0.00    -0.495 OA
ENDBRANCH  18  25
ENDBRANCH   1  21
TORSDOF 3
