REMARK  Name = ZINC13839849
REMARK  4 active torsions:
REMARK  status: ('A' for Active; 'I' for Inactive)
REMARK    1  A    between atoms: C_8  and  C_13
REMARK    2  A    between atoms: C_13  and  C_14
REMARK    3  A    between atoms: C_13  and  C_21
REMARK    4  A    between atoms: C_17  and  O_20
REMARK                            x       y       z     vdW  Elec       q    Type
REMARK                         _______ _______ _______ _____ _____    ______ ____
ROOT
ATOM      1  C   UNL     1       2.677  -4.256  -0.046  0.00  0.00    +0.097 C 
ENDROOT
BRANCH   1   9
ATOM      2  C   UNL     1       4.355   0.929   2.995  0.00  0.00    +0.001 A 
ATOM      3  C   UNL     1       5.611   1.026   2.413  0.00  0.00    +0.002 A 
ATOM      4  C   UNL     1       6.032   0.094   1.489  0.00  0.00    +0.026 A 
ATOM      5  C   UNL     1       5.192  -0.957   1.134  0.00  0.00    +0.053 A 
ATOM      6  C   UNL     1       3.921  -1.054   1.723  0.00  0.00    +0.045 A 
ATOM      7  C   UNL     1       3.508  -0.104   2.656  0.00  0.00    +0.014 A 
ATOM      8  C   UNL     1       3.046  -2.176   1.333  0.00  0.00    +0.197 A 
ATOM      9  C   UNL     1       3.533  -3.093   0.385  0.00  0.00    +0.076 A 
ATOM     10  C   UNL     1       4.778  -2.933  -0.143  0.00  0.00    +0.257 A 
ATOM     11  O   UNL     1       5.221  -3.829  -1.052  0.00  0.00    -0.267 OA
ATOM     12  N   UNL     1       5.589  -1.902   0.211  0.00  0.00    -0.322 N 
ATOM     13  H   UNL     1       6.468  -1.830  -0.193  0.00  0.00    +0.169 HD
ATOM     14  O   UNL     1       1.933  -2.303   1.818  0.00  0.00    -0.287 OA
ENDBRANCH   1   9
BRANCH   1  15
ATOM     15  C   UNL     1       1.770  -3.823  -1.169  0.00  0.00    +0.076 A 
ATOM     16  C   UNL     1       0.980  -4.773  -1.840  0.00  0.00    +0.197 A 
ATOM     17  C   UNL     1       0.108  -4.301  -2.932  0.00  0.00    +0.045 A 
ATOM     18  C   UNL     1      -0.705  -5.183  -3.643  0.00  0.00    +0.014 A 
ATOM     19  C   UNL     1      -1.506  -4.703  -4.656  0.00  0.00    +0.001 A 
ATOM     20  C   UNL     1      -1.506  -3.351  -4.970  0.00  0.00    +0.002 A 
ATOM     21  C   UNL     1      -0.708  -2.468  -4.276  0.00  0.00    +0.026 A 
ATOM     22  C   UNL     1       0.108  -2.933  -3.248  0.00  0.00    +0.053 A 
ATOM     23  N   UNL     1       0.916  -2.070  -2.538  0.00  0.00    -0.322 N 
ATOM     24  H   UNL     1       0.912  -1.126  -2.760  0.00  0.00    +0.169 HD
ATOM     25  C   UNL     1       1.713  -2.511  -1.529  0.00  0.00    +0.257 A 
ATOM     26  O   UNL     1       2.479  -1.619  -0.865  0.00  0.00    -0.267 OA
ATOM     27  O   UNL     1       1.014  -5.953  -1.528  0.00  0.00    -0.287 OA
ENDBRANCH   1  15
BRANCH   1  28
ATOM     28  C   UNL     1       1.845  -4.726   1.119  0.00  0.00    -0.035 A 
ATOM     29  C   UNL     1       0.486  -4.470   1.144  0.00  0.00    +0.008 A 
ATOM     30  C   UNL     1      -0.279  -4.900   2.211  0.00  0.00    +0.046 A 
ATOM     31  C   UNL     1       0.317  -5.589   3.258  0.00  0.00    +0.117 A 
ATOM     32  C   UNL     1       1.680  -5.845   3.230  0.00  0.00    +0.046 A 
ATOM     33  C   UNL     1       2.440  -5.417   2.158  0.00  0.00    +0.008 A 
BRANCH  31  34
ATOM     34  O   UNL     1      -0.434  -6.012   4.309  0.00  0.00    -0.507 OA
ATOM     35  H   UNL     1      -0.803  -6.898   4.197  0.00  0.00    +0.292 HD
ENDBRANCH  31  34
ENDBRANCH   1  28
TORSDOF 4
