REMARK  Name = ZINC13037801
REMARK  7 active torsions:
REMARK  status: ('A' for Active; 'I' for Inactive)
REMARK    1  A    between atoms: C_1  and  C_2
REMARK    2  A    between atoms: N_5  and  S_11
REMARK    3  A    between atoms: C_7  and  C_10
REMARK    4  A    between atoms: S_11  and  C_14
REMARK    5  A    between atoms: C_17  and  N_20
REMARK    6  A    between atoms: C_21  and  C_23
REMARK    7  A    between atoms: C_23  and  C_24
REMARK                            x       y       z     vdW  Elec       q    Type
REMARK                         _______ _______ _______ _____ _____    ______ ____
ROOT
ATOM      1  C   UNL     1      -1.165  -3.411  -2.163  0.00  0.00    +0.106 A 
ATOM      2  C   UNL     1      -1.266  -2.728  -3.361  0.00  0.00    +0.030 A 
ATOM      3  C   UNL     1      -0.422  -3.039  -4.409  0.00  0.00    +0.025 A 
ATOM      4  C   UNL     1       0.529  -4.040  -4.259  0.00  0.00    +0.033 A 
ATOM      5  C   UNL     1       0.628  -4.724  -3.055  0.00  0.00    +0.025 A 
ATOM      6  C   UNL     1      -0.216  -4.405  -2.009  0.00  0.00    +0.030 A 
ENDROOT
BRANCH   4   7
ATOM      7  N   UNL     1       1.385  -4.358  -5.319  0.00  0.00    -0.285 N 
ATOM      8  C   UNL     1       1.793  -3.394  -6.168  0.00  0.00    +0.221 C 
ATOM      9  O   UNL     1       1.497  -2.237  -5.959  0.00  0.00    -0.275 OA
ATOM     10  H   UNL     1       1.685  -5.272  -5.442  0.00  0.00    +0.155 HD
BRANCH   8  11
ATOM     11  C   UNL     1       2.617  -3.755  -7.377  0.00  0.00    +0.150 C 
BRANCH  11  12
ATOM     12  C   UNL     1       2.945  -2.487  -8.168  0.00  0.00    +0.268 C 
ATOM     13  C   UNL     1       3.873  -2.831  -9.306  0.00  0.00    +0.259 C 
ATOM     14  O   UNL     1       5.074  -2.746  -9.159  0.00  0.00    -0.271 OA
ATOM     15  N   UNL     1       3.361  -3.233 -10.488  0.00  0.00    -0.280 N 
ATOM     16  C   UNL     1       1.972  -3.204 -10.677  0.00  0.00    +0.076 A 
ATOM     17  C   UNL     1       1.399  -3.817 -11.780  0.00  0.00    +0.027 A 
ATOM     18  C   UNL     1       0.026  -3.790 -11.945  0.00  0.00    +0.002 A 
ATOM     19  C   UNL     1      -0.774  -3.155 -11.014  0.00  0.00    +0.004 A 
ATOM     20  C   UNL     1      -0.208  -2.537  -9.914  0.00  0.00    +0.047 A 
ATOM     21  C   UNL     1       1.166  -2.554  -9.745  0.00  0.00    +0.143 A 
ATOM     22  O   UNL     1       1.738  -1.923  -8.685  0.00  0.00    -0.477 OA
ATOM     23  H   UNL     1       3.947  -3.539 -11.197  0.00  0.00    +0.155 HD
ENDBRANCH  11  12
ENDBRANCH   8  11
ENDBRANCH   4   7
BRANCH   1  24
ATOM     24  S   UNL     1      -2.244  -3.011  -0.829  0.00  0.00    +0.061 S 
ATOM     25  O   UNL     1      -2.307  -4.162   0.002  0.00  0.00    -0.153 OA
ATOM     26  O   UNL     1      -3.402  -2.424  -1.405  0.00  0.00    -0.153 OA
BRANCH  24  30
ATOM     27  C   UNL     1      -0.548   1.794  -0.481  0.00  0.00    +0.039 C 
ATOM     28  C   UNL     1      -0.354   0.282  -0.356  0.00  0.00    +0.131 C 
ATOM     29  C   UNL     1      -1.721  -0.403  -0.246  0.00  0.00    +0.140 C 
ATOM     30  N   UNL     1      -1.504  -1.826   0.060  0.00  0.00    -0.172 NA
ATOM     31  C   UNL     1      -0.612  -2.164   1.179  0.00  0.00    +0.140 C 
ATOM     32  C   UNL     1       0.702  -1.393   1.000  0.00  0.00    +0.131 C 
ATOM     33  O   UNL     1       0.413  -0.006   0.816  0.00  0.00    -0.371 OA
ATOM     34  C   UNL     1       1.574  -1.574   2.244  0.00  0.00    +0.039 C 
ENDBRANCH  24  30
ENDBRANCH   1  24
TORSDOF 5
