REMARK  Name = ZINC00445459
REMARK  2 active torsions:
REMARK  status: ('A' for Active; 'I' for Inactive)
REMARK    1  A    between atoms: C_3  and  N_24
REMARK    2  A    between atoms: C_6  and  C_7
REMARK                            x       y       z     vdW  Elec       q    Type
REMARK                         _______ _______ _______ _____ _____    ______ ____
ROOT
ATOM      1  C   UNL     1       0.193  -0.450  -1.451  0.00  0.00    +0.105 C 
ATOM      2  C   UNL     1       0.002  -0.004   0.002  0.00  0.00    +0.029 C 
ATOM      3  C   UNL     1      -0.019   1.553   0.011  0.00  0.00    +0.033 C 
ATOM      4  C   UNL     1       1.451   1.924  -0.002  0.00  0.00    -0.030 C 
ATOM      5  C   UNL     1       2.180   0.927   0.439  0.00  0.00    -0.023 C 
ATOM      6  C   UNL     1       1.299  -0.245   0.800  0.00  0.00    +0.049 C 
ATOM      7  C   UNL     1       1.954  -1.547   0.468  0.00  0.00    -0.018 A 
ATOM      8  C   UNL     1       2.978  -2.005   1.286  0.00  0.00    +0.026 A 
ATOM      9  C   UNL     1       3.606  -3.206   1.019  0.00  0.00    +0.041 A 
ATOM     10  C   UNL     1       3.220  -3.968  -0.070  0.00  0.00    +0.022 A 
ATOM     11  C   UNL     1       2.204  -3.522  -0.891  0.00  0.00    +0.024 A 
ATOM     12  C   UNL     1       1.574  -2.313  -0.624  0.00  0.00    +0.031 A 
ATOM     13  N   UNL     1       0.547  -1.873  -1.468  0.00  0.00    -0.336 N 
ATOM     14 CL   UNL     1       4.885  -3.762   2.053  0.00  0.00    -0.084 Cl
ATOM     15  H   UNL     1       0.081  -2.494  -2.049  0.00  0.00    +0.147 HD
ENDROOT
BRANCH   1  21
ATOM     16  C   UNL     1      -2.114  -1.159  -2.112  0.00  0.00    +0.008 A 
ATOM     17  C   UNL     1      -3.291  -0.963  -2.811  0.00  0.00    +0.033 A 
ATOM     18  C   UNL     1      -3.438   0.147  -3.620  0.00  0.00    +0.126 A 
ATOM     19  C   UNL     1      -2.409   1.065  -3.728  0.00  0.00    +0.033 A 
ATOM     20  C   UNL     1      -1.234   0.871  -3.026  0.00  0.00    +0.008 A 
ATOM     21  C   UNL     1      -1.088  -0.239  -2.216  0.00  0.00    -0.027 A 
BRANCH  18  22
ATOM     22  N   UNL     1      -4.696   0.355  -4.371  0.00  0.00    +0.056 N 
ATOM     23  O   UNL     1      -4.826   1.334  -5.084  0.00  0.00    -0.126 OA
ATOM     24  O   UNL     1      -5.603  -0.453  -4.276  0.00  0.00    -0.126 OA
ENDBRANCH  18  22
ENDBRANCH   1  21
TORSDOF 2
