REMARK  Name = ZINC39708653
REMARK  2 active torsions:
REMARK  status: ('A' for Active; 'I' for Inactive)
REMARK    1  A    between atoms: C_7  and  C_10
REMARK    2  A    between atoms: N_11  and  N_12
REMARK                            x       y       z     vdW  Elec       q    Type
REMARK                         _______ _______ _______ _____ _____    ______ ____
ROOT
ATOM      1  N   UNL     1       0.327  -5.353  -0.029  0.00  0.00    -0.204 N 
ATOM      2  C   UNL     1       0.818  -6.649  -0.040  0.00  0.00    +0.256 A 
ATOM      3  N   UNL     1      -0.032  -7.666  -0.043  0.00  0.00    -0.191 NA
ATOM      4  C   UNL     1       0.442  -8.916  -0.052  0.00  0.00    +0.181 A 
ATOM      5  C   UNL     1       1.842  -9.085  -0.027  0.00  0.00    +0.120 A 
ATOM      6  N   UNL     1       2.628  -8.037  -0.043  0.00  0.00    -0.146 NA
ATOM      7  N   UNL     1       2.130  -6.848  -0.054  0.00  0.00    -0.111 NA
ATOM      8  C   UNL     1       2.045 -10.569   0.055  0.00  0.00    +0.115 C 
ATOM      9  C   UNL     1       2.933 -11.130  -1.017  0.00  0.00    -0.011 C 
ATOM     10  C   UNL     1       2.638 -12.319  -1.554  0.00  0.00    -0.003 C 
ATOM     11  C   UNL     1       1.451 -13.081  -1.180  0.00  0.00    +0.002 C 
ATOM     12  C   UNL     1       0.429 -12.475  -0.506  0.00  0.00    +0.024 C 
ATOM     13  C   UNL     1       0.645 -11.121  -0.149  0.00  0.00    +0.057 C 
ATOM     14  N   UNL     1      -0.179 -10.123  -0.099  0.00  0.00    -0.230 NA
ATOM     15  H   UNL     1      -0.630  -5.197  -0.019  0.00  0.00    +0.177 HD
ENDROOT
BRANCH   1  17
ATOM     16  C   UNL     1       0.678  -3.127  -0.021  0.00  0.00    +0.136 C 
ATOM     17  N   UNL     1       1.143  -4.354  -0.032  0.00  0.00    -0.188 NA
BRANCH  16  24
ATOM     18  C   UNL     1      -0.016   1.353   0.009  0.00  0.00    +0.001 A 
ATOM     19  C   UNL     1       1.164   2.101   0.002  0.00  0.00    +0.002 A 
ATOM     20  C   UNL     1       2.384   1.512  -0.013  0.00  0.00    +0.026 A 
ATOM     21  C   UNL     1       2.483   0.096  -0.022  0.00  0.00    +0.043 A 
ATOM     22  N   UNL     1       3.530  -0.705  -0.036  0.00  0.00    -0.380 N 
ATOM     23  C   UNL     1       3.075  -2.098  -0.039  0.00  0.00    +0.150 C 
ATOM     24  C   UNL     1       1.563  -2.044  -0.024  0.00  0.00    +0.000 C 
ATOM     25  C   UNL     1       1.237  -0.687  -0.013  0.00  0.00    +0.004 A 
ATOM     26  C   UNL     1       0.002  -0.004   0.002  0.00  0.00    +0.010 A 
ATOM     27  H   UNL     1       4.457  -0.417  -0.044  0.00  0.00    +0.160 HD
ENDBRANCH  16  24
ENDBRANCH   1  17
TORSDOF 2
