REMARK  Name = ZINC18209943
REMARK  7 active torsions:
REMARK  status: ('A' for Active; 'I' for Inactive)
REMARK    1  A    between atoms: C_4  and  C_7
REMARK    2  A    between atoms: C_10  and  C_29
REMARK    3  A    between atoms: C_14  and  C_17
REMARK    4  A    between atoms: N_19  and  C_20
REMARK    5  A    between atoms: C_20  and  C_21
REMARK    6  A    between atoms: C_21  and  C_22
REMARK    7  A    between atoms: C_22  and  N_23
REMARK                            x       y       z     vdW  Elec       q    Type
REMARK                         _______ _______ _______ _____ _____    ______ ____
ROOT
ATOM      1  C   UNL     1       3.711  -0.707  -0.038  0.00  0.00    +0.104 C 
ATOM      2  C   UNL     1       4.019  -1.179  -1.463  0.00  0.00    +0.063 C 
ATOM      3  C   UNL     1       2.875  -2.062  -1.976  0.00  0.00    +0.215 C 
ATOM      4  N   UNL     1       2.574  -3.081  -0.965  0.00  0.00    -0.238 N 
ATOM      5  C   UNL     1       2.937  -2.978   0.336  0.00  0.00    +0.130 A 
ATOM      6  C   UNL     1       2.491  -4.114   0.985  0.00  0.00    +0.096 A 
ATOM      7  C   UNL     1       1.837  -4.911   0.011  0.00  0.00    +0.149 A 
ATOM      8  N   UNL     1       1.894  -4.286  -1.134  0.00  0.00    -0.177 NA
ATOM      9  N   UNL     1       3.630  -1.889   0.844  0.00  0.00    -0.322 N 
ATOM     10  H   UNL     1       4.040  -1.901   1.723  0.00  0.00    +0.148 HD
ENDROOT
BRANCH   1  14
ATOM     11  C   UNL     1      -0.017   1.378   0.010  0.00  0.00    +0.000 A 
ATOM     12  C   UNL     1       1.171   2.086   0.002  0.00  0.00    +0.000 A 
ATOM     13  C   UNL     1       2.377   1.411  -0.013  0.00  0.00    +0.005 A 
ATOM     14  C   UNL     1       2.396   0.029  -0.020  0.00  0.00    -0.027 A 
ATOM     15  C   UNL     1       1.208  -0.679  -0.012  0.00  0.00    +0.005 A 
ATOM     16  C   UNL     1       0.002  -0.004   0.002  0.00  0.00    +0.000 A 
ENDBRANCH   1  14
BRANCH   6  17
ATOM     17  C   UNL     1       2.661  -4.434   2.407  0.00  0.00    +0.249 C 
ATOM     18  O   UNL     1       3.246  -3.658   3.139  0.00  0.00    -0.270 OA
ATOM     19  N   UNL     1       2.169  -5.587   2.902  0.00  0.00    -0.311 N 
ATOM     20  H   UNL     1       1.702  -6.205   2.318  0.00  0.00    +0.149 HD
BRANCH  19  21
ATOM     21  C   UNL     1       2.339  -5.906   4.322  0.00  0.00    +0.106 C 
BRANCH  21  22
ATOM     22  C   UNL     1       1.694  -7.261   4.621  0.00  0.00    +0.040 C 
BRANCH  22  23
ATOM     23  C   UNL     1       1.871  -7.594   6.104  0.00  0.00    +0.124 C 
BRANCH  23  24
ATOM     24  N   UNL     1       1.253  -8.891   6.390  0.00  0.00    -0.338 N 
ATOM     25  C   UNL     1      -0.044  -9.107   6.770  0.00  0.00    +0.104 A 
ATOM     26  C   UNL     1      -0.188 -10.436   6.927  0.00  0.00    +0.101 A 
ATOM     27  N   UNL     1       0.989 -11.017   6.649  0.00  0.00    -0.352 N 
ATOM     28  C   UNL     1       1.855 -10.098   6.322  0.00  0.00    +0.173 A 
ATOM     29  H   UNL     1       1.166 -11.970   6.683  0.00  0.00    +0.166 HD
ENDBRANCH  23  24
ENDBRANCH  22  23
ENDBRANCH  21  22
ENDBRANCH  19  21
ENDBRANCH   6  17
BRANCH   3  30
ATOM     30  C   UNL     1       3.296  -2.740  -3.281  0.00  0.00    +0.412 C 
ATOM     31  F   UNL     1       4.428  -3.530  -3.052  0.00  0.00    -0.168 F 
ATOM     32  F   UNL     1       2.251  -3.545  -3.747  0.00  0.00    -0.168 F 
ATOM     33  F   UNL     1       3.595  -1.764  -4.238  0.00  0.00    -0.168 F 
ENDBRANCH   3  30
TORSDOF 7
