REMARK  Name = ZINC08642749
REMARK  4 active torsions:
REMARK  status: ('A' for Active; 'I' for Inactive)
REMARK    1  A    between atoms: C_1  and  N_2
REMARK    2  A    between atoms: C_6  and  C_7
REMARK    3  A    between atoms: N_16  and  C_17
REMARK    4  A    between atoms: C_20  and  C_23
REMARK                            x       y       z     vdW  Elec       q    Type
REMARK                         _______ _______ _______ _____ _____    ______ ____
ROOT
ATOM      1  C   UNL     1      -7.412   1.550   0.475  0.00  0.00    +0.140 C 
ATOM      2  N   UNL     1      -6.029   2.019   0.350  0.00  0.00    -0.249 N 
ATOM      3  C   UNL     1      -5.047   1.139   0.249  0.00  0.00    +0.259 C 
ATOM      4  O   UNL     1      -5.262  -0.059   0.257  0.00  0.00    -0.269 OA
ATOM      5  C   UNL     1      -3.677   1.677   0.131  0.00  0.00    +0.078 C 
ATOM      6  C   UNL     1      -2.499   1.014   0.019  0.00  0.00    +0.028 C 
ATOM      7  S   UNL     1      -3.990   3.436   0.167  0.00  0.00    -0.049 S 
ATOM      8  C   UNL     1      -5.767   3.370   0.331  0.00  0.00    +0.168 C 
ATOM      9  N   UNL     1      -6.619   4.370   0.414  0.00  0.00    -0.226 NA
ENDROOT
BRANCH   6  10
ATOM     10  C   UNL     1      -1.262   1.757  -0.259  0.00  0.00    -0.024 A 
ATOM     11  C   UNL     1      -1.323   3.064  -0.754  0.00  0.00    +0.011 A 
ATOM     12  C   UNL     1      -0.159   3.757  -1.008  0.00  0.00    +0.039 A 
ATOM     13  C   UNL     1       1.071   3.159  -0.778  0.00  0.00    +0.123 A 
ATOM     14  C   UNL     1       1.139   1.862  -0.292  0.00  0.00    +0.039 A 
ATOM     15  C   UNL     1      -0.017   1.158  -0.035  0.00  0.00    +0.011 A 
ATOM     16  F   UNL     1       2.208   3.844  -1.028  0.00  0.00    -0.205 F 
ENDBRANCH   6  10
BRANCH   9  17
ATOM     17  C   UNL     1      -6.167   5.655   0.378  0.00  0.00    +0.067 A 
ATOM     18  C   UNL     1      -5.054   6.027   1.141  0.00  0.00    +0.028 A 
ATOM     19  C   UNL     1      -4.598   7.312   1.100  0.00  0.00    +0.017 A 
ATOM     20  C   UNL     1      -5.250   8.261   0.303  0.00  0.00    +0.063 A 
ATOM     21  C   UNL     1      -6.367   7.890  -0.456  0.00  0.00    +0.017 A 
ATOM     22  C   UNL     1      -6.819   6.604  -0.419  0.00  0.00    +0.028 A 
BRANCH  20  23
ATOM     23  C   UNL     1      -4.763   9.650   0.265  0.00  0.00    +0.387 C 
ATOM     24  O   UNL     1      -5.329  10.474  -0.427  0.00  0.00    -0.241 OA
ATOM     25  O   UNL     1      -3.688  10.007   0.996  0.00  0.00    -0.241 OA
ENDBRANCH  20  23
ENDBRANCH   9  17
TORSDOF 3
