REMARK  Name = ZINC25673559
REMARK  5 active torsions:
REMARK  status: ('A' for Active; 'I' for Inactive)
REMARK    1  A    between atoms: C_4  and  C_7
REMARK    2  A    between atoms: C_7  and  C_9
REMARK    3  A    between atoms: C_7  and  N_14
REMARK    4  A    between atoms: N_14  and  S_15
REMARK    5  A    between atoms: S_15  and  C_18
REMARK                            x       y       z     vdW  Elec       q    Type
REMARK                         _______ _______ _______ _____ _____    ______ ____
ROOT
ATOM      1  S   UNL     1       4.922  -2.334  -1.827  0.00  0.00    +0.059 S 
ATOM      2  O   UNL     1       4.523  -3.485  -2.559  0.00  0.00    -0.153 OA
ATOM      3  O   UNL     1       5.422  -1.164  -2.459  0.00  0.00    -0.153 OA
ENDROOT
BRANCH   1   4
ATOM      4  C   UNL     1       6.165  -2.864  -0.695  0.00  0.00    +0.107 A 
ATOM      5  C   UNL     1       7.088  -1.920  -0.202  0.00  0.00    +0.030 A 
ATOM      6  C   UNL     1       8.065  -2.263   0.668  0.00  0.00    +0.027 A 
ATOM      7  C   UNL     1       8.174  -3.609   1.106  0.00  0.00    +0.055 A 
ATOM      8  N   UNL     1       9.114  -3.971   1.952  0.00  0.00    -0.276 N 
ATOM      9  C   UNL     1       9.197  -5.256   2.355  0.00  0.00    +0.304 C 
ATOM     10  O   UNL     1      10.062  -5.597   3.136  0.00  0.00    -0.265 OA
ATOM     11  C   UNL     1       8.217  -6.257   1.832  0.00  0.00    +0.304 C 
ATOM     12  O   UNL     1       8.280  -7.417   2.186  0.00  0.00    -0.265 OA
ATOM     13  N   UNL     1       7.261  -5.863   0.965  0.00  0.00    -0.276 N 
ATOM     14  C   UNL     1       7.199  -4.603   0.587  0.00  0.00    +0.057 A 
ATOM     15  C   UNL     1       6.200  -4.163  -0.320  0.00  0.00    +0.053 A 
ATOM     16  H   UNL     1       6.622  -6.506   0.621  0.00  0.00    +0.155 HD
ATOM     17  H   UNL     1       9.746  -3.315   2.286  0.00  0.00    +0.155 HD
ENDBRANCH   1   4
BRANCH   1  18
ATOM     18  N   UNL     1       3.611  -1.865  -0.930  0.00  0.00    -0.178 NA
ATOM     19  H   UNL     1       2.778  -2.356  -0.996  0.00  0.00    +0.149 HD
BRANCH  18  20
ATOM     20  C   UNL     1       3.711  -0.707  -0.038  0.00  0.00    +0.143 C 
BRANCH  20  24
ATOM     21  C   UNL     1      -0.017   1.378   0.010  0.00  0.00    +0.000 A 
ATOM     22  C   UNL     1       1.171   2.086   0.002  0.00  0.00    +0.000 A 
ATOM     23  C   UNL     1       2.377   1.411  -0.013  0.00  0.00    +0.005 A 
ATOM     24  C   UNL     1       2.396   0.029  -0.020  0.00  0.00    -0.024 A 
ATOM     25  C   UNL     1       1.208  -0.679  -0.012  0.00  0.00    +0.005 A 
ATOM     26  C   UNL     1       0.002  -0.004   0.002  0.00  0.00    +0.000 A 
ENDBRANCH  20  24
BRANCH  20  27
ATOM     27  C   UNL     1       4.044  -1.175   1.356  0.00  0.00    +0.013 A 
ATOM     28  C   UNL     1       4.883  -0.621   2.264  0.00  0.00    +0.013 A 
ATOM     29  C   UNL     1       5.034  -1.230   3.496  0.00  0.00    +0.008 A 
ATOM     30  C   UNL     1       4.338  -2.363   3.759  0.00  0.00    +0.045 A 
ATOM     31  S   UNL     1       3.428  -2.598   2.241  0.00  0.00    -0.100 S 
ENDBRANCH  20  27
ENDBRANCH  18  20
ENDBRANCH   1  18
TORSDOF 5
