REMARK  Name = ZINC15349989
REMARK  4 active torsions:
REMARK  status: ('A' for Active; 'I' for Inactive)
REMARK    1  A    between atoms: C_1  and  C_2
REMARK    2  A    between atoms: C_15  and  C_17
REMARK    3  A    between atoms: C_17  and  C_19
REMARK    4  A    between atoms: C_17  and  N_20
REMARK                            x       y       z     vdW  Elec       q    Type
REMARK                         _______ _______ _______ _____ _____    ______ ____
ROOT
ATOM      1  C   UNL     1       8.060  -4.348   4.701  0.00  0.00    +0.008 C 
ATOM      2  C   UNL     1       7.594  -3.468   3.539  0.00  0.00    -0.009 C 
ATOM      3  C   UNL     1       8.140  -2.049   3.720  0.00  0.00    +0.008 C 
ATOM      4  C   UNL     1       7.896  -1.233   2.450  0.00  0.00    +0.037 C 
ATOM      5  C   UNL     1       6.418  -1.327   2.081  0.00  0.00    -0.023 A 
ATOM      6  C   UNL     1       5.644  -2.312   2.583  0.00  0.00    -0.004 A 
ATOM      7  S   UNL     1       4.035  -2.027   1.896  0.00  0.00    -0.073 S 
ATOM      8  C   UNL     1       4.409  -0.583   0.935  0.00  0.00    +0.116 A 
ATOM      9  C   UNL     1       5.775  -0.371   1.181  0.00  0.00    +0.075 A 
ATOM     10  C   UNL     1       6.358   0.756   0.515  0.00  0.00    +0.260 A 
ATOM     11  O   UNL     1       7.538   1.023   0.666  0.00  0.00    -0.267 OA
ATOM     12  N   UNL     1       5.581   1.517  -0.278  0.00  0.00    -0.309 N 
ATOM     13  H   UNL     1       5.969   2.281  -0.732  0.00  0.00    +0.170 HD
ATOM     14  C   UNL     1       4.264   1.235  -0.457  0.00  0.00    +0.131 A 
ATOM     15  N   UNL     1       3.704   0.217   0.140  0.00  0.00    -0.225 NA
ATOM     16  C   UNL     1       6.060  -3.407   3.518  0.00  0.00    +0.046 C 
ENDROOT
BRANCH  14  17
ATOM     17  C   UNL     1       3.434   2.116  -1.355  0.00  0.00    +0.136 C 
ATOM     18  C   UNL     1       3.545   3.569  -0.888  0.00  0.00    +0.036 C 
BRANCH  17  19
ATOM     19  N   UNL     1       2.030   1.689  -1.297  0.00  0.00    -0.320 N 
ATOM     20  C   UNL     1       1.434   2.018  -0.001  0.00  0.00    +0.106 C 
ATOM     21  C   UNL     1      -0.019   1.526   0.010  0.00  0.00    +0.024 C 
ATOM     22  C   UNL     1       0.002  -0.004   0.002  0.00  0.00    +0.038 C 
ATOM     23  C   UNL     1       0.963  -0.493  -1.053  0.00  0.00    -0.026 A 
ATOM     24  C   UNL     1       1.903   0.342  -1.632  0.00  0.00    +0.033 A 
ATOM     25  C   UNL     1       2.771  -0.170  -2.598  0.00  0.00    +0.023 A 
ATOM     26  C   UNL     1       2.691  -1.493  -2.977  0.00  0.00    +0.002 A 
ATOM     27  C   UNL     1       1.746  -2.321  -2.399  0.00  0.00    +0.000 A 
ATOM     28  C   UNL     1       0.886  -1.821  -1.441  0.00  0.00    +0.005 A 
ENDBRANCH  17  19
ENDBRANCH  14  17
TORSDOF 2
