REMARK  Name = ZINC12311589
REMARK  15 active torsions:
REMARK  status: ('A' for Active; 'I' for Inactive)
REMARK    1  A    between atoms: C_1  and  C_2
REMARK    2  A    between atoms: C_5  and  N_8
REMARK    3  A    between atoms: C_9  and  C_11
REMARK    4  A    between atoms: C_11  and  N_12
REMARK    5  A    between atoms: N_12  and  C_13
REMARK    6  A    between atoms: N_12  and  C_24
REMARK    7  A    between atoms: C_13  and  C_14
REMARK    8  A    between atoms: N_16  and  C_17
REMARK    9  A    between atoms: C_20  and  C_23
REMARK   10  A    between atoms: C_24  and  C_26
REMARK   11  A    between atoms: C_24  and  C_28
REMARK   12  A    between atoms: C_26  and  O_27
REMARK   13  A    between atoms: C_28  and  C_30
REMARK   14  A    between atoms: C_28  and  O_39
REMARK   15  A    between atoms: C_33  and  N_36
REMARK                            x       y       z     vdW  Elec       q    Type
REMARK                         _______ _______ _______ _____ _____    ______ ____
ROOT
ATOM      1  N   UNL     1       3.266  -3.854  -1.450  0.00  0.00    +0.396 N 
ATOM      2  H   UNL     1       3.728  -2.942  -1.045  0.00  0.00    -0.080 HD
ENDROOT
BRANCH   1   3
ATOM      3  C   UNL     1       1.887  -3.527  -1.839  0.00  0.00    +0.020 C 
BRANCH   3   5
ATOM      4  N   UNL     1       0.749  -2.153  -3.551  0.00  0.00    -0.287 N 
ATOM      5  C   UNL     1       1.907  -2.591  -3.019  0.00  0.00    +0.201 C 
ATOM      6  O   UNL     1       2.965  -2.231  -3.490  0.00  0.00    -0.278 OA
ATOM      7  H   UNL     1      -0.208  -2.406  -3.070  0.00  0.00    +0.155 HD
BRANCH   4  12
ATOM      8  C   UNL     1       0.805   0.994  -8.271  0.00  0.00    +0.044 C 
ATOM      9  C   UNL     1       0.790   0.158  -7.017  0.00  0.00    -0.050 A 
ATOM     10  C   UNL     1       1.823  -0.727  -6.766  0.00  0.00    +0.005 A 
ATOM     11  C   UNL     1       1.812  -1.494  -5.617  0.00  0.00    +0.023 A 
ATOM     12  C   UNL     1       0.763  -1.377  -4.715  0.00  0.00    +0.033 A 
ATOM     13  C   UNL     1      -0.273  -0.487  -4.971  0.00  0.00    +0.023 A 
ATOM     14  C   UNL     1      -0.256   0.278  -6.121  0.00  0.00    +0.005 A 
ENDBRANCH   4  12
ENDBRANCH   3   5
ENDBRANCH   1   3
BRANCH   1  15
ATOM     15  C   UNL     1       3.287  -4.877  -0.396  0.00  0.00    +0.020 C 
BRANCH  15  16
ATOM     16  C   UNL     1       4.625  -4.856   0.298  0.00  0.00    +0.201 C 
ATOM     17  O   UNL     1       5.335  -3.876   0.216  0.00  0.00    -0.278 OA
ATOM     18  N   UNL     1       5.032  -5.926   1.009  0.00  0.00    -0.287 N 
ATOM     19  H   UNL     1       4.430  -6.846   1.012  0.00  0.00    +0.155 HD
BRANCH  18  20
ATOM     20  C   UNL     1       6.222  -5.866   1.743  0.00  0.00    +0.033 A 
ATOM     21  C   UNL     1       7.017  -6.997   1.873  0.00  0.00    +0.023 A 
ATOM     22  C   UNL     1       8.193  -6.933   2.595  0.00  0.00    +0.005 A 
ATOM     23  C   UNL     1       8.574  -5.748   3.196  0.00  0.00    -0.050 A 
ATOM     24  C   UNL     1       7.782  -4.621   3.072  0.00  0.00    +0.005 A 
ATOM     25  C   UNL     1       6.607  -4.677   2.348  0.00  0.00    +0.023 A 
ATOM     26  C   UNL     1       9.855  -5.683   3.987  0.00  0.00    +0.044 C 
ENDBRANCH  18  20
ENDBRANCH  15  16
ENDBRANCH   1  15
BRANCH   1  27
ATOM     27  C   UNL     1       4.054  -4.281  -2.614  0.00  0.00    -0.008 C 
BRANCH  27  28
ATOM     28  C   UNL     1       5.514  -4.473  -2.199  0.00  0.00    +0.143 C 
BRANCH  28  29
ATOM     29  O   UNL     1       6.087  -3.206  -1.870  0.00  0.00    -0.396 OA
ATOM     30  H   UNL     1       7.136  -3.143  -1.547  0.00  0.00    +0.209 HD
ENDBRANCH  28  29
ENDBRANCH  27  28
BRANCH  27  31
ATOM     31  C   UNL     1       3.498  -5.602  -3.150  0.00  0.00    +0.133 C 
BRANCH  31  32
ATOM     32  C   UNL     1       1.993  -5.584  -3.066  0.00  0.00    -0.020 A 
ATOM     33  C   UNL     1       1.344  -6.367  -2.129  0.00  0.00    +0.008 A 
ATOM     34  C   UNL     1      -0.035  -6.347  -2.049  0.00  0.00    +0.033 A 
ATOM     35  C   UNL     1      -0.767  -5.553  -2.912  0.00  0.00    +0.126 A 
ATOM     36  C   UNL     1      -0.118  -4.775  -3.852  0.00  0.00    +0.033 A 
ATOM     37  C   UNL     1       1.262  -4.790  -3.929  0.00  0.00    +0.008 A 
BRANCH  35  38
ATOM     38  N   UNL     1      -2.245  -5.537  -2.830  0.00  0.00    +0.056 N 
ATOM     39  O   UNL     1      -2.889  -4.837  -3.591  0.00  0.00    -0.126 OA
ATOM     40  O   UNL     1      -2.816  -6.223  -2.002  0.00  0.00    -0.126 OA
ENDBRANCH  35  38
ENDBRANCH  31  32
BRANCH  31  41
ATOM     41  O   UNL     1       4.006  -6.684  -2.368  0.00  0.00    -0.389 OA
ATOM     42  H   UNL     1       3.715  -7.718  -2.605  0.00  0.00    +0.210 HD
ENDBRANCH  31  41
ENDBRANCH  27  31
ENDBRANCH   1  27
TORSDOF 13
