REMARK  Name = ZINC13850327
REMARK  7 active torsions:
REMARK  status: ('A' for Active; 'I' for Inactive)
REMARK    1  A    between atoms: C_5  and  S_7
REMARK    2  A    between atoms: S_7  and  N_10
REMARK    3  A    between atoms: N_10  and  C_11
REMARK    4  A    between atoms: C_14  and  C_17
REMARK    5  A    between atoms: C_17  and  C_18
REMARK    6  A    between atoms: N_20  and  C_21
REMARK    7  A    between atoms: C_21  and  C_22
REMARK                            x       y       z     vdW  Elec       q    Type
REMARK                         _______ _______ _______ _____ _____    ______ ____
ROOT
ATOM      1  C   UNL     1      -2.668   0.851   1.618  0.00  0.00    +0.048 A 
ATOM      2  C   UNL     1      -1.914   1.916   1.141  0.00  0.00    +0.025 A 
ATOM      3  C   UNL     1      -2.364   3.211   1.314  0.00  0.00    +0.006 A 
ATOM      4  C   UNL     1      -3.558   3.447   1.970  0.00  0.00    -0.039 A 
ATOM      5  C   UNL     1      -4.308   2.390   2.451  0.00  0.00    +0.006 A 
ATOM      6  C   UNL     1      -3.867   1.093   2.277  0.00  0.00    +0.025 A 
ENDROOT
BRANCH   1   7
ATOM      7  N   UNL     1      -2.218  -0.459   1.440  0.00  0.00    -0.216 N 
ATOM      8  H   UNL     1      -2.244  -1.085   2.181  0.00  0.00    +0.174 HD
BRANCH   7   9
ATOM      9  S   UNL     1      -1.641  -0.944  -0.034  0.00  0.00    +0.073 S 
ATOM     10  O   UNL     1      -1.369  -2.335   0.074  0.00  0.00    -0.150 OA
ATOM     11  O   UNL     1      -0.648  -0.000  -0.411  0.00  0.00    -0.150 OA
BRANCH   9  16
ATOM     12  C   UNL     1      -3.891   0.257  -3.139  0.00  0.00    +0.002 A 
ATOM     13  C   UNL     1      -5.029  -0.517  -3.006  0.00  0.00    +0.001 A 
ATOM     14  C   UNL     1      -5.133  -1.421  -1.966  0.00  0.00    +0.017 A 
ATOM     15  C   UNL     1      -4.098  -1.552  -1.058  0.00  0.00    +0.044 A 
ATOM     16  C   UNL     1      -2.960  -0.777  -1.190  0.00  0.00    +0.122 A 
ATOM     17  C   UNL     1      -2.857   0.127  -2.231  0.00  0.00    +0.030 A 
ATOM     18 BR   UNL     1      -4.236  -2.795   0.361  0.00  0.00    -0.048 Br
ENDBRANCH   9  16
ENDBRANCH   7   9
ENDBRANCH   1   7
BRANCH   4  19
ATOM     19  C   UNL     1      -4.043   4.861   2.161  0.00  0.00    +0.130 C 
BRANCH  19  20
ATOM     20  C   UNL     1      -3.511   5.403   3.463  0.00  0.00    +0.218 C 
ATOM     21  O   UNL     1      -2.807   4.709   4.166  0.00  0.00    -0.275 OA
ATOM     22  N   UNL     1      -3.817   6.659   3.846  0.00  0.00    -0.310 N 
ATOM     23  H   UNL     1      -4.380   7.213   3.284  0.00  0.00    +0.149 HD
BRANCH  22  24
ATOM     24  C   UNL     1      -3.299   7.185   5.111  0.00  0.00    +0.146 C 
BRANCH  24  25
ATOM     25  C   UNL     1      -3.784   8.599   5.303  0.00  0.00    +0.007 A 
ATOM     26  C   UNL     1      -4.916   9.039   5.905  0.00  0.00    +0.013 A 
ATOM     27  C   UNL     1      -5.156  10.399   5.969  0.00  0.00    +0.008 A 
ATOM     28  C   UNL     1      -4.259  11.252   5.416  0.00  0.00    +0.045 A 
ATOM     29  S   UNL     1      -3.022  10.129   4.787  0.00  0.00    -0.100 S 
ENDBRANCH  24  25
ENDBRANCH  22  24
ENDBRANCH  19  20
ENDBRANCH   4  19
TORSDOF 7
