REMARK  Name = ZINC20505022
REMARK  4 active torsions:
REMARK  status: ('A' for Active; 'I' for Inactive)
REMARK    1  A    between atoms: C_3  and  N_18
REMARK    2  A    between atoms: C_6  and  C_7
REMARK    3  A    between atoms: C_7  and  N_8
REMARK    4  A    between atoms: N_8  and  C_9
REMARK                            x       y       z     vdW  Elec       q    Type
REMARK                         _______ _______ _______ _____ _____    ______ ____
ROOT
ATOM      1  N   UNL     1       2.356   3.890   0.001  0.00  0.00    -0.337 N 
ATOM      2  H   UNL     1       3.141   3.934   0.770  0.00  0.00    +0.146 HD
ENDROOT
BRANCH   1   3
ATOM      3  C   UNL     1       1.158   3.168   0.006  0.00  0.00    +0.065 A 
ATOM      4  C   UNL     1       1.138   1.849  -0.429  0.00  0.00    +0.065 A 
ATOM      5  C   UNL     1      -0.048   1.138  -0.423  0.00  0.00    +0.042 A 
ATOM      6  C   UNL     1      -1.215   1.741   0.012  0.00  0.00    +0.044 A 
ATOM      7  C   UNL     1      -1.197   3.053   0.451  0.00  0.00    +0.042 A 
ATOM      8  C   UNL     1      -0.015   3.769   0.446  0.00  0.00    +0.065 A 
ATOM      9 CL   UNL     1       0.005   5.417   0.991  0.00  0.00    -0.082 Cl
ATOM     10 CL   UNL     1      -2.703   0.848   0.012  0.00  0.00    -0.083 Cl
ATOM     11 CL   UNL     1       2.600   1.093  -0.981  0.00  0.00    -0.082 Cl
ENDBRANCH   1   3
BRANCH   1  12
ATOM     12  C   UNL     1       2.499   4.664  -1.240  0.00  0.00    +0.137 C 
BRANCH  12  18
ATOM     13  C   UNL     1       4.016   6.591  -0.737  0.00  0.00    +0.007 A 
ATOM     14  C   UNL     1       5.259   7.195  -0.757  0.00  0.00    +0.033 A 
ATOM     15  C   UNL     1       6.338   6.536  -1.316  0.00  0.00    +0.126 A 
ATOM     16  C   UNL     1       6.175   5.272  -1.850  0.00  0.00    +0.033 A 
ATOM     17  C   UNL     1       4.933   4.666  -1.825  0.00  0.00    +0.007 A 
ATOM     18  C   UNL     1       3.854   5.324  -1.266  0.00  0.00    -0.030 A 
BRANCH  15  19
ATOM     19  N   UNL     1       7.668   7.185  -1.342  0.00  0.00    +0.056 N 
ATOM     20  O   UNL     1       8.620   6.605  -1.833  0.00  0.00    -0.126 OA
ATOM     21  O   UNL     1       7.812   8.299  -0.871  0.00  0.00    -0.126 OA
ENDBRANCH  15  19
ENDBRANCH  12  18
ENDBRANCH   1  12
TORSDOF 4
