REMARK  Name = ZINC67585267
REMARK  10 active torsions:
REMARK  status: ('A' for Active; 'I' for Inactive)
REMARK    1  A    between atoms: C_1  and  C_2
REMARK    2  A    between atoms: C_2  and  C_3
REMARK    3  A    between atoms: C_3  and  C_4
REMARK    4  A    between atoms: N_6  and  C_7
REMARK    5  A    between atoms: C_11  and  N_14
REMARK    6  A    between atoms: C_12  and  C_13
REMARK    7  A    between atoms: N_17  and  C_18
REMARK    8  A    between atoms: N_17  and  C_19
REMARK    9  A    between atoms: C_19  and  C_20
REMARK   10  A    between atoms: C_24  and  C_26
REMARK                            x       y       z     vdW  Elec       q    Type
REMARK                         _______ _______ _______ _____ _____    ______ ____
ROOT
ATOM      1  N   UNL     1       2.895  -6.705  -4.154  0.00  0.00    -0.269 N 
ATOM      2  C   UNL     1       2.912  -8.053  -4.171  0.00  0.00    +0.306 C 
ATOM      3  O   UNL     1       2.391  -8.678  -3.268  0.00  0.00    -0.252 OA
ATOM      4  N   UNL     1       3.506  -8.707  -5.188  0.00  0.00    -0.284 N 
ATOM      5  C   UNL     1       4.133  -7.953  -6.277  0.00  0.00    +0.134 C 
ATOM      6  H   UNL     1       3.369  -6.206  -4.837  0.00  0.00    +0.156 HD
ENDROOT
BRANCH   1  11
ATOM      7  C   UNL     1       0.856  -4.160  -2.445  0.00  0.00    +0.038 A 
ATOM      8  C   UNL     1       0.803  -4.689  -1.161  0.00  0.00    +0.024 A 
ATOM      9  C   UNL     1       1.441  -5.880  -0.877  0.00  0.00    +0.004 A 
ATOM     10  C   UNL     1       2.135  -6.550  -1.867  0.00  0.00    +0.024 A 
ATOM     11  C   UNL     1       2.192  -6.027  -3.152  0.00  0.00    +0.039 A 
ATOM     12  C   UNL     1       1.547  -4.833  -3.443  0.00  0.00    -0.008 A 
ATOM     13  C   UNL     1       1.601  -4.266  -4.838  0.00  0.00    +0.047 C 
BRANCH   7  16
ATOM     14  C   UNL     1      -0.839  -2.556  -1.986  0.00  0.00    +0.217 C 
ATOM     15  O   UNL     1      -1.286  -3.289  -1.129  0.00  0.00    -0.275 OA
ATOM     16  N   UNL     1       0.209  -2.953  -2.733  0.00  0.00    -0.285 N 
ATOM     17  H   UNL     1       0.516  -2.403  -3.470  0.00  0.00    +0.155 HD
BRANCH  14  18
ATOM     18  C   UNL     1      -1.457  -1.200  -2.214  0.00  0.00    +0.096 C 
BRANCH  18  20
ATOM     19  C   UNL     1      -3.248   0.377  -1.473  0.00  0.00    +0.004 C 
ATOM     20  C   UNL     1      -2.621  -1.000  -1.241  0.00  0.00    +0.006 C 
ENDBRANCH  18  20
ENDBRANCH  14  18
ENDBRANCH   7  16
ENDBRANCH   1  11
BRANCH   4  21
ATOM     21  C   UNL     1       3.525 -10.171  -5.206  0.00  0.00    +0.144 C 
BRANCH  21  22
ATOM     22  C   UNL     1       2.302 -10.681  -5.926  0.00  0.00    -0.029 A 
ATOM     23  C   UNL     1       1.139 -10.929  -5.219  0.00  0.00    +0.005 A 
ATOM     24  C   UNL     1       0.012 -11.396  -5.872  0.00  0.00    +0.001 A 
ATOM     25  C   UNL     1       0.042 -11.618  -7.233  0.00  0.00    +0.013 A 
ATOM     26  C   UNL     1       1.212 -11.369  -7.952  0.00  0.00    +0.037 A 
ATOM     27  C   UNL     1       2.344 -10.893  -7.288  0.00  0.00    +0.018 A 
BRANCH  26  28
ATOM     28  C   UNL     1       1.252 -11.605  -9.411  0.00  0.00    +0.242 C 
ATOM     29  O   UNL     1       2.272 -11.388 -10.034  0.00  0.00    -0.270 OA
ATOM     30  N   UNL     1       0.156 -12.061 -10.050  0.00  0.00    -0.325 N 
ATOM     31  H   UNL     1      -0.659 -12.234  -9.552  0.00  0.00    +0.145 HD
ATOM     32  H   UNL     1       0.182 -12.216 -11.007  0.00  0.00    +0.145 HD
ENDBRANCH  26  28
ENDBRANCH  21  22
ENDBRANCH   4  21
TORSDOF 7
