REMARK  Name = ZINC27823156
REMARK  3 active torsions:
REMARK  status: ('A' for Active; 'I' for Inactive)
REMARK    1  A    between atoms: C_1  and  N_2
REMARK    2  A    between atoms: N_2  and  C_3
REMARK    3  A    between atoms: C_13  and  C_15
REMARK                            x       y       z     vdW  Elec       q    Type
REMARK                         _______ _______ _______ _____ _____    ______ ____
ROOT
ATOM      1  C   UNL     1       5.903   3.242  -0.094  0.00  0.00    +0.133 C 
ATOM      2  N   UNL     1       6.628   1.970  -0.152  0.00  0.00    -0.292 N 
ATOM      3  C   UNL     1       5.966   0.809   0.020  0.00  0.00    +0.263 C 
ATOM      4  O   UNL     1       6.580  -0.240   0.070  0.00  0.00    -0.268 OA
ENDROOT
BRANCH   3   5
ATOM      5  C   UNL     1       4.501   0.810   0.147  0.00  0.00    +0.103 A 
ATOM      6  C   UNL     1       3.714  -0.297   0.205  0.00  0.00    +0.040 A 
ATOM      7  C   UNL     1       2.371   0.135   0.327  0.00  0.00    +0.000 A 
ATOM      8  C   UNL     1       1.149  -0.542   0.427  0.00  0.00    +0.010 A 
ATOM      9  C   UNL     1      -0.013   0.166   0.534  0.00  0.00    +0.001 A 
ATOM     10  C   UNL     1       0.005   1.556   0.546  0.00  0.00    +0.002 A 
ATOM     11  C   UNL     1       1.194   2.244   0.449  0.00  0.00    +0.026 A 
ATOM     12  C   UNL     1       2.392   1.543   0.338  0.00  0.00    +0.047 A 
ATOM     13  N   UNL     1       3.704   1.936   0.227  0.00  0.00    -0.351 N 
ATOM     14  H   UNL     1       4.162   2.936   0.197  0.00  0.00    +0.166 HD
ENDBRANCH   3   5
BRANCH   2  15
ATOM     15  C   UNL     1       8.072   1.960  -0.398  0.00  0.00    +0.107 C 
ATOM     16  C   UNL     1       8.378   2.490  -1.815  0.00  0.00    +0.032 C 
ATOM     17  C   UNL     1       8.612   3.994  -1.562  0.00  0.00    +0.037 C 
ATOM     18  C   UNL     1       9.082   4.087  -0.126  0.00  0.00    -0.042 A 
ATOM     19  C   UNL     1       8.772   2.916   0.545  0.00  0.00    -0.024 A 
ATOM     20  C   UNL     1       9.110   2.777   1.878  0.00  0.00    +0.006 A 
ATOM     21  C   UNL     1       9.756   3.801   2.543  0.00  0.00    +0.000 A 
ATOM     22  C   UNL     1      10.067   4.970   1.874  0.00  0.00    +0.000 A 
ATOM     23  C   UNL     1       9.730   5.112   0.542  0.00  0.00    +0.004 A 
ENDBRANCH   2  15
TORSDOF 2
