REMARK  Name = ZINC16907821
REMARK  7 active torsions:
REMARK  status: ('A' for Active; 'I' for Inactive)
REMARK    1  A    between atoms: C_3  and  N_8
REMARK    2  A    between atoms: C_5  and  O_7
REMARK    3  A    between atoms: C_12  and  C_13
REMARK    4  A    between atoms: C_16  and  O_19
REMARK    5  A    between atoms: O_19  and  C_20
REMARK    6  A    between atoms: C_20  and  C_21
REMARK    7  A    between atoms: C_21  and  C_22
REMARK                            x       y       z     vdW  Elec       q    Type
REMARK                         _______ _______ _______ _____ _____    ______ ____
ROOT
ATOM      1  N   UNL     1      -0.057   3.129  -2.624  0.00  0.00    -0.223 N 
ATOM      2  C   UNL     1      -0.018   4.282  -1.977  0.00  0.00    +0.263 C 
ATOM      3  O   UNL     1       0.711   5.190  -2.330  0.00  0.00    -0.269 OA
ATOM      4  C   UNL     1      -0.904   4.411  -0.803  0.00  0.00    +0.077 C 
ATOM      5  C   UNL     1      -1.074   5.460   0.041  0.00  0.00    +0.028 C 
ATOM      6  S   UNL     1      -1.696   2.808  -0.803  0.00  0.00    -0.061 S 
ATOM      7  C   UNL     1      -0.867   2.126  -2.229  0.00  0.00    +0.125 C 
ATOM      8  S   UNL     1      -1.058   0.576  -2.930  0.00  0.00    -0.027 S 
ENDROOT
BRANCH   1  11
ATOM      9  C   UNL     1       2.591   1.828  -4.824  0.00  0.00    +0.005 A 
ATOM     10  C   UNL     1       1.784   2.008  -3.717  0.00  0.00    +0.024 A 
ATOM     11  C   UNL     1       0.761   2.947  -3.747  0.00  0.00    +0.046 A 
ATOM     12  C   UNL     1       0.547   3.700  -4.893  0.00  0.00    +0.069 A 
ATOM     13  C   UNL     1       1.363   3.521  -5.999  0.00  0.00    +0.119 A 
ATOM     14  C   UNL     1       2.383   2.582  -5.963  0.00  0.00    +0.045 A 
BRANCH  13  15
ATOM     15  O   UNL     1       1.159   4.262  -7.120  0.00  0.00    -0.507 OA
ATOM     16  H   UNL     1       0.544   3.861  -7.750  0.00  0.00    +0.292 HD
ENDBRANCH  13  15
ENDBRANCH   1  11
BRANCH   5  17
ATOM     17  C   UNL     1      -0.184   6.625  -0.046  0.00  0.00    -0.024 A 
ATOM     18  C   UNL     1       1.187   6.447  -0.265  0.00  0.00    +0.011 A 
ATOM     19  C   UNL     1       2.016   7.543  -0.352  0.00  0.00    +0.046 A 
ATOM     20  C   UNL     1       1.495   8.824  -0.212  0.00  0.00    +0.121 A 
ATOM     21  C   UNL     1       0.135   9.007   0.010  0.00  0.00    +0.046 A 
ATOM     22  C   UNL     1      -0.704   7.918   0.093  0.00  0.00    +0.011 A 
BRANCH  20  23
ATOM     23  O   UNL     1       2.318   9.901  -0.293  0.00  0.00    -0.491 OA
BRANCH  23  24
ATOM     24  C   UNL     1       3.705   9.642  -0.523  0.00  0.00    +0.240 C 
BRANCH  24  25
ATOM     25  C   UNL     1       4.467  10.967  -0.583  0.00  0.00    +0.166 C 
BRANCH  25  26
ATOM     26  C   UNL     1       5.930  10.694  -0.826  0.00  0.00    +0.359 C 
ATOM     27  O   UNL     1       6.321   9.557  -0.939  0.00  0.00    -0.246 OA
ATOM     28  O   UNL     1       6.797  11.715  -0.916  0.00  0.00    -0.246 OA
ENDBRANCH  25  26
ENDBRANCH  24  25
ENDBRANCH  23  24
ENDBRANCH  20  23
ENDBRANCH   5  17
TORSDOF 7
