REMARK  Name = ZINC41027317
REMARK  4 active torsions:
REMARK  status: ('A' for Active; 'I' for Inactive)
REMARK    1  A    between atoms: C_1  and  C_2
REMARK    2  A    between atoms: C_5  and  N_9
REMARK    3  A    between atoms: C_12  and  C_14
REMARK    4  A    between atoms: C_18  and  C_22
REMARK                            x       y       z     vdW  Elec       q    Type
REMARK                         _______ _______ _______ _____ _____    ______ ____
ROOT
ATOM      1  N   UNL     1       0.059  -4.172  -0.024  0.00  0.00    -0.234 N 
ATOM      2  C   UNL     1       0.166  -4.954   1.074  0.00  0.00    +0.049 A 
ATOM      3  C   UNL     1       0.148  -6.242   0.652  0.00  0.00    +0.008 A 
ATOM      4  C   UNL     1       0.022  -6.188  -0.748  0.00  0.00    +0.177 A 
ATOM      5  N   UNL     1      -0.030  -4.907  -1.078  0.00  0.00    -0.159 NA
ATOM      6  C   UNL     1       0.249  -7.439   1.556  0.00  0.00    +0.042 C 
ATOM      7  C   UNL     1       0.773  -6.969   2.920  0.00  0.00    -0.009 C 
ATOM      8  C   UNL     1      -0.042  -5.763   3.394  0.00  0.00    +0.010 C 
ATOM      9  C   UNL     1       0.284  -4.545   2.520  0.00  0.00    +0.056 C 
ATOM     10  C   UNL     1       0.641  -8.105   3.936  0.00  0.00    +0.008 C 
ENDROOT
BRANCH   1  15
ATOM     11  C   UNL     1      -0.014   1.503   0.011  0.00  0.00    +0.044 C 
ATOM     12  C   UNL     1       0.004  -0.004   0.001  0.00  0.00    -0.049 A 
ATOM     13  C   UNL     1       0.977  -0.686   0.709  0.00  0.00    +0.005 A 
ATOM     14  C   UNL     1       0.998  -2.067   0.703  0.00  0.00    +0.029 A 
ATOM     15  C   UNL     1       0.040  -2.771  -0.015  0.00  0.00    +0.084 A 
ATOM     16  C   UNL     1      -0.936  -2.083  -0.725  0.00  0.00    +0.067 A 
ATOM     17  C   UNL     1      -0.954  -0.701  -0.710  0.00  0.00    +0.025 A 
ATOM     18 CL   UNL     1      -2.136  -2.959  -1.623  0.00  0.00    -0.081 Cl
ENDBRANCH   1  15
BRANCH   4  19
ATOM     19  C   UNL     1      -0.043  -7.336  -1.669  0.00  0.00    +0.406 C 
ATOM     20  O   UNL     1       0.013  -8.476  -1.230  0.00  0.00    -0.239 OA
ATOM     21  O   UNL     1      -0.153  -7.149  -2.873  0.00  0.00    -0.239 OA
ENDBRANCH   4  19
TORSDOF 2
