REMARK  Name = ZINC09510318
REMARK  10 active torsions:
REMARK  status: ('A' for Active; 'I' for Inactive)
REMARK    1  A    between atoms: C_1  and  N_2
REMARK    2  A    between atoms: C_3  and  N_32
REMARK    3  A    between atoms: C_4  and  C_11
REMARK    4  A    between atoms: N_7  and  C_10
REMARK    5  A    between atoms: C_11  and  C_13
REMARK    6  A    between atoms: C_13  and  S_14
REMARK    7  A    between atoms: S_14  and  C_15
REMARK    8  A    between atoms: C_18  and  C_26
REMARK    9  A    between atoms: N_19  and  C_20
REMARK   10  A    between atoms: C_26  and  C_27
REMARK                            x       y       z     vdW  Elec       q    Type
REMARK                         _______ _______ _______ _____ _____    ______ ____
ROOT
ATOM      1  S   UNL     1      -1.631   5.059  -4.725  0.00  0.00    -0.078 S 
ENDROOT
BRANCH   1   2
ATOM      2  C   UNL     1      -1.857   4.016  -3.323  0.00  0.00    +0.192 A 
ATOM      3  N   UNL     1      -2.659   2.979  -3.242  0.00  0.00    -0.122 NA
ATOM      4  N   UNL     1      -2.572   2.450  -2.074  0.00  0.00    -0.133 NA
ATOM      5  C   UNL     1      -1.718   3.112  -1.346  0.00  0.00    +0.139 A 
ATOM      6  N   UNL     1      -1.236   4.136  -2.113  0.00  0.00    -0.303 N 
BRANCH   6   7
ATOM      7  C   UNL     1      -0.254   5.150  -1.720  0.00  0.00    +0.091 C 
ATOM      8  C   UNL     1      -0.883   6.540  -1.834  0.00  0.00    +0.025 C 
ATOM      9  C   UNL     1       0.143   7.599  -1.423  0.00  0.00    +0.002 C 
ATOM     10  C   UNL     1       1.361   7.513  -2.345  0.00  0.00    +0.000 C 
ATOM     11  C   UNL     1       1.990   6.123  -2.231  0.00  0.00    +0.002 C 
ATOM     12  C   UNL     1       0.964   5.064  -2.642  0.00  0.00    +0.025 C 
ENDBRANCH   6   7
BRANCH   5  13
ATOM     13  C   UNL     1      -1.337   2.809   0.080  0.00  0.00    +0.118 C 
BRANCH  13  14
ATOM     14  C   UNL     1      -0.163   1.863   0.097  0.00  0.00    -0.003 A 
ATOM     15  C   UNL     1       1.162   2.148   0.098  0.00  0.00    +0.011 A 
ATOM     16  C   UNL     1       2.071   1.107   0.110  0.00  0.00    +0.008 A 
ATOM     17  C   UNL     1       1.610  -0.168   0.119  0.00  0.00    +0.045 A 
ATOM     18  S   UNL     1      -0.158   0.078   0.112  0.00  0.00    -0.101 S 
ENDBRANCH  13  14
ENDBRANCH   5  13
ENDBRANCH   1   2
BRANCH   1  19
ATOM     19  C   UNL     1      -2.775   4.274  -5.888  0.00  0.00    +0.157 C 
BRANCH  19  20
ATOM     20  C   UNL     1      -2.749   5.019  -7.198  0.00  0.00    +0.182 C 
ATOM     21  O   UNL     1      -2.028   5.986  -7.332  0.00  0.00    -0.291 OA
BRANCH  20  25
ATOM     22  C   UNL     1      -4.541   5.649 -11.711  0.00  0.00    +0.155 C 
ATOM     23  N   UNL     1      -4.447   4.881 -10.467  0.00  0.00    -0.284 N 
ATOM     24  C   UNL     1      -3.650   5.338  -9.457  0.00  0.00    +0.116 A 
ATOM     25  C   UNL     1      -3.563   4.591  -8.269  0.00  0.00    +0.120 A 
ATOM     26  C   UNL     1      -4.352   3.356  -8.175  0.00  0.00    +0.269 A 
ATOM     27  O   UNL     1      -4.320   2.673  -7.168  0.00  0.00    -0.267 OA
ATOM     28  N   UNL     1      -5.114   2.994  -9.228  0.00  0.00    -0.263 N 
ATOM     29  C   UNL     1      -5.152   3.746 -10.341  0.00  0.00    +0.333 A 
ATOM     30  O   UNL     1      -5.851   3.385 -11.267  0.00  0.00    -0.246 OA
ATOM     31  C   UNL     1      -5.909   1.766  -9.158  0.00  0.00    +0.157 C 
BRANCH  24  32
ATOM     32  N   UNL     1      -2.947   6.494  -9.600  0.00  0.00    -0.344 N 
ATOM     33  H   UNL     1      -2.319   6.768  -8.913  0.00  0.00    +0.144 HD
ATOM     34  H   UNL     1      -3.073   7.044 -10.388  0.00  0.00    +0.144 HD
ENDBRANCH  24  32
ENDBRANCH  20  25
ENDBRANCH  19  20
ENDBRANCH   1  19
TORSDOF 8
