REMARK  Name = ZINC06668182
REMARK  5 active torsions:
REMARK  status: ('A' for Active; 'I' for Inactive)
REMARK    1  A    between atoms: C_4  and  C_7
REMARK    2  A    between atoms: C_7  and  N_8
REMARK    3  A    between atoms: C_19  and  C_27
REMARK    4  A    between atoms: C_21  and  C_25
REMARK    5  A    between atoms: C_22  and  N_24
REMARK                            x       y       z     vdW  Elec       q    Type
REMARK                         _______ _______ _______ _____ _____    ______ ____
ROOT
ATOM      1  N   UNL     1      -2.993   4.114  -1.329  0.00  0.00    -0.303 N 
ATOM      2  C   UNL     1      -2.614   5.279  -1.964  0.00  0.00    +0.056 A 
ATOM      3  C   UNL     1      -1.813   6.218  -1.323  0.00  0.00    +0.026 A 
ATOM      4  C   UNL     1      -1.447   7.370  -1.985  0.00  0.00    +0.002 A 
ATOM      5  C   UNL     1      -1.866   7.601  -3.288  0.00  0.00    +0.001 A 
ATOM      6  C   UNL     1      -2.650   6.689  -3.938  0.00  0.00    +0.013 A 
ATOM      7  C   UNL     1      -3.031   5.515  -3.285  0.00  0.00    +0.041 A 
ATOM      8  C   UNL     1      -3.873   4.512  -3.954  0.00  0.00    +0.148 A 
ATOM      9  C   UNL     1      -4.213   3.385  -3.268  0.00  0.00    +0.072 A 
ATOM     10  C   UNL     1      -3.762   3.204  -1.948  0.00  0.00    +0.260 A 
ATOM     11  O   UNL     1      -4.078   2.189  -1.349  0.00  0.00    -0.267 OA
ATOM     12  C   UNL     1      -5.071   2.328  -3.911  0.00  0.00    +0.103 C 
ATOM     13  C   UNL     1      -5.764   2.886  -5.122  0.00  0.00    +0.098 C 
ATOM     14  C   UNL     1      -5.340   4.034  -5.703  0.00  0.00    +0.199 C 
ATOM     15  O   UNL     1      -4.288   4.719  -5.220  0.00  0.00    -0.440 OA
ENDROOT
BRANCH  12  16
ATOM     16  C   UNL     1      -4.206   1.165  -4.322  0.00  0.00    -0.034 A 
ATOM     17  C   UNL     1      -3.179   1.353  -5.228  0.00  0.00    +0.004 A 
ATOM     18  C   UNL     1      -2.383   0.287  -5.602  0.00  0.00    +0.000 A 
ATOM     19  C   UNL     1      -2.619  -0.970  -5.076  0.00  0.00    +0.000 A 
ATOM     20  C   UNL     1      -3.649  -1.159  -4.174  0.00  0.00    +0.000 A 
ATOM     21  C   UNL     1      -4.443  -0.092  -3.797  0.00  0.00    +0.004 A 
ENDBRANCH  12  16
BRANCH  14  22
ATOM     22  N   UNL     1      -5.999   4.510  -6.809  0.00  0.00    -0.328 N 
ATOM     23  H   UNL     1      -6.759   4.024  -7.167  0.00  0.00    +0.145 HD
ATOM     24  H   UNL     1      -5.705   5.331  -7.233  0.00  0.00    +0.145 HD
ENDBRANCH  14  22
BRANCH  13  25
ATOM     25  C   UNL     1      -6.890   2.192  -5.672  0.00  0.00    +0.101 C 
ATOM     26  N   UNL     1      -7.783   1.642  -6.109  0.00  0.00    -0.191 NA
ENDBRANCH  13  25
BRANCH   1  27
ATOM     27  C   UNL     1      -2.553   3.869   0.047  0.00  0.00    +0.160 C 
BRANCH  27  31
ATOM     28  C   UNL     1       1.175   1.783   0.000  0.00  0.00    +0.000 A 
ATOM     29  C   UNL     1      -0.013   1.076   0.008  0.00  0.00    +0.000 A 
ATOM     30  C   UNL     1      -1.219   1.751   0.017  0.00  0.00    +0.005 A 
ATOM     31  C   UNL     1      -1.238   3.133   0.030  0.00  0.00    -0.028 A 
ATOM     32  C   UNL     1      -0.050   3.840   0.022  0.00  0.00    +0.005 A 
ATOM     33  C   UNL     1       1.156   3.165   0.008  0.00  0.00    +0.000 A 
ENDBRANCH  27  31
ENDBRANCH   1  27
TORSDOF 5
