REMARK  Name = ZINC17139140
REMARK  8 active torsions:
REMARK  status: ('A' for Active; 'I' for Inactive)
REMARK    1  A    between atoms: C_1  and  C_2
REMARK    2  A    between atoms: C_2  and  N_3
REMARK    3  A    between atoms: N_3  and  C_4
REMARK    4  A    between atoms: N_3  and  C_6
REMARK    5  A    between atoms: C_4  and  C_5
REMARK    6  A    between atoms: C_9  and  C_13
REMARK    7  A    between atoms: C_10  and  O_12
REMARK    8  A    between atoms: N_19  and  C_22
REMARK                            x       y       z     vdW  Elec       q    Type
REMARK                         _______ _______ _______ _____ _____    ______ ____
ROOT
ATOM      1  C   UNL     1      -3.323  -2.044   5.158  0.00  0.00    +0.030 C 
ATOM      2  C   UNL     1      -3.225  -1.084   6.152  0.00  0.00    +0.102 C 
ATOM      3  C   UNL     1      -4.137  -1.079   7.315  0.00  0.00    +0.276 C 
ATOM      4  N   UNL     1      -3.985  -0.118   8.241  0.00  0.00    -0.123 NA
ATOM      5  C   UNL     1      -3.059   0.803   8.140  0.00  0.00    +0.340 C 
ATOM      6  O   UNL     1      -2.976   1.729   9.115  0.00  0.00    -0.250 OA
ATOM      7  N   UNL     1      -2.177   0.875   7.108  0.00  0.00    -0.188 N 
ATOM      8  C   UNL     1      -2.202  -0.025   6.102  0.00  0.00    +0.264 C 
ATOM      9  O   UNL     1      -1.408   0.039   5.181  0.00  0.00    -0.269 OA
ATOM     10  O   UNL     1      -5.008  -1.925   7.430  0.00  0.00    -0.268 OA
ENDROOT
BRANCH   7  11
ATOM     11  C   UNL     1      -1.221   1.901   7.090  0.00  0.00    +0.046 A 
ATOM     12  C   UNL     1      -1.487   3.088   6.421  0.00  0.00    +0.027 A 
ATOM     13  C   UNL     1      -0.544   4.097   6.404  0.00  0.00    +0.040 A 
ATOM     14  C   UNL     1       0.666   3.925   7.055  0.00  0.00    +0.124 A 
ATOM     15  C   UNL     1       0.933   2.742   7.723  0.00  0.00    +0.040 A 
ATOM     16  C   UNL     1      -0.009   1.733   7.747  0.00  0.00    +0.027 A 
ATOM     17  F   UNL     1       1.587   4.913   7.038  0.00  0.00    -0.205 F 
ENDBRANCH   7  11
BRANCH   1  21
ATOM     18  C   UNL     1      -0.311  -2.380   2.269  0.00  0.00    +0.033 A 
ATOM     19  C   UNL     1       0.021  -2.260   3.620  0.00  0.00    +0.024 A 
ATOM     20  C   UNL     1      -0.955  -2.150   4.564  0.00  0.00    +0.013 A 
ATOM     21  C   UNL     1      -2.308  -2.157   4.181  0.00  0.00    +0.017 A 
ATOM     22  C   UNL     1      -2.646  -2.278   2.817  0.00  0.00    +0.126 A 
ATOM     23  C   UNL     1      -1.643  -2.383   1.871  0.00  0.00    +0.069 A 
BRANCH  22  24
ATOM     24  O   UNL     1      -3.947  -2.286   2.435  0.00  0.00    -0.506 OA
ATOM     25  H   UNL     1      -4.306  -1.409   2.242  0.00  0.00    +0.292 HD
ENDBRANCH  22  24
BRANCH  18  26
ATOM     26  N   UNL     1       0.694  -2.491   1.318  0.00  0.00    -0.330 N 
BRANCH  26  28
ATOM     27  C   UNL     1       2.623  -1.051   1.748  0.00  0.00    +0.024 C 
ATOM     28  C   UNL     1       2.099  -2.488   1.734  0.00  0.00    +0.102 C 
ENDBRANCH  26  28
BRANCH  26  29
ATOM     29  C   UNL     1       0.349  -2.611  -0.101  0.00  0.00    +0.102 C 
ATOM     30  C   UNL     1       0.194  -4.088  -0.465  0.00  0.00    +0.024 C 
ENDBRANCH  26  29
ENDBRANCH  18  26
ENDBRANCH   1  21
TORSDOF 6
