REMARK  Name = ZINC03098464
REMARK  6 active torsions:
REMARK  status: ('A' for Active; 'I' for Inactive)
REMARK    1  A    between atoms: C_1  and  C_2
REMARK    2  A    between atoms: C_3  and  C_21
REMARK    3  A    between atoms: C_4  and  C_14
REMARK    4  A    between atoms: C_17  and  O_20
REMARK    5  A    between atoms: C_21  and  O_23
REMARK    6  A    between atoms: O_23  and  C_24
REMARK                            x       y       z     vdW  Elec       q    Type
REMARK                         _______ _______ _______ _____ _____    ______ ____
ROOT
ATOM      1  C   UNL     1       3.345   2.525   0.772  0.00  0.00    +0.061 C 
ATOM      2  C   UNL     1       2.256   1.563   0.373  0.00  0.00    +0.016 C 
ATOM      3  C   UNL     1       2.494   0.240   0.393  0.00  0.00    +0.065 C 
ATOM      4  C   UNL     1       1.438  -0.748  -0.006  0.00  0.00    +0.092 C 
ATOM      5  C   UNL     1       0.069  -0.115   0.015  0.00  0.00    +0.024 C 
ATOM      6  C   UNL     1      -0.070   1.228   0.014  0.00  0.00    +0.015 C 
ATOM      7  N   UNL     1       1.032   2.040  -0.005  0.00  0.00    -0.321 N 
ATOM      8  C   UNL     1      -1.435   1.868   0.041  0.00  0.00    +0.051 C 
ATOM      9  C   UNL     1      -2.440   0.961  -0.675  0.00  0.00    +0.014 C 
ATOM     10  C   UNL     1      -2.451  -0.400   0.027  0.00  0.00    +0.080 C 
ATOM     11  C   UNL     1      -1.054  -0.960   0.031  0.00  0.00    +0.162 C 
ATOM     12  O   UNL     1      -0.894  -2.164   0.047  0.00  0.00    -0.292 OA
ATOM     13  H   UNL     1       0.926   3.086  -0.328  0.00  0.00    +0.152 HD
ENDROOT
BRANCH   4  14
ATOM     14  C   UNL     1       1.729  -1.249  -1.397  0.00  0.00    -0.035 A 
ATOM     15  C   UNL     1       1.742  -0.365  -2.461  0.00  0.00    +0.008 A 
ATOM     16  C   UNL     1       2.015  -0.822  -3.736  0.00  0.00    +0.046 A 
ATOM     17  C   UNL     1       2.264  -2.170  -3.951  0.00  0.00    +0.117 A 
ATOM     18  C   UNL     1       2.245  -3.055  -2.883  0.00  0.00    +0.046 A 
ATOM     19  C   UNL     1       1.978  -2.593  -1.609  0.00  0.00    +0.008 A 
BRANCH  17  20
ATOM     20  O   UNL     1       2.526  -2.622  -5.205  0.00  0.00    -0.507 OA
ATOM     21  H   UNL     1       2.724  -3.691  -5.375  0.00  0.00    +0.292 HD
ENDBRANCH  17  20
ENDBRANCH   4  14
BRANCH   3  22
ATOM     22  C   UNL     1       3.766  -0.230   0.796  0.00  0.00    +0.338 C 
ATOM     23  O   UNL     1       4.664   0.560   1.020  0.00  0.00    -0.245 OA
BRANCH  22  24
ATOM     24  O   UNL     1       3.983  -1.555   0.934  0.00  0.00    -0.458 OA
BRANCH  24  25
ATOM     25  C   UNL     1       5.291  -1.958   1.345  0.00  0.00    +0.177 C 
ATOM     26  C   UNL     1       6.171  -2.235   0.109  0.00  0.00    +0.044 C 
ATOM     27  C   UNL     1       7.037  -3.451   0.524  0.00  0.00    +0.004 C 
ATOM     28  C   UNL     1       6.047  -4.310   1.349  0.00  0.00    +0.004 C 
ATOM     29  C   UNL     1       5.212  -3.277   2.134  0.00  0.00    +0.044 C 
ENDBRANCH  24  25
ENDBRANCH  22  24
ENDBRANCH   3  22
TORSDOF 5
