REMARK  Name = ZINC48796652
REMARK  3 active torsions:
REMARK  status: ('A' for Active; 'I' for Inactive)
REMARK    1  A    between atoms: C_5  and  C_11
REMARK    2  A    between atoms: C_11  and  C_13
REMARK    3  A    between atoms: C_11  and  N_21
REMARK                            x       y       z     vdW  Elec       q    Type
REMARK                         _______ _______ _______ _____ _____    ______ ____
ROOT
ATOM      1  C   UNL     1       6.013   0.632  -0.051  0.00  0.00    +0.026 C 
ENDROOT
BRANCH   1   6
ATOM      2  C   UNL     1      -0.017   1.383   0.010  0.00  0.00    +0.002 A 
ATOM      3  C   UNL     1       1.163   2.094   0.002  0.00  0.00    +0.012 A 
ATOM      4  C   UNL     1       2.379   1.411  -0.013  0.00  0.00    +0.021 A 
ATOM      5  C   UNL     1       3.787   1.824  -0.024  0.00  0.00    +0.051 A 
ATOM      6  C   UNL     1       4.508   0.695  -0.037  0.00  0.00    +0.096 A 
ATOM      7  O   UNL     1       3.693  -0.375  -0.035  0.00  0.00    -0.460 OA
ATOM      8  C   UNL     1       2.399   0.006  -0.021  0.00  0.00    +0.149 A 
ATOM      9  C   UNL     1       1.198  -0.692  -0.014  0.00  0.00    +0.061 A 
ATOM     10  C   UNL     1       0.002  -0.004   0.002  0.00  0.00    +0.019 A 
ATOM     11 BR   UNL     1       1.202  -2.583  -0.024  0.00  0.00    -0.046 Br
ENDBRANCH   1   6
BRANCH   1  12
ATOM     12  C   UNL     1       6.492   0.371  -1.457  0.00  0.00    -0.017 A 
ATOM     13  C   UNL     1       6.757  -0.921  -1.868  0.00  0.00    +0.043 A 
ATOM     14  C   UNL     1       7.196  -1.160  -3.159  0.00  0.00    +0.124 A 
ATOM     15  C   UNL     1       7.369  -0.104  -4.038  0.00  0.00    +0.041 A 
ATOM     16  C   UNL     1       7.103   1.188  -3.627  0.00  0.00    +0.041 A 
ATOM     17  C   UNL     1       6.659   1.427  -2.337  0.00  0.00    +0.126 A 
ATOM     18  F   UNL     1       6.395   2.689  -1.936  0.00  0.00    -0.205 F 
ATOM     19  F   UNL     1       7.456  -2.423  -3.561  0.00  0.00    -0.205 F 
ENDBRANCH   1  12
BRANCH   1  20
ATOM     20  N   UNL     1       6.467  -0.453   0.829  0.00  0.00    +0.387 N 
ATOM     21  H   UNL     1       7.475  -0.495   0.819  0.00  0.00    -0.089 HD
ATOM     22  H   UNL     1       6.146  -0.279   1.770  0.00  0.00    -0.089 HD
ATOM     23  H   UNL     1       6.090  -1.331   0.503  0.00  0.00    -0.089 HD
ENDBRANCH   1  20
TORSDOF 3
