REMARK  Name = ZINC04754601
REMARK  14 active torsions:
REMARK  status: ('A' for Active; 'I' for Inactive)
REMARK    1  A    between atoms: C_1  and  C_2
REMARK    2  A    between atoms: N_8  and  C_9
REMARK    3  A    between atoms: C_9  and  C_10
REMARK    4  A    between atoms: C_10  and  C_12
REMARK    5  A    between atoms: C_10  and  O_34
REMARK    6  A    between atoms: C_12  and  O_13
REMARK    7  A    between atoms: O_13  and  C_14
REMARK    8  A    between atoms: C_17  and  O_20
REMARK    9  A    between atoms: O_20  and  C_21
REMARK   10  A    between atoms: C_21  and  C_22
REMARK   11  A    between atoms: C_22  and  C_24
REMARK   12  A    between atoms: C_22  and  O_33
REMARK   13  A    between atoms: C_24  and  N_25
REMARK   14  A    between atoms: C_30  and  C_32
REMARK                            x       y       z     vdW  Elec       q    Type
REMARK                         _______ _______ _______ _____ _____    ______ ____
ROOT
ATOM      1  C   UNL     1       6.141   0.242   3.881  0.00  0.00    +0.121 A 
ATOM      2  C   UNL     1       6.709   1.113   2.962  0.00  0.00    +0.049 A 
ATOM      3  C   UNL     1       8.004   1.559   3.143  0.00  0.00    +0.049 A 
ATOM      4  C   UNL     1       8.737   1.136   4.242  0.00  0.00    +0.121 A 
ATOM      5  C   UNL     1       8.169   0.266   5.160  0.00  0.00    +0.049 A 
ATOM      6  C   UNL     1       6.872  -0.176   4.982  0.00  0.00    +0.049 A 
ENDROOT
BRANCH   1   7
ATOM      7  O   UNL     1       4.867  -0.196   3.704  0.00  0.00    -0.489 OA
BRANCH   7   8
ATOM      8  C   UNL     1       4.173   0.276   2.547  0.00  0.00    +0.258 C 
BRANCH   8   9
ATOM      9  C   UNL     1       2.764  -0.321   2.518  0.00  0.00    +0.135 C 
BRANCH   9  10
ATOM     10  O   UNL     1       2.017   0.168   3.633  0.00  0.00    -0.390 OA
ATOM     11  H   UNL     1       1.919   1.130   3.649  0.00  0.00    +0.210 HD
ENDBRANCH   9  10
BRANCH   9  12
ATOM     12  C   UNL     1       2.066   0.083   1.218  0.00  0.00    -0.043 C 
BRANCH  12  19
ATOM     13  C   UNL     1      -0.019   1.526   0.010  0.00  0.00    -0.013 C 
ATOM     14  C   UNL     1       0.002  -0.004   0.002  0.00  0.00    -0.072 C 
ATOM     15  C   UNL     1      -1.434  -0.533   0.011  0.00  0.00    -0.016 C 
ATOM     16  C   UNL     1      -1.408  -2.064   0.003  0.00  0.00    -0.003 C 
ATOM     17  C   UNL     1      -0.600  -2.558   1.206  0.00  0.00    -0.019 C 
ATOM     18  C   UNL     1       0.805  -1.954   1.152  0.00  0.00    -0.078 C 
ATOM     19  N   UNL     1       0.713  -0.490   1.191  0.00  0.00    +0.383 N 
ATOM     20  H   UNL     1       0.213  -0.206   2.020  0.00  0.00    -0.081 HD
ENDBRANCH  12  19
ENDBRANCH   9  12
ENDBRANCH   8   9
ENDBRANCH   7   8
ENDBRANCH   1   7
BRANCH   4  21
ATOM     21  O   UNL     1      10.012   1.574   4.418  0.00  0.00    -0.489 OA
BRANCH  21  22
ATOM     22  C   UNL     1      10.707   1.098   5.572  0.00  0.00    +0.258 C 
BRANCH  22  23
ATOM     23  C   UNL     1      12.116   1.695   5.601  0.00  0.00    +0.135 C 
BRANCH  23  24
ATOM     24  O   UNL     1      12.862   1.209   4.483  0.00  0.00    -0.390 OA
ATOM     25  H   UNL     1      12.960   0.247   4.463  0.00  0.00    +0.210 HD
ENDBRANCH  23  24
BRANCH  23  26
ATOM     26  C   UNL     1      12.817   1.285   6.898  0.00  0.00    -0.043 C 
BRANCH  26  27
ATOM     27  N   UNL     1      14.122   1.954   6.981  0.00  0.00    +0.383 N 
ATOM     28  C   UNL     1      13.921   3.405   7.080  0.00  0.00    -0.078 C 
ATOM     29  C   UNL     1      15.278   4.112   7.085  0.00  0.00    -0.019 C 
ATOM     30  C   UNL     1      16.096   3.626   8.285  0.00  0.00    -0.003 C 
ATOM     31  C   UNL     1      16.236   2.103   8.211  0.00  0.00    -0.016 C 
ATOM     32  C   UNL     1      14.844   1.470   8.164  0.00  0.00    -0.072 C 
ATOM     33  C   UNL     1      14.978  -0.052   8.091  0.00  0.00    -0.013 C 
ATOM     34  H   UNL     1      14.659   1.747   6.153  0.00  0.00    -0.081 HD
ENDBRANCH  26  27
ENDBRANCH  23  26
ENDBRANCH  22  23
ENDBRANCH  21  22
ENDBRANCH   4  21
TORSDOF 12
