REMARK  Name = ZINC48375179
REMARK  4 active torsions:
REMARK  status: ('A' for Active; 'I' for Inactive)
REMARK    1  A    between atoms: N_9  and  C_10
REMARK    2  A    between atoms: C_17  and  C_19
REMARK    3  A    between atoms: C_19  and  N_20
REMARK    4  A    between atoms: C_21  and  C_23
REMARK                            x       y       z     vdW  Elec       q    Type
REMARK                         _______ _______ _______ _____ _____    ______ ____
ROOT
ATOM      1  C   UNL     1      -0.017   1.372   0.010  0.00  0.00    +0.002 A 
ATOM      2  C   UNL     1       1.169   2.093   0.002  0.00  0.00    +0.002 A 
ATOM      3  C   UNL     1       2.384   1.439  -0.013  0.00  0.00    +0.028 A 
ATOM      4  C   UNL     1       2.422   0.053  -0.021  0.00  0.00    +0.070 A 
ATOM      5  C   UNL     1       1.224  -0.681  -0.013  0.00  0.00    +0.091 A 
ATOM      6  C   UNL     1       0.002  -0.004   0.002  0.00  0.00    +0.030 A 
ATOM      7  N   UNL     1       1.562  -1.997  -0.024  0.00  0.00    -0.214 NA
ATOM      8  C   UNL     1       2.865  -2.116  -0.037  0.00  0.00    +0.203 A 
ATOM      9  N   UNL     1       3.445  -0.879  -0.036  0.00  0.00    -0.308 N 
ATOM     10  N   UNL     1       3.555  -3.317  -0.049  0.00  0.00    -0.255 N 
ATOM     11  C   UNL     1       2.878  -4.482  -0.049  0.00  0.00    +0.237 C 
ATOM     12  O   UNL     1       1.665  -4.479  -0.038  0.00  0.00    -0.274 OA
ATOM     13  H   UNL     1       4.525  -3.319  -0.058  0.00  0.00    +0.158 HD
ENDROOT
BRANCH   9  14
ATOM     14  C   UNL     1       4.881  -0.593  -0.049  0.00  0.00    +0.091 C 
ATOM     15  C   UNL     1       5.510  -1.194  -1.307  0.00  0.00    +0.025 C 
ATOM     16  C   UNL     1       7.010  -0.895  -1.321  0.00  0.00    +0.002 C 
ATOM     17  C   UNL     1       7.664  -1.509  -0.081  0.00  0.00    +0.000 C 
ATOM     18  C   UNL     1       7.035  -0.908   1.178  0.00  0.00    +0.002 C 
ATOM     19  C   UNL     1       5.535  -1.207   1.191  0.00  0.00    +0.025 C 
ENDBRANCH   9  14
BRANCH  11  20
ATOM     20  C   UNL     1       3.628  -5.789  -0.063  0.00  0.00    +0.200 C 
BRANCH  20  21
ATOM     21  N   UNL     1       2.673  -6.900  -0.060  0.00  0.00    -0.303 N 
ATOM     22  C   UNL     1       3.119  -8.172  -0.071  0.00  0.00    +0.248 C 
ATOM     23  O   UNL     1       4.314  -8.397  -0.083  0.00  0.00    -0.270 OA
ATOM     24  H   UNL     1       1.720  -6.720  -0.050  0.00  0.00    +0.150 HD
BRANCH  22  25
ATOM     25  C   UNL     1       2.158  -9.290  -0.068  0.00  0.00    +0.074 A 
ATOM     26  C   UNL     1       2.467 -10.727  -0.072  0.00  0.00    +0.054 A 
ATOM     27  C   UNL     1       1.283 -11.359  -0.066  0.00  0.00    +0.195 A 
ATOM     28  O   UNL     1       0.298 -10.447  -0.059  0.00  0.00    -0.470 OA
ATOM     29  C   UNL     1       0.796  -9.207  -0.054  0.00  0.00    +0.207 A 
ENDBRANCH  22  25
ENDBRANCH  20  21
ENDBRANCH  11  20
TORSDOF 4
