REMARK  Name = ZINC33457005
REMARK  5 active torsions:
REMARK  status: ('A' for Active; 'I' for Inactive)
REMARK    1  A    between atoms: C_9  and  O_25
REMARK    2  A    between atoms: C_10  and  C_11
REMARK    3  A    between atoms: C_11  and  C_13
REMARK    4  A    between atoms: C_11  and  N_15
REMARK    5  A    between atoms: C_13  and  N_14
REMARK                            x       y       z     vdW  Elec       q    Type
REMARK                         _______ _______ _______ _____ _____    ______ ____
ROOT
ATOM      1  C   UNL     1      -1.424   5.995   0.045  0.00  0.00    +0.090 C 
ENDROOT
BRANCH   1  11
ATOM      2  C   UNL     1      -1.056   0.906  -0.348  0.00  0.00    +0.001 A 
ATOM      3  C   UNL     1      -2.111   1.805  -0.205  0.00  0.00    +0.001 A 
ATOM      4  C   UNL     1      -1.884   3.144  -0.122  0.00  0.00    +0.009 A 
ATOM      5  C   UNL     1      -0.568   3.632  -0.191  0.00  0.00    -0.010 A 
ATOM      6  C   UNL     1       0.505   2.718  -0.342  0.00  0.00    -0.017 A 
ATOM      7  C   UNL     1       0.232   1.341  -0.418  0.00  0.00    +0.008 A 
ATOM      8  C   UNL     1       1.822   3.204  -0.411  0.00  0.00    +0.012 A 
ATOM      9  C   UNL     1       2.052   4.542  -0.334  0.00  0.00    +0.046 A 
ATOM     10  C   UNL     1       0.996   5.446  -0.186  0.00  0.00    +0.122 A 
ATOM     11  C   UNL     1      -0.296   5.008  -0.115  0.00  0.00    +0.020 A 
BRANCH  10  12
ATOM     12  O   UNL     1       1.257   6.777  -0.111  0.00  0.00    -0.506 OA
ATOM     13  H   UNL     1       0.431   7.494   0.005  0.00  0.00    +0.292 HD
ENDBRANCH  10  12
ENDBRANCH   1  11
BRANCH   1  14
ATOM     14  N   UNL     1      -1.198   7.144  -0.842  0.00  0.00    -0.324 N 
ATOM     15  C   UNL     1      -1.851   8.346  -0.320  0.00  0.00    +0.106 C 
ATOM     16  C   UNL     1      -1.606   9.502  -1.298  0.00  0.00    +0.024 C 
ATOM     17  C   UNL     1      -2.379   9.201  -2.585  0.00  0.00    +0.038 C 
ATOM     18  C   UNL     1      -2.122   7.778  -3.010  0.00  0.00    -0.026 A 
ATOM     19  C   UNL     1      -1.567   6.844  -2.152  0.00  0.00    +0.033 A 
ATOM     20  C   UNL     1      -1.360   5.539  -2.601  0.00  0.00    +0.023 A 
ATOM     21  C   UNL     1      -1.700   5.181  -3.888  0.00  0.00    +0.002 A 
ATOM     22  C   UNL     1      -2.249   6.119  -4.743  0.00  0.00    +0.000 A 
ATOM     23  C   UNL     1      -2.458   7.412  -4.304  0.00  0.00    +0.005 A 
ENDBRANCH   1  14
BRANCH   1  24
ATOM     24  C   UNL     1      -1.479   6.474   1.497  0.00  0.00    -0.059 C 
BRANCH  24  25
ATOM     25  N   UNL     1      -2.675   7.304   1.693  0.00  0.00    +0.380 N 
ATOM     26  H   UNL     1      -2.715   7.649   2.737  0.00  0.00    -0.090 HD
ATOM     27  H   UNL     1      -3.574   6.712   1.468  0.00  0.00    -0.090 HD
ATOM     28  H   UNL     1      -2.632   8.174   1.021  0.00  0.00    -0.090 HD
ENDBRANCH  24  25
ENDBRANCH   1  24
TORSDOF 5
