REMARK  Name = ZINC57329740
REMARK  4 active torsions:
REMARK  status: ('A' for Active; 'I' for Inactive)
REMARK    1  A    between atoms: C_1  and  C_2
REMARK    2  A    between atoms: C_2  and  C_3
REMARK    3  A    between atoms: C_2  and  C_4
REMARK    4  A    between atoms: C_2  and  C_5
REMARK                            x       y       z     vdW  Elec       q    Type
REMARK                         _______ _______ _______ _____ _____    ______ ____
ROOT
ATOM      1  C   UNL     1       0.697  -0.490  -1.244  0.00  0.00    +0.055 A 
ATOM      2  C   UNL     1       1.210   0.409  -2.133  0.00  0.00    +0.094 A 
ATOM      3  C   UNL     1       1.875  -0.068  -3.276  0.00  0.00    +0.253 A 
ATOM      4  N   UNL     1       1.983  -1.402  -3.454  0.00  0.00    -0.295 N 
ATOM      5  C   UNL     1       1.451  -2.252  -2.534  0.00  0.00    +0.198 A 
ATOM      6  N   UNL     1       0.834  -1.796  -1.462  0.00  0.00    -0.220 NA
ATOM      7  N   UNL     1       1.564  -3.603  -2.721  0.00  0.00    -0.300 N 
ATOM      8  C   UNL     1       1.108  -4.538  -1.684  0.00  0.00    +0.115 C 
ATOM      9  C   UNL     1       0.056  -5.474  -2.292  0.00  0.00    +0.093 C 
ATOM     10  C   UNL     1       0.603  -6.031  -3.588  0.00  0.00    +0.136 C 
ATOM     11  O   UNL     1       0.628  -7.222  -3.787  0.00  0.00    -0.297 OA
ATOM     12  C   UNL     1       1.118  -5.061  -4.628  0.00  0.00    +0.093 C 
ATOM     13  C   UNL     1       2.138  -4.135  -3.964  0.00  0.00    +0.115 C 
ATOM     14  O   UNL     1       2.345   0.708  -4.091  0.00  0.00    -0.268 OA
ATOM     15  H   UNL     1       2.437  -1.754  -4.235  0.00  0.00    +0.172 HD
ENDROOT
BRANCH   1  17
ATOM     16  C   UNL     1      -0.040   1.526  -0.002  0.00  0.00    +0.017 C 
ATOM     17  C   UNL     1      -0.021  -0.004  -0.011  0.00  0.00    +0.005 C 
ATOM     18  C   UNL     1       0.705  -0.513   1.236  0.00  0.00    +0.017 C 
ATOM     19  C   UNL     1      -1.457  -0.532  -0.016  0.00  0.00    +0.017 C 
ENDBRANCH   1  17
TORSDOF 1
