REMARK  Name = ZINC10263637
REMARK  11 active torsions:
REMARK  status: ('A' for Active; 'I' for Inactive)
REMARK    1  A    between atoms: C_1  and  C_2
REMARK    2  A    between atoms: C_5  and  C_8
REMARK    3  A    between atoms: C_11  and  S_20
REMARK    4  A    between atoms: N_12  and  C_13
REMARK    5  A    between atoms: C_16  and  C_19
REMARK    6  A    between atoms: S_20  and  C_21
REMARK    7  A    between atoms: C_21  and  C_22
REMARK    8  A    between atoms: C_22  and  C_24
REMARK    9  A    between atoms: C_25  and  N_34
REMARK   10  A    between atoms: N_26  and  C_33
REMARK   11  A    between atoms: N_29  and  C_32
REMARK                            x       y       z     vdW  Elec       q    Type
REMARK                         _______ _______ _______ _____ _____    ______ ____
ROOT
ATOM      1  C   UNL     1       1.205   1.749  -0.145  0.00  0.00    +0.169 A 
ATOM      2  N   UNL     1      -0.022   1.281  -0.133  0.00  0.00    -0.128 NA
ATOM      3  N   UNL     1      -0.004  -0.003  -0.113  0.00  0.00    -0.122 NA
ATOM      4  C   UNL     1       1.237  -0.438  -0.112  0.00  0.00    +0.197 A 
ATOM      5  N   UNL     1       2.051   0.661  -0.132  0.00  0.00    -0.270 N 
ENDROOT
BRANCH   1  10
ATOM      6  C   UNL     1       2.755   7.289  -0.236  0.00  0.00    +0.044 C 
ATOM      7  C   UNL     1       2.349   5.838  -0.213  0.00  0.00    -0.050 A 
ATOM      8  C   UNL     1       1.048   5.492   0.108  0.00  0.00    +0.004 A 
ATOM      9  C   UNL     1       0.670   4.166   0.132  0.00  0.00    +0.012 A 
ATOM     10  C   UNL     1       1.603   3.172  -0.169  0.00  0.00    +0.020 A 
ATOM     11  C   UNL     1       2.915   3.528  -0.486  0.00  0.00    +0.012 A 
ATOM     12  C   UNL     1       3.279   4.858  -0.512  0.00  0.00    +0.004 A 
ENDBRANCH   1  10
BRANCH   5  13
ATOM     13  C   UNL     1       3.453   0.678  -0.138  0.00  0.00    +0.051 A 
ATOM     14  C   UNL     1       4.147   1.216   0.937  0.00  0.00    +0.026 A 
ATOM     15  C   UNL     1       5.528   1.227   0.930  0.00  0.00    +0.005 A 
ATOM     16  C   UNL     1       6.219   0.712  -0.151  0.00  0.00    -0.050 A 
ATOM     17  C   UNL     1       5.531   0.181  -1.226  0.00  0.00    +0.005 A 
ATOM     18  C   UNL     1       4.149   0.162  -1.222  0.00  0.00    +0.026 A 
ATOM     19  C   UNL     1       7.726   0.731  -0.159  0.00  0.00    +0.044 C 
ENDBRANCH   5  13
BRANCH   4  20
ATOM     20  S   UNL     1       1.755  -2.122  -0.088  0.00  0.00    -0.078 S 
BRANCH  20  21
ATOM     21  C   UNL     1       0.143  -2.946  -0.069  0.00  0.00    +0.157 C 
BRANCH  21  22
ATOM     22  C   UNL     1       0.343  -4.439  -0.047  0.00  0.00    +0.182 C 
ATOM     23  O   UNL     1       1.466  -4.902  -0.045  0.00  0.00    -0.291 OA
BRANCH  22  24
ATOM     24  C   UNL     1      -0.775  -5.301  -0.029  0.00  0.00    +0.120 A 
ATOM     25  C   UNL     1      -0.619  -6.694  -0.131  0.00  0.00    +0.116 A 
ATOM     26  N   UNL     1      -1.731  -7.487  -0.104  0.00  0.00    -0.284 N 
ATOM     27  C   UNL     1      -2.960  -6.960   0.008  0.00  0.00    +0.333 A 
ATOM     28  O   UNL     1      -3.918  -7.709   0.023  0.00  0.00    -0.246 OA
ATOM     29  N   UNL     1      -3.171  -5.638   0.104  0.00  0.00    -0.263 N 
ATOM     30  C   UNL     1      -2.139  -4.770   0.092  0.00  0.00    +0.269 A 
ATOM     31  O   UNL     1      -2.333  -3.571   0.178  0.00  0.00    -0.267 OA
ATOM     32  C   UNL     1      -4.541  -5.131   0.223  0.00  0.00    +0.157 C 
ATOM     33  C   UNL     1      -1.578  -8.940  -0.205  0.00  0.00    +0.155 C 
BRANCH  25  34
ATOM     34  N   UNL     1       0.620  -7.244  -0.251  0.00  0.00    -0.344 N 
ATOM     35  H   UNL     1       1.408  -6.683  -0.185  0.00  0.00    +0.144 HD
ATOM     36  H   UNL     1       0.715  -8.197  -0.402  0.00  0.00    +0.144 HD
ENDBRANCH  25  34
ENDBRANCH  22  24
ENDBRANCH  21  22
ENDBRANCH  20  21
ENDBRANCH   4  20
TORSDOF 7
