REMARK  Name = ZINC02360973
REMARK  7 active torsions:
REMARK  status: ('A' for Active; 'I' for Inactive)
REMARK    1  A    between atoms: C_1  and  C_2
REMARK    2  A    between atoms: C_2  and  C_3
REMARK    3  A    between atoms: C_7  and  N_9
REMARK    4  A    between atoms: C_10  and  N_31
REMARK    5  A    between atoms: C_11  and  C_22
REMARK    6  A    between atoms: N_24  and  C_25
REMARK    7  A    between atoms: C_25  and  C_26
REMARK                            x       y       z     vdW  Elec       q    Type
REMARK                         _______ _______ _______ _____ _____    ______ ____
ROOT
ATOM      1  N   UNL     1      -1.201  -0.723   0.009  0.00  0.00    -0.280 N 
ATOM      2  C   UNL     1      -1.632  -1.522  -1.007  0.00  0.00    +0.117 A 
ATOM      3  C   UNL     1      -2.861  -2.090  -0.690  0.00  0.00    +0.104 A 
ATOM      4  C   UNL     1      -3.218  -1.594   0.649  0.00  0.00    +0.123 A 
ATOM      5  C   UNL     1      -2.110  -0.723   1.050  0.00  0.00    +0.166 A 
ATOM      6  N   UNL     1      -2.151  -0.118   2.218  0.00  0.00    -0.225 NA
ATOM      7  C   UNL     1      -3.196  -0.313   3.033  0.00  0.00    +0.092 A 
ATOM      8  C   UNL     1      -3.245   0.324   4.287  0.00  0.00    +0.030 A 
ATOM      9  C   UNL     1      -4.311   0.121   5.108  0.00  0.00    +0.002 A 
ATOM     10  C   UNL     1      -5.361  -0.713   4.727  0.00  0.00    +0.002 A 
ATOM     11  C   UNL     1      -5.349  -1.346   3.523  0.00  0.00    +0.030 A 
ATOM     12  C   UNL     1      -4.264  -1.160   2.646  0.00  0.00    +0.090 A 
ATOM     13  N   UNL     1      -4.242  -1.778   1.459  0.00  0.00    -0.241 NA
ENDROOT
BRANCH   1  18
ATOM     14  C   UNL     1       2.399   0.032  -0.021  0.00  0.00    -0.046 A 
ATOM     15  C   UNL     1       2.377   1.415  -0.013  0.00  0.00    +0.004 A 
ATOM     16  C   UNL     1       1.171   2.090   0.002  0.00  0.00    +0.002 A 
ATOM     17  C   UNL     1      -0.017   1.384   0.010  0.00  0.00    +0.026 A 
ATOM     18  C   UNL     1       0.002  -0.004   0.002  0.00  0.00    +0.050 A 
ATOM     19  C   UNL     1       1.216  -0.679  -0.013  0.00  0.00    +0.030 A 
BRANCH  14  21
ATOM     20  C   UNL     1       4.149  -0.939  -1.486  0.00  0.00    +0.009 C 
ATOM     21  C   UNL     1       3.717  -0.700  -0.038  0.00  0.00    +0.032 C 
ENDBRANCH  14  21
ENDBRANCH   1  18
BRANCH   3  22
ATOM     22  C   UNL     1      -3.643  -3.002  -1.521  0.00  0.00    +0.250 C 
ATOM     23  O   UNL     1      -3.475  -4.205  -1.430  0.00  0.00    -0.270 OA
ATOM     24  N   UNL     1      -4.551  -2.513  -2.389  0.00  0.00    -0.307 N 
ATOM     25  H   UNL     1      -4.685  -1.555  -2.461  0.00  0.00    +0.149 HD
BRANCH  24  26
ATOM     26  C   UNL     1      -5.335  -3.427  -3.222  0.00  0.00    +0.147 C 
BRANCH  26  27
ATOM     27  C   UNL     1      -6.270  -2.632  -4.097  0.00  0.00    +0.007 A 
ATOM     28  C   UNL     1      -6.058  -2.130  -5.338  0.00  0.00    +0.013 A 
ATOM     29  C   UNL     1      -7.073  -1.427  -5.960  0.00  0.00    +0.008 A 
ATOM     30  C   UNL     1      -8.247  -1.252  -5.305  0.00  0.00    +0.045 A 
ATOM     31  S   UNL     1      -7.942  -2.101  -3.765  0.00  0.00    -0.100 S 
ENDBRANCH  26  27
ENDBRANCH  24  26
ENDBRANCH   3  22
BRANCH   2  32
ATOM     32  N   UNL     1      -0.951  -1.735  -2.177  0.00  0.00    -0.343 N 
ATOM     33  H   UNL     1      -0.096  -1.302  -2.327  0.00  0.00    +0.144 HD
ATOM     34  H   UNL     1      -1.324  -2.319  -2.856  0.00  0.00    +0.144 HD
ENDBRANCH   2  32
TORSDOF 6
