REMARK  Name = ZINC35498272
REMARK  8 active torsions:
REMARK  status: ('A' for Active; 'I' for Inactive)
REMARK    1  A    between atoms: C_1  and  C_2
REMARK    2  A    between atoms: C_12  and  C_14
REMARK    3  A    between atoms: C_12  and  O_33
REMARK    4  A    between atoms: C_15  and  C_16
REMARK    5  A    between atoms: C_23  and  O_24
REMARK    6  A    between atoms: O_24  and  C_25
REMARK    7  A    between atoms: N_31  and  C_32
REMARK    8  A    between atoms: C_42  and  C_43
REMARK                            x       y       z     vdW  Elec       q    Type
REMARK                         _______ _______ _______ _____ _____    ______ ____
ROOT
ATOM      1  C   UNL     1      -0.019   1.523   0.010  0.00  0.00    +0.011 C 
ATOM      2  C   UNL     1       0.002  -0.004   0.002  0.00  0.00    -0.025 C 
ATOM      3  C   UNL     1      -1.395  -0.583   0.047  0.00  0.00    +0.007 C 
ATOM      4  C   UNL     1      -1.959  -0.569   1.468  0.00  0.00    +0.005 C 
ATOM      5  C   UNL     1      -1.125   0.227   2.456  0.00  0.00    +0.002 C 
ATOM      6  C   UNL     1       0.326  -0.242   2.504  0.00  0.00    -0.003 C 
ATOM      7  C   UNL     1       0.831  -0.622   1.147  0.00  0.00    +0.002 C 
ATOM      8  C   UNL     1       2.261  -0.224   0.775  0.00  0.00    +0.052 C 
ATOM      9  C   UNL     1       2.291  -0.425  -0.763  0.00  0.00    +0.127 C 
ATOM     10  C   UNL     1       0.815  -0.473  -1.230  0.00  0.00    +0.055 C 
ATOM     11  C   UNL     1       1.212   0.777   3.207  0.00  0.00    +0.008 C 
ATOM     12  C   UNL     1       0.491   1.365   4.421  0.00  0.00    +0.032 C 
ATOM     13  C   UNL     1      -0.615   0.430   4.851  0.00  0.00    -0.060 C 
ATOM     14  C   UNL     1      -0.609  -0.099   6.070  0.00  0.00    +0.046 C 
ATOM     15  C   UNL     1      -1.664  -1.008   6.508  0.00  0.00    +0.156 C 
ATOM     16  O   UNL     1      -1.665  -1.429   7.647  0.00  0.00    -0.293 OA
ATOM     17  C   UNL     1      -2.749  -1.431   5.552  0.00  0.00    +0.080 C 
ATOM     18  C   UNL     1      -2.255  -1.288   4.111  0.00  0.00    +0.019 C 
ATOM     19  C   UNL     1      -1.720   0.119   3.871  0.00  0.00    -0.007 C 
ATOM     20  C   UNL     1      -2.842   1.149   4.019  0.00  0.00    +0.016 C 
ENDROOT
BRANCH   9  21
ATOM     21  C   UNL     1       3.010   0.682  -1.411  0.00  0.00    -0.066 C 
ATOM     22  C   UNL     1       3.583   1.566  -1.929  0.00  0.00    -0.075 C 
BRANCH  22  23
ATOM     23  C   UNL     1       4.301   2.675  -2.578  0.00  0.00    +0.167 C 
ATOM     24  C   UNL     1       4.315   2.453  -4.068  0.00  0.00    +0.030 A 
ATOM     25  C   UNL     1       5.443   2.684  -4.827  0.00  0.00    -0.033 A 
ATOM     26  C   UNL     1       5.412   2.473  -6.197  0.00  0.00    +0.053 A 
ATOM     27  C   UNL     1       4.254   2.027  -6.813  0.00  0.00    +0.170 A 
ATOM     28  C   UNL     1       3.115   1.790  -6.051  0.00  0.00    +0.208 A 
ATOM     29  C   UNL     1       3.150   2.004  -4.680  0.00  0.00    +0.171 A 
ATOM     30  O   UNL     1       2.117   1.361  -6.879  0.00  0.00    -0.449 OA
ATOM     31  C   UNL     1       2.535   1.729  -8.207  0.00  0.00    +0.467 C 
ATOM     32  O   UNL     1       3.972   1.748  -8.119  0.00  0.00    -0.452 OA
ATOM     33  C   UNL     1       6.731   3.161  -4.205  0.00  0.00    +0.051 C 
ATOM     34  C   UNL     1       6.460   3.722  -2.809  0.00  0.00    +0.090 C 
ATOM     35  N   UNL     1       5.670   2.736  -2.055  0.00  0.00    -0.288 NA
ATOM     36  C   UNL     1       5.672   3.047  -0.620  0.00  0.00    +0.106 C 
BRANCH  29  37
ATOM     37  O   UNL     1       2.038   1.774  -3.932  0.00  0.00    -0.491 OA
ATOM     38  C   UNL     1       1.137   2.869  -3.753  0.00  0.00    +0.277 C 
ENDBRANCH  29  37
ENDBRANCH  22  23
ENDBRANCH   9  21
BRANCH   9  39
ATOM     39  O   UNL     1       2.938  -1.665  -1.069  0.00  0.00    -0.377 OA
ATOM     40  H   UNL     1       3.858  -1.712  -0.776  0.00  0.00    +0.211 HD
ENDBRANCH   9  39
TORSDOF 4
