REMARK  Name = ZINC44021757
REMARK  7 active torsions:
REMARK  status: ('A' for Active; 'I' for Inactive)
REMARK    1  A    between atoms: C_1  and  C_2
REMARK    2  A    between atoms: C_7  and  C_23
REMARK    3  A    between atoms: N_9  and  C_10
REMARK    4  A    between atoms: N_14  and  C_19
REMARK    5  A    between atoms: C_19  and  C_20
REMARK    6  A    between atoms: C_20  and  C_21
REMARK    7  A    between atoms: C_20  and  C_22
REMARK                            x       y       z     vdW  Elec       q    Type
REMARK                         _______ _______ _______ _____ _____    ______ ____
ROOT
ATOM      1  C   UNL     1      -0.055  -1.127   2.141  0.00  0.00    +0.108 A 
ATOM      2  C   UNL     1      -1.381  -1.404   1.956  0.00  0.00    +0.112 A 
ATOM      3  C   UNL     1      -2.081  -2.088   2.963  0.00  0.00    +0.258 A 
ATOM      4  O   UNL     1      -3.264  -2.346   2.820  0.00  0.00    -0.267 OA
ATOM      5  N   UNL     1      -1.438  -2.457   4.088  0.00  0.00    -0.261 N 
ATOM      6  C   UNL     1      -0.132  -2.176   4.253  0.00  0.00    +0.331 A 
ATOM      7  O   UNL     1       0.429  -2.518   5.276  0.00  0.00    -0.246 OA
ATOM      8  N   UNL     1       0.563  -1.527   3.301  0.00  0.00    -0.296 N 
ATOM      9  H   UNL     1       1.504  -1.337   3.436  0.00  0.00    +0.172 HD
ENDROOT
BRANCH   1  16
ATOM     10  C   UNL     1       0.689  -0.888  -1.239  0.00  0.00    +0.028 C 
ATOM     11  C   UNL     1       1.344  -1.199   0.108  0.00  0.00    +0.072 C 
ATOM     12  C   UNL     1       2.813  -0.767   0.077  0.00  0.00    +0.022 C 
ATOM     13  C   UNL     1       2.890   0.754  -0.066  0.00  0.00    +0.004 C 
ATOM     14  C   UNL     1       2.218   1.416   1.139  0.00  0.00    +0.022 C 
ATOM     15  C   UNL     1       0.742   1.009   1.183  0.00  0.00    +0.072 C 
ATOM     16  N   UNL     1       0.654  -0.460   1.174  0.00  0.00    -0.311 N 
ATOM     17  C   UNL     1       0.097   1.556   2.457  0.00  0.00    +0.028 C 
ENDBRANCH   1  16
BRANCH   5  18
ATOM     18  C   UNL     1      -2.166  -3.170   5.140  0.00  0.00    +0.133 C 
BRANCH  18  19
ATOM     19  C   UNL     1      -2.071  -4.677   4.894  0.00  0.00    +0.003 C 
ATOM     20  C   UNL     1      -0.615  -5.126   5.034  0.00  0.00    +0.009 C 
ATOM     21  C   UNL     1      -2.934  -5.416   5.919  0.00  0.00    +0.009 C 
ENDBRANCH  18  19
ENDBRANCH   5  18
TORSDOF 3
