REMARK  Name = ZINC07344221
REMARK  5 active torsions:
REMARK  status: ('A' for Active; 'I' for Inactive)
REMARK    1  A    between atoms: C_1  and  C_2
REMARK    2  A    between atoms: C_9  and  S_12
REMARK    3  A    between atoms: S_12  and  C_13
REMARK    4  A    between atoms: C_13  and  C_14
REMARK    5  A    between atoms: N_16  and  C_17
REMARK                            x       y       z     vdW  Elec       q    Type
REMARK                         _______ _______ _______ _____ _____    ______ ____
ROOT
ATOM      1  C   UNL     1      -0.014   1.209   0.009  0.00  0.00    +0.224 C 
ATOM      2  O   UNL     1       0.002  -0.004   0.002  0.00  0.00    -0.275 OA
ATOM      3  N   UNL     1       1.143   1.898   0.001  0.00  0.00    -0.311 N 
ATOM      4  H   UNL     1       1.130   2.868   0.007  0.00  0.00    +0.149 HD
ENDROOT
BRANCH   3   5
ATOM      5  C   UNL     1       2.422   1.183  -0.015  0.00  0.00    +0.079 C 
ATOM      6  C   UNL     1       2.819   0.817   1.417  0.00  0.00    +0.010 C 
ATOM      7  C   UNL     1       4.155   0.070   1.400  0.00  0.00    +0.009 C 
ATOM      8  C   UNL     1       5.232   0.965   0.785  0.00  0.00    -0.010 C 
ATOM      9  C   UNL     1       5.372   2.241   1.618  0.00  0.00    +0.007 C 
ATOM     10  C   UNL     1       4.037   2.988   1.634  0.00  0.00    -0.010 C 
ATOM     11  C   UNL     1       2.959   2.092   2.250  0.00  0.00    +0.009 C 
ATOM     12  C   UNL     1       3.639   3.354   0.203  0.00  0.00    +0.009 C 
ATOM     13  C   UNL     1       3.499   2.078  -0.630  0.00  0.00    +0.010 C 
ATOM     14  C   UNL     1       4.835   1.332  -0.647  0.00  0.00    +0.009 C 
ENDBRANCH   3   5
BRANCH   1  15
ATOM     15  C   UNL     1      -1.330   1.944   0.019  0.00  0.00    +0.173 C 
BRANCH  15  16
ATOM     16  S   UNL     1      -2.689   0.750   0.019  0.00  0.00    -0.079 S 
BRANCH  16  25
ATOM     17  C   UNL     1      -7.587   6.652   0.074  0.00  0.00    +0.044 C 
ATOM     18  C   UNL     1      -7.069   5.237   0.064  0.00  0.00    -0.048 A 
ATOM     19  C   UNL     1      -7.963   4.177   0.063  0.00  0.00    +0.005 A 
ATOM     20  C   UNL     1      -7.504   2.876   0.054  0.00  0.00    +0.028 A 
ATOM     21  C   UNL     1      -6.140   2.625   0.045  0.00  0.00    +0.067 A 
ATOM     22  C   UNL     1      -5.230   3.695   0.047  0.00  0.00    +0.090 A 
ATOM     23  C   UNL     1      -5.711   5.007   0.056  0.00  0.00    +0.033 A 
ATOM     24  N   UNL     1      -3.982   3.159   0.044  0.00  0.00    -0.222 NA
ATOM     25  C   UNL     1      -4.064   1.851   0.031  0.00  0.00    +0.168 A 
ATOM     26  N   UNL     1      -5.376   1.469   0.035  0.00  0.00    -0.333 N 
ATOM     27  H   UNL     1      -5.721   0.530   0.032  0.00  0.00    +0.168 HD
ENDBRANCH  16  25
ENDBRANCH  15  16
ENDBRANCH   1  15
TORSDOF 4
