REMARK  Name = ZINC09265061
REMARK  5 active torsions:
REMARK  status: ('A' for Active; 'I' for Inactive)
REMARK    1  A    between atoms: C_1  and  C_2
REMARK    2  A    between atoms: C_2  and  C_4
REMARK    3  A    between atoms: C_2  and  N_6
REMARK    4  A    between atoms: C_8  and  C_15
REMARK    5  A    between atoms: N_22  and  C_25
REMARK                            x       y       z     vdW  Elec       q    Type
REMARK                         _______ _______ _______ _____ _____    ______ ____
ROOT
ATOM      1  C   UNL     1       3.786  -2.325   0.162  0.00  0.00    +0.028 C 
ATOM      2  C   UNL     1       3.659  -0.978   0.473  0.00  0.00    +0.100 C 
ATOM      3  C   UNL     1       4.768  -0.221   1.080  0.00  0.00    +0.257 C 
ATOM      4  O   UNL     1       5.830  -0.759   1.326  0.00  0.00    -0.270 OA
ATOM      5  N   UNL     1       4.572   1.085   1.355  0.00  0.00    -0.235 N 
ATOM      6  C   UNL     1       3.406   1.691   1.089  0.00  0.00    +0.320 C 
ATOM      7  O   UNL     1       3.295   2.870   1.361  0.00  0.00    -0.251 OA
ATOM      8  N   UNL     1       2.357   1.064   0.538  0.00  0.00    -0.190 N 
ATOM      9  C   UNL     1       2.408  -0.244   0.215  0.00  0.00    +0.263 C 
ATOM     10  O   UNL     1       1.447  -0.803  -0.280  0.00  0.00    -0.269 OA
ATOM     11  H   UNL     1       5.292   1.598   1.755  0.00  0.00    +0.159 HD
ENDROOT
BRANCH   1  14
ATOM     12  N   UNL     1       7.232  -3.344   0.060  0.00  0.00    -0.332 N 
ATOM     13  C   UNL     1       6.255  -2.460  -0.208  0.00  0.00    +0.095 A 
ATOM     14  C   UNL     1       5.045  -2.953   0.250  0.00  0.00    +0.001 A 
ATOM     15  C   UNL     1       5.340  -4.273   0.844  0.00  0.00    +0.007 A 
ATOM     16  C   UNL     1       6.723  -4.460   0.695  0.00  0.00    +0.050 A 
ATOM     17  C   UNL     1       7.306  -5.632   1.165  0.00  0.00    +0.026 A 
ATOM     18  C   UNL     1       6.526  -6.594   1.771  0.00  0.00    +0.002 A 
ATOM     19  C   UNL     1       5.160  -6.406   1.917  0.00  0.00    +0.001 A 
ATOM     20  C   UNL     1       4.564  -5.251   1.457  0.00  0.00    +0.010 A 
BRANCH  12  22
ATOM     21  C   UNL     1       9.173  -1.901   0.423  0.00  0.00    +0.043 C 
ATOM     22  C   UNL     1       8.644  -3.152  -0.280  0.00  0.00    +0.197 C 
BRANCH  22  23
ATOM     23  C   UNL     1       8.784  -2.987  -1.772  0.00  0.00    +0.378 C 
ATOM     24  O   UNL     1       7.804  -3.026  -2.478  0.00  0.00    -0.244 OA
ATOM     25  O   UNL     1       9.996  -2.798  -2.315  0.00  0.00    -0.244 OA
ENDBRANCH  22  23
ENDBRANCH  12  22
ENDBRANCH   1  14
BRANCH   8  26
ATOM     26  C   UNL     1       1.178   1.784   0.298  0.00  0.00    +0.049 A 
ATOM     27  C   UNL     1       0.750   2.002  -1.005  0.00  0.00    +0.028 A 
ATOM     28  C   UNL     1      -0.409   2.716  -1.243  0.00  0.00    +0.051 A 
ATOM     29  C   UNL     1      -1.153   3.207  -0.183  0.00  0.00    +0.166 A 
ATOM     30  C   UNL     1      -0.727   2.990   1.125  0.00  0.00    +0.168 A 
ATOM     31  C   UNL     1       0.438   2.279   1.363  0.00  0.00    +0.073 A 
ATOM     32  O   UNL     1      -1.621   3.572   1.978  0.00  0.00    -0.453 OA
ATOM     33  C   UNL     1      -2.809   3.793   1.196  0.00  0.00    +0.466 C 
ATOM     34  O   UNL     1      -2.315   3.925  -0.149  0.00  0.00    -0.453 OA
ENDBRANCH   8  26
TORSDOF 4
