REMARK  Name = ZINC67028805
REMARK  5 active torsions:
REMARK  status: ('A' for Active; 'I' for Inactive)
REMARK    1  A    between atoms: C_1  and  O_2
REMARK    2  A    between atoms: O_2  and  C_3
REMARK    3  A    between atoms: C_3  and  C_5
REMARK    4  A    between atoms: C_7  and  C_13
REMARK    5  A    between atoms: C_18  and  C_20
REMARK                            x       y       z     vdW  Elec       q    Type
REMARK                         _______ _______ _______ _____ _____    ______ ____
ROOT
ATOM      1  C   UNL     1      -1.147  -2.235  -0.177  0.00  0.00    +0.148 C 
ATOM      2  C   UNL     1      -2.454  -2.758  -0.188  0.00  0.00    +0.056 C 
ATOM      3  C   UNL     1      -2.603  -4.235  -0.501  0.00  0.00    +0.159 C 
ATOM      4  N   UNL     1      -1.356  -4.976  -0.763  0.00  0.00    -0.312 N 
ATOM      5  C   UNL     1      -0.188  -4.308  -0.709  0.00  0.00    +0.155 C 
ATOM      6  S   UNL     1       1.261  -5.168  -1.013  0.00  0.00    -0.017 S 
ATOM      7  N   UNL     1      -0.110  -3.010  -0.435  0.00  0.00    -0.186 NA
ATOM      8  C   UNL     1      -3.550  -1.962   0.074  0.00  0.00    +0.193 C 
ATOM      9  O   UNL     1      -3.408  -0.621   0.154  0.00  0.00    -0.287 OA
ATOM     10  H   UNL     1      -1.376  -5.924  -0.969  0.00  0.00    +0.149 HD
ENDROOT
BRANCH   8  11
ATOM     11  C   UNL     1      -4.875  -2.575   0.268  0.00  0.00    +0.022 A 
ATOM     12  C   UNL     1      -5.019  -3.688   1.103  0.00  0.00    +0.014 A 
ATOM     13  C   UNL     1      -6.261  -4.257   1.280  0.00  0.00    +0.039 A 
ATOM     14  C   UNL     1      -7.368  -3.729   0.631  0.00  0.00    +0.123 A 
ATOM     15  C   UNL     1      -7.232  -2.626  -0.199  0.00  0.00    +0.039 A 
ATOM     16  C   UNL     1      -5.996  -2.044  -0.379  0.00  0.00    +0.014 A 
ATOM     17  F   UNL     1      -8.583  -4.291   0.808  0.00  0.00    -0.205 F 
ENDBRANCH   8  11
BRANCH   3  18
ATOM     18  C   UNL     1      -3.487  -4.371  -1.714  0.00  0.00    +0.097 A 
ATOM     19  C   UNL     1      -3.109  -5.066  -2.817  0.00  0.00    +0.094 A 
ATOM     20  S   UNL     1      -4.446  -4.884  -3.818  0.00  0.00    +0.028 S 
ATOM     21  N   UNL     1      -5.380  -3.983  -2.852  0.00  0.00    -0.110 NA
ATOM     22  N   UNL     1      -4.685  -3.829  -1.779  0.00  0.00    -0.144 NA
ENDBRANCH   3  18
BRANCH   1  23
ATOM     23  C   UNL     1      -0.933  -0.795   0.122  0.00  0.00    +0.356 C 
ATOM     24  O   UNL     1      -0.835  -0.423   1.273  0.00  0.00    -0.243 OA
BRANCH  23  26
ATOM     25  C   UNL     1      -0.641   1.463  -0.522  0.00  0.00    +0.280 C 
ATOM     26  O   UNL     1      -0.848   0.096  -0.883  0.00  0.00    -0.464 OA
ENDBRANCH  23  26
ENDBRANCH   1  23
TORSDOF 4
