REMARK  Name = ZINC04631567
REMARK  11 active torsions:
REMARK  status: ('A' for Active; 'I' for Inactive)
REMARK    1  A    between atoms: C_1  and  C_2
REMARK    2  A    between atoms: C_2  and  C_3
REMARK    3  A    between atoms: C_2  and  O_4
REMARK    4  A    between atoms: O_4  and  C_5
REMARK    5  A    between atoms: C_10  and  C_11
REMARK    6  A    between atoms: C_15  and  C_25
REMARK    7  A    between atoms: C_20  and  N_24
REMARK    8  A    between atoms: C_21  and  C_22
REMARK    9  A    between atoms: C_25  and  C_26
REMARK   10  A    between atoms: C_25  and  C_27
REMARK   11  A    between atoms: C_25  and  C_28
REMARK                            x       y       z     vdW  Elec       q    Type
REMARK                         _______ _______ _______ _____ _____    ______ ____
ROOT
ATOM      1  C   UNL     1      -4.204  -1.090  -0.042  0.00  0.00    +0.086 C 
ATOM      2  C   UNL     1      -5.206  -0.854  -1.178  0.00  0.00    +0.136 C 
ATOM      3  C   UNL     1      -4.501  -0.741  -2.509  0.00  0.00    +0.059 C 
ATOM      4  N   UNL     1      -4.893  -1.754  -3.213  0.00  0.00    -0.154 NA
ATOM      5  N   UNL     1      -5.772  -2.582  -2.514  0.00  0.00    -0.115 NA
ATOM      6  C   UNL     1      -5.996  -2.154  -1.310  0.00  0.00    +0.227 C 
ATOM      7  O   UNL     1      -6.669  -2.672  -0.261  0.00  0.00    -0.425 OA
ATOM      8  C   UNL     1      -6.025  -2.547   0.929  0.00  0.00    +0.200 C 
ATOM      9  C   UNL     1      -4.894  -1.823   1.078  0.00  0.00    +0.095 C 
ENDROOT
BRANCH   1  15
ATOM     10  C   UNL     1      -1.747  -1.527  -0.281  0.00  0.00    +0.125 A 
ATOM     11  C   UNL     1      -0.687  -2.292  -0.746  0.00  0.00    +0.046 A 
ATOM     12  C   UNL     1      -0.933  -3.437  -1.480  0.00  0.00    +0.004 A 
ATOM     13  C   UNL     1      -2.233  -3.820  -1.751  0.00  0.00    +0.001 A 
ATOM     14  C   UNL     1      -3.291  -3.058  -1.289  0.00  0.00    +0.008 A 
ATOM     15  C   UNL     1      -3.051  -1.916  -0.550  0.00  0.00    +0.004 A 
BRANCH  10  16
ATOM     16  O   UNL     1      -1.508  -0.401   0.442  0.00  0.00    -0.489 OA
BRANCH  16  18
ATOM     17  C   UNL     1      -0.071   1.524   0.709  0.00  0.00    +0.051 C 
ATOM     18  C   UNL     1      -0.144   0.001   0.585  0.00  0.00    +0.167 C 
ATOM     19  C   UNL     1       0.448  -0.642   1.841  0.00  0.00    +0.051 C 
ENDBRANCH  16  18
ENDBRANCH  10  16
ENDBRANCH   1  15
BRANCH   3  20
ATOM     20  C   UNL     1      -3.536   0.336  -2.933  0.00  0.00    +0.003 C 
ATOM     21  C   UNL     1      -3.042   0.048  -4.352  0.00  0.00    +0.017 C 
ATOM     22  C   UNL     1      -4.241   1.693  -2.904  0.00  0.00    +0.017 C 
ATOM     23  C   UNL     1      -2.345   0.359  -1.973  0.00  0.00    +0.017 C 
ENDBRANCH   3  20
BRANCH   8  24
ATOM     24  N   UNL     1      -6.546  -3.183   2.029  0.00  0.00    -0.328 N 
ATOM     25  H   UNL     1      -7.357  -3.708   1.946  0.00  0.00    +0.145 HD
ATOM     26  H   UNL     1      -6.103  -3.107   2.888  0.00  0.00    +0.145 HD
ENDBRANCH   8  24
BRANCH   9  27
ATOM     27  C   UNL     1      -4.312  -1.748   2.384  0.00  0.00    +0.100 C 
ATOM     28  N   UNL     1      -3.850  -1.688   3.421  0.00  0.00    -0.191 NA
ENDBRANCH   9  27
TORSDOF 6
