REMARK  Name = ZINC39955540
REMARK  5 active torsions:
REMARK  status: ('A' for Active; 'I' for Inactive)
REMARK    1  A    between atoms: C_1  and  C_2
REMARK    2  A    between atoms: C_4  and  N_9
REMARK    3  A    between atoms: C_10  and  N_22
REMARK    4  A    between atoms: C_11  and  C_20
REMARK    5  A    between atoms: C_12  and  C_14
REMARK                            x       y       z     vdW  Elec       q    Type
REMARK                         _______ _______ _______ _____ _____    ______ ____
ROOT
ATOM      1  N   UNL     1       0.028  -2.770  -2.424  0.00  0.00    -0.217 N 
ATOM      2  C   UNL     1       0.667  -3.937  -2.667  0.00  0.00    +0.138 A 
ATOM      3  C   UNL     1       0.411  -4.275  -3.993  0.00  0.00    +0.117 A 
ATOM      4  C   UNL     1      -0.411  -3.256  -4.529  0.00  0.00    +0.111 A 
ATOM      5  N   UNL     1      -0.635  -2.377  -3.592  0.00  0.00    -0.166 NA
ENDROOT
BRANCH   1   9
ATOM      6  C   UNL     1      -0.018   1.503   0.010  0.00  0.00    +0.044 C 
ATOM      7  C   UNL     1       0.002  -0.004   0.002  0.00  0.00    -0.046 A 
ATOM      8  C   UNL     1       0.006  -0.687  -1.199  0.00  0.00    +0.031 A 
ATOM      9  C   UNL     1       0.025  -2.075  -1.207  0.00  0.00    +0.070 A 
ATOM     10  C   UNL     1       0.040  -2.775  -0.008  0.00  0.00    +0.066 A 
ATOM     11  C   UNL     1       0.036  -2.086   1.192  0.00  0.00    +0.126 A 
ATOM     12  C   UNL     1       0.023  -0.701   1.196  0.00  0.00    +0.041 A 
ATOM     13  F   UNL     1       0.051  -2.764   2.360  0.00  0.00    -0.205 F 
ENDBRANCH   1   9
BRANCH   4  14
ATOM     14  C   UNL     1      -0.942  -3.199  -5.938  0.00  0.00    +0.170 C 
ATOM     15  C   UNL     1      -0.162  -2.142  -6.749  0.00  0.00    +0.040 C 
ATOM     16  C   UNL     1      -1.282  -1.490  -7.605  0.00  0.00    +0.031 C 
ATOM     17  C   UNL     1      -2.479  -1.560  -6.624  0.00  0.00    +0.161 C 
ATOM     18  O   UNL     1      -2.319  -2.806  -5.923  0.00  0.00    -0.370 OA
ENDBRANCH   4  14
BRANCH   2  19
ATOM     19  N   UNL     1       1.431  -4.657  -1.769  0.00  0.00    -0.342 N 
ATOM     20  H   UNL     1       1.548  -4.332  -0.863  0.00  0.00    +0.144 HD
ATOM     21  H   UNL     1       1.850  -5.487  -2.045  0.00  0.00    +0.144 HD
ENDBRANCH   2  19
BRANCH   3  22
ATOM     22  C   UNL     1       0.889  -5.434  -4.684  0.00  0.00    +0.105 C 
ATOM     23  N   UNL     1       1.269  -6.354  -5.232  0.00  0.00    -0.191 NA
ENDBRANCH   3  22
TORSDOF 4
