REMARK  Name = ZINC67608518
REMARK  6 active torsions:
REMARK  status: ('A' for Active; 'I' for Inactive)
REMARK    1  A    between atoms: C_4  and  N_7
REMARK    2  A    between atoms: N_7  and  C_8
REMARK    3  A    between atoms: N_16  and  C_17
REMARK    4  A    between atoms: C_17  and  C_18
REMARK    5  A    between atoms: C_21  and  S_23
REMARK    6  A    between atoms: S_23  and  N_26
REMARK                            x       y       z     vdW  Elec       q    Type
REMARK                         _______ _______ _______ _____ _____    ______ ____
ROOT
ATOM      1  C   UNL     1       3.641  -2.114  -0.044  0.00  0.00    +0.089 C 
ATOM      2  C   UNL     1       4.984  -2.640  -0.617  0.00  0.00    +0.043 C 
ATOM      3  C   UNL     1       5.091  -4.027   0.065  0.00  0.00    +0.111 C 
ATOM      4  N   UNL     1       4.549  -3.823   1.421  0.00  0.00    -0.284 N 
ATOM      5  C   UNL     1       3.635  -2.668   1.396  0.00  0.00    +0.131 C 
ATOM      6  C   UNL     1       4.837  -4.573   2.503  0.00  0.00    +0.303 C 
ATOM      7  O   UNL     1       4.328  -4.312   3.576  0.00  0.00    -0.253 OA
ATOM      8  N   UNL     1       5.690  -5.611   2.396  0.00  0.00    -0.295 N 
ATOM      9  H   UNL     1       6.096  -5.819   1.540  0.00  0.00    +0.151 HD
ENDROOT
BRANCH   1  10
ATOM     10  N   UNL     1       3.620  -0.649  -0.036  0.00  0.00    -0.339 N 
ATOM     11  H   UNL     1       4.452  -0.152  -0.042  0.00  0.00    +0.146 HD
BRANCH  10  15
ATOM     12  C   UNL     1      -0.017   1.379   0.010  0.00  0.00    +0.000 A 
ATOM     13  C   UNL     1       1.169   2.089   0.002  0.00  0.00    +0.002 A 
ATOM     14  C   UNL     1       2.377   1.420  -0.013  0.00  0.00    +0.023 A 
ATOM     15  C   UNL     1       2.400   0.031  -0.021  0.00  0.00    +0.027 A 
ATOM     16  C   UNL     1       1.206  -0.680  -0.013  0.00  0.00    +0.023 A 
ATOM     17  C   UNL     1       0.002  -0.004   0.002  0.00  0.00    +0.002 A 
ENDBRANCH  10  15
ENDBRANCH   1  10
BRANCH   8  18
ATOM     18  C   UNL     1       6.004  -6.426   3.572  0.00  0.00    +0.148 C 
BRANCH  18  19
ATOM     19  C   UNL     1       6.974  -7.512   3.186  0.00  0.00    +0.009 A 
ATOM     20  C   UNL     1       8.329  -7.491   3.200  0.00  0.00    +0.015 A 
ATOM     21  C   UNL     1       9.021  -8.619   2.799  0.00  0.00    +0.036 A 
ATOM     22  C   UNL     1       8.324  -9.712   2.404  0.00  0.00    +0.142 A 
ATOM     23  S   UNL     1       6.636  -9.164   2.599  0.00  0.00    -0.072 S 
BRANCH  22  24
ATOM     24  S   UNL     1       8.928 -11.271   1.848  0.00  0.00    +0.062 S 
ATOM     25  O   UNL     1       7.899 -11.844   1.052  0.00  0.00    -0.153 OA
ATOM     26  O   UNL     1      10.239 -11.045   1.350  0.00  0.00    -0.153 OA
BRANCH  24  27
ATOM     27  N   UNL     1       9.088 -12.239   3.182  0.00  0.00    -0.203 NA
ATOM     28  H   UNL     1       8.979 -13.199   3.101  0.00  0.00    +0.144 HD
ATOM     29  H   UNL     1       9.291 -11.845   4.045  0.00  0.00    +0.144 HD
ENDBRANCH  24  27
ENDBRANCH  22  24
ENDBRANCH  18  19
ENDBRANCH   8  18
TORSDOF 6
