REMARK  Name = ZINC66605796
REMARK  9 active torsions:
REMARK  status: ('A' for Active; 'I' for Inactive)
REMARK    1  A    between atoms: C_1  and  C_2
REMARK    2  A    between atoms: C_2  and  C_3
REMARK    3  A    between atoms: C_2  and  C_4
REMARK    4  A    between atoms: C_2  and  C_5
REMARK    5  A    between atoms: C_8  and  C_11
REMARK    6  A    between atoms: C_11  and  C_12
REMARK    7  A    between atoms: C_12  and  C_13
REMARK    8  A    between atoms: C_13  and  C_14
REMARK    9  A    between atoms: N_16  and  C_17
REMARK                            x       y       z     vdW  Elec       q    Type
REMARK                         _______ _______ _______ _____ _____    ______ ____
ROOT
ATOM      1  C   UNL     1       3.036  -0.350  -8.252  0.00  0.00    +0.213 C 
ATOM      2  O   UNL     1       2.390   0.657  -8.058  0.00  0.00    -0.276 OA
ATOM      3  N   UNL     1       3.583  -0.577  -9.463  0.00  0.00    -0.308 N 
ATOM      4  H   UNL     1       4.099  -1.383  -9.619  0.00  0.00    +0.149 HD
ENDROOT
BRANCH   3   5
ATOM      5  C   UNL     1       3.396   0.393 -10.544  0.00  0.00    +0.105 C 
ATOM      6  C   UNL     1       3.518  -0.322 -11.888  0.00  0.00    +0.027 C 
ATOM      7  C   UNL     1       3.548   0.740 -12.995  0.00  0.00    +0.008 C 
ATOM      8  C   UNL     1       4.867   1.502 -12.891  0.00  0.00    +0.054 C 
ATOM      9  C   UNL     1       5.094   1.985 -11.481  0.00  0.00    +0.024 A 
ATOM     10  C   UNL     1       4.433   1.478 -10.422  0.00  0.00    -0.008 A 
ATOM     11  C   UNL     1       4.707   1.970  -9.130  0.00  0.00    +0.012 A 
ATOM     12  C   UNL     1       5.631   2.954  -8.959  0.00  0.00    +0.070 A 
ATOM     13  C   UNL     1       6.297   3.465 -10.086  0.00  0.00    +0.249 A 
ATOM     14  O   UNL     1       7.128   4.350  -9.957  0.00  0.00    -0.268 OA
ATOM     15  N   UNL     1       6.016   2.978 -11.303  0.00  0.00    -0.326 N 
ATOM     16  H   UNL     1       6.480   3.337 -12.076  0.00  0.00    +0.169 HD
ENDBRANCH   3   5
BRANCH   1  17
ATOM     17  C   UNL     1       3.228  -1.349  -7.140  0.00  0.00    +0.096 C 
BRANCH  17  18
ATOM     18  C   UNL     1       2.512  -0.855  -5.881  0.00  0.00    +0.014 C 
BRANCH  18  19
ATOM     19  C   UNL     1       2.707  -1.868  -4.752  0.00  0.00    +0.035 C 
BRANCH  19  23
ATOM     20  C   UNL     1       0.707  -0.490  -1.238  0.00  0.00    -0.042 A 
ATOM     21  C   UNL     1       0.036  -1.284  -2.148  0.00  0.00    +0.004 A 
ATOM     22  C   UNL     1       0.683  -1.730  -3.286  0.00  0.00    +0.004 A 
ATOM     23  C   UNL     1       2.001  -1.381  -3.513  0.00  0.00    -0.047 A 
ATOM     24  C   UNL     1       2.672  -0.586  -2.603  0.00  0.00    +0.004 A 
ATOM     25  C   UNL     1       2.024  -0.137  -1.467  0.00  0.00    +0.004 A 
BRANCH  20  27
ATOM     26  C   UNL     1      -0.019   1.526   0.010  0.00  0.00    +0.015 C 
ATOM     27  C   UNL     1       0.002  -0.004   0.002  0.00  0.00    -0.013 C 
ATOM     28  C   UNL     1       0.742  -0.511   1.242  0.00  0.00    +0.015 C 
ATOM     29  C   UNL     1      -1.433  -0.534   0.013  0.00  0.00    +0.015 C 
ENDBRANCH  20  27
ENDBRANCH  19  23
ENDBRANCH  18  19
ENDBRANCH  17  18
ENDBRANCH   1  17
TORSDOF 6
