REMARK  Name = ZINC64660801
REMARK  7 active torsions:
REMARK  status: ('A' for Active; 'I' for Inactive)
REMARK    1  A    between atoms: C_1  and  C_2
REMARK    2  A    between atoms: C_5  and  C_8
REMARK    3  A    between atoms: C_8  and  N_9
REMARK    4  A    between atoms: C_10  and  C_12
REMARK    5  A    between atoms: C_12  and  N_13
REMARK    6  A    between atoms: C_16  and  C_30
REMARK    7  A    between atoms: C_17  and  C_29
REMARK                            x       y       z     vdW  Elec       q    Type
REMARK                         _______ _______ _______ _____ _____    ______ ____
ROOT
ATOM      1  N   UNL     1       3.156  -8.016  -0.059  0.00  0.00    -0.257 N 
ATOM      2  C   UNL     1       3.047  -8.625  -1.321  0.00  0.00    +0.058 A 
ATOM      3  C   UNL     1       2.944  -7.696  -2.340  0.00  0.00    +0.029 A 
ATOM      4  C   UNL     1       2.827  -8.124  -3.652  0.00  0.00    -0.046 A 
ATOM      5  C   UNL     1       2.814  -9.475  -3.944  0.00  0.00    -0.046 A 
ATOM      6  C   UNL     1       2.917 -10.409  -2.928  0.00  0.00    +0.028 A 
ATOM      7  C   UNL     1       3.035  -9.989  -1.613  0.00  0.00    +0.053 A 
ATOM      8  N   UNL     1       3.131 -11.068  -0.724  0.00  0.00    -0.316 N 
ATOM      9  C   UNL     1       3.262 -11.053   0.644  0.00  0.00    +0.016 C 
ATOM     10  C   UNL     1       3.358 -12.341   1.437  0.00  0.00    +0.051 C 
ATOM     11  C   UNL     1       3.925 -11.924   2.811  0.00  0.00    +0.011 C 
ATOM     12  C   UNL     1       3.471 -10.451   2.906  0.00  0.00    +0.042 C 
ATOM     13  C   UNL     1       3.327  -9.989   1.470  0.00  0.00    +0.032 C 
ATOM     14  H   UNL     1       3.100 -11.947  -1.131  0.00  0.00    +0.152 HD
ATOM     15  C   UNL     1       3.281  -8.610   1.142  0.00  0.00    +0.249 C 
ATOM     16  O   UNL     1       3.362  -7.849   2.090  0.00  0.00    -0.270 OA
ATOM     17  C   UNL     1       2.685  -9.933  -5.374  0.00  0.00    +0.044 C 
ATOM     18  C   UNL     1       2.715  -7.114  -4.765  0.00  0.00    +0.044 C 
ENDROOT
BRANCH   1  19
ATOM     19  C   UNL     1       3.137  -6.551  -0.051  0.00  0.00    +0.209 C 
BRANCH  19  21
ATOM     20  N   UNL     1       4.741  -4.701  -0.403  0.00  0.00    -0.310 N 
ATOM     21  C   UNL     1       4.518  -6.029  -0.356  0.00  0.00    +0.231 C 
ATOM     22  O   UNL     1       5.428  -6.805  -0.561  0.00  0.00    -0.274 OA
ATOM     23  H   UNL     1       4.013  -4.081  -0.239  0.00  0.00    +0.149 HD
BRANCH  20  24
ATOM     24  C   UNL     1       6.083  -4.194  -0.699  0.00  0.00    +0.139 C 
BRANCH  24  29
ATOM     25  C   UNL     1       6.012   1.584  -0.668  0.00  0.00    +0.044 C 
ATOM     26  C   UNL     1       6.030   0.077  -0.676  0.00  0.00    -0.050 A 
ATOM     27  C   UNL     1       6.297  -0.617   0.489  0.00  0.00    +0.003 A 
ATOM     28  C   UNL     1       6.314  -1.999   0.481  0.00  0.00    +0.005 A 
ATOM     29  C   UNL     1       6.064  -2.687  -0.691  0.00  0.00    -0.030 A 
ATOM     30  C   UNL     1       5.795  -1.993  -1.856  0.00  0.00    +0.005 A 
ATOM     31  C   UNL     1       5.774  -0.611  -1.848  0.00  0.00    +0.003 A 
ENDBRANCH  24  29
ENDBRANCH  20  24
ENDBRANCH  19  21
ENDBRANCH   1  19
TORSDOF 4
