REMARK  Name = ZINC42956737
REMARK  8 active torsions:
REMARK  status: ('A' for Active; 'I' for Inactive)
REMARK    1  A    between atoms: C_1  and  C_2
REMARK    2  A    between atoms: C_5  and  O_9
REMARK    3  A    between atoms: C_7  and  C_8
REMARK    4  A    between atoms: O_9  and  C_10
REMARK    5  A    between atoms: C_10  and  C_12
REMARK    6  A    between atoms: C_10  and  C_19
REMARK    7  A    between atoms: C_19  and  C_21
REMARK    8  A    between atoms: C_19  and  N_22
REMARK                            x       y       z     vdW  Elec       q    Type
REMARK                         _______ _______ _______ _____ _____    ______ ____
ROOT
ATOM      1  C   UNL     1      -0.052  -4.772  -1.292  0.00  0.00    +0.189 C 
ENDROOT
BRANCH   1   2
ATOM      2  C   UNL     1      -0.840  -6.048  -1.143  0.00  0.00    -0.009 A 
ATOM      3  C   UNL     1      -0.726  -6.800   0.011  0.00  0.00    +0.008 A 
ATOM      4  C   UNL     1      -1.449  -7.971   0.148  0.00  0.00    +0.015 A 
ATOM      5  C   UNL     1      -2.286  -8.389  -0.870  0.00  0.00    +0.018 A 
ATOM      6  C   UNL     1      -2.400  -7.637  -2.025  0.00  0.00    +0.015 A 
ATOM      7  C   UNL     1      -1.681  -6.464  -2.159  0.00  0.00    +0.008 A 
ATOM      8 BR   UNL     1      -3.274  -9.991  -0.684  0.00  0.00    -0.050 Br
ENDBRANCH   1   2
BRANCH   1   9
ATOM      9  C   UNL     1       1.346  -5.095  -1.822  0.00  0.00    -0.032 C 
ATOM     10  C   UNL     1       2.186  -3.817  -1.855  0.00  0.00    -0.010 C 
BRANCH   9  11
ATOM     11  N   UNL     1       1.988  -6.080  -0.942  0.00  0.00    +0.382 N 
ATOM     12  H   UNL     1       1.434  -6.923  -0.920  0.00  0.00    -0.089 HD
ATOM     13  H   UNL     1       2.910  -6.293  -1.292  0.00  0.00    -0.089 HD
ATOM     14  H   UNL     1       2.061  -5.701  -0.010  0.00  0.00    -0.089 HD
ENDBRANCH   9  11
ENDBRANCH   1   9
BRANCH   1  15
ATOM     15  O   UNL     1       0.057  -4.129  -0.021  0.00  0.00    -0.486 OA
BRANCH  15  20
ATOM     16  C   UNL     1      -0.428   1.482   0.056  0.00  0.00    +0.044 C 
ATOM     17  C   UNL     1      -0.298  -0.019   0.035  0.00  0.00    -0.047 A 
ATOM     18  C   UNL     1      -0.276  -0.694  -1.171  0.00  0.00    +0.007 A 
ATOM     19  C   UNL     1      -0.158  -2.070  -1.193  0.00  0.00    +0.046 A 
ATOM     20  C   UNL     1      -0.060  -2.775  -0.002  0.00  0.00    +0.122 A 
ATOM     21  C   UNL     1      -0.081  -2.096   1.207  0.00  0.00    +0.049 A 
ATOM     22  C   UNL     1      -0.195  -0.719   1.223  0.00  0.00    -0.044 A 
ATOM     23  C   UNL     1      -0.212   0.019   2.537  0.00  0.00    +0.044 C 
ENDBRANCH  15  20
ENDBRANCH   1  15
TORSDOF 5
