REMARK  Name = ZINC39980732
REMARK  6 active torsions:
REMARK  status: ('A' for Active; 'I' for Inactive)
REMARK    1  A    between atoms: C_1  and  O_2
REMARK    2  A    between atoms: O_2  and  C_3
REMARK    3  A    between atoms: C_8  and  C_15
REMARK    4  A    between atoms: C_17  and  N_27
REMARK    5  A    between atoms: N_27  and  C_28
REMARK    6  A    between atoms: C_28  and  C_29
REMARK                            x       y       z     vdW  Elec       q    Type
REMARK                         _______ _______ _______ _____ _____    ______ ____
ROOT
ATOM      1  C   UNL     1      -5.692  -4.501  -1.197  0.00  0.00    +0.158 C 
ATOM      2  C   UNL     1      -5.675  -6.037  -1.302  0.00  0.00    +0.173 C 
ATOM      3  N   UNL     1      -7.098  -6.406  -1.208  0.00  0.00    -0.272 N 
ATOM      4  C   UNL     1      -7.695  -7.633  -1.241  0.00  0.00    +0.098 C 
ATOM      5  C   UNL     1      -9.035  -7.755  -1.137  0.00  0.00    +0.055 C 
ATOM      6  C   UNL     1      -9.836  -6.609  -0.992  0.00  0.00    +0.024 C 
ATOM      7  C   UNL     1      -9.258  -5.383  -0.958  0.00  0.00    +0.045 C 
ATOM      8  C   UNL     1      -7.844  -5.265  -1.069  0.00  0.00    +0.122 C 
ATOM      9  N   UNL     1      -7.113  -4.166  -1.058  0.00  0.00    -0.261 NA
ATOM     10 CL   UNL     1      -9.769  -9.328  -1.181  0.00  0.00    -0.082 Cl
ENDROOT
BRANCH   1  16
ATOM     11  C   UNL     1      -6.930  -2.009   4.176  0.00  0.00    +0.122 A 
ATOM     12  C   UNL     1      -7.098  -3.390   4.355  0.00  0.00    +0.046 A 
ATOM     13  C   UNL     1      -6.667  -4.277   3.426  0.00  0.00    +0.013 A 
ATOM     14  C   UNL     1      -6.016  -3.777   2.213  0.00  0.00    -0.007 A 
ATOM     15  C   UNL     1      -5.571  -4.638   1.258  0.00  0.00    -0.003 C 
ATOM     16  C   UNL     1      -4.909  -4.039   0.033  0.00  0.00    +0.126 C 
ATOM     17  C   UNL     1      -4.795  -2.532  -0.030  0.00  0.00    +0.226 C 
ATOM     18  O   UNL     1      -4.273  -1.999  -0.990  0.00  0.00    -0.275 OA
ATOM     19  N   UNL     1      -5.266  -1.798   0.963  0.00  0.00    -0.284 N 
ATOM     20  C   UNL     1      -5.850  -2.322   2.043  0.00  0.00    +0.044 A 
ATOM     21  C   UNL     1      -6.331  -1.479   3.054  0.00  0.00    +0.069 A 
ATOM     22  H   UNL     1      -5.183  -0.833   0.903  0.00  0.00    +0.155 HD
BRANCH  11  24
ATOM     23  C   UNL     1      -7.994  -1.758   6.283  0.00  0.00    +0.277 C 
ATOM     24  O   UNL     1      -7.379  -1.166   5.137  0.00  0.00    -0.495 OA
ENDBRANCH  11  24
ENDBRANCH   1  16
BRANCH   2  25
ATOM     25  N   UNL     1      -5.112  -6.461  -2.591  0.00  0.00    -0.289 NA
ATOM     26  H   UNL     1      -5.842  -6.722  -3.237  0.00  0.00    +0.124 HD
BRANCH  25  27
ATOM     27  C   UNL     1      -4.151  -7.558  -2.411  0.00  0.00    +0.157 C 
BRANCH  27  28
ATOM     28  C   UNL     1      -3.596  -7.964  -3.752  0.00  0.00    +0.119 A 
ATOM     29  C   UNL     1      -2.497  -7.455  -4.335  0.00  0.00    +0.046 A 
ATOM     30  C   UNL     1      -2.345  -8.120  -5.574  0.00  0.00    +0.041 A 
ATOM     31  C   UNL     1      -3.361  -8.995  -5.673  0.00  0.00    +0.195 A 
ATOM     32  O   UNL     1      -4.113  -8.901  -4.564  0.00  0.00    -0.467 OA
ENDBRANCH  27  28
ENDBRANCH  25  27
ENDBRANCH   2  25
TORSDOF 5
