REMARK  Name = ZINC04140740
REMARK  2 active torsions:
REMARK  status: ('A' for Active; 'I' for Inactive)
REMARK    1  A    between atoms: C_4  and  C_7
REMARK    2  A    between atoms: C_22  and  N_26
REMARK                            x       y       z     vdW  Elec       q    Type
REMARK                         _______ _______ _______ _____ _____    ______ ____
ROOT
ATOM      1  C   UNL     1       3.711  -0.707  -0.038  0.00  0.00    +0.092 C 
ATOM      2  C   UNL     1       3.790  -1.557  -1.278  0.00  0.00    +0.015 A 
ATOM      3  C   UNL     1       4.082  -0.946  -2.511  0.00  0.00    -0.010 A 
ATOM      4  C   UNL     1       4.293   0.441  -2.601  0.00  0.00    +0.009 A 
ATOM      5  C   UNL     1       4.576   1.002  -3.809  0.00  0.00    +0.001 A 
ATOM      6  C   UNL     1       4.660   0.221  -4.960  0.00  0.00    +0.001 A 
ATOM      7  C   UNL     1       4.461  -1.125  -4.911  0.00  0.00    +0.008 A 
ATOM      8  C   UNL     1       4.164  -1.738  -3.683  0.00  0.00    -0.017 A 
ATOM      9  C   UNL     1       3.948  -3.124  -3.592  0.00  0.00    +0.012 A 
ATOM     10  C   UNL     1       3.664  -3.683  -2.388  0.00  0.00    +0.047 A 
ATOM     11  C   UNL     1       3.583  -2.904  -1.223  0.00  0.00    +0.135 A 
ATOM     12  O   UNL     1       3.295  -3.522  -0.050  0.00  0.00    -0.437 OA
ATOM     13  C   UNL     1       3.603  -2.930   1.122  0.00  0.00    +0.229 A 
ATOM     14  C   UNL     1       3.816  -1.567   1.189  0.00  0.00    +0.066 A 
ATOM     15  C   UNL     1       4.132  -1.005   2.422  0.00  0.00    +0.127 A 
ATOM     16  N   UNL     1       4.214  -1.801   3.487  0.00  0.00    -0.221 NA
ATOM     17  C   UNL     1       4.001  -3.097   3.378  0.00  0.00    +0.227 A 
ATOM     18  N   UNL     1       3.704  -3.655   2.234  0.00  0.00    -0.201 NA
ENDROOT
BRANCH   1  22
ATOM     19  C   UNL     1      -0.017   1.378   0.010  0.00  0.00    +0.000 A 
ATOM     20  C   UNL     1       1.171   2.086   0.002  0.00  0.00    +0.000 A 
ATOM     21  C   UNL     1       2.377   1.411  -0.013  0.00  0.00    +0.004 A 
ATOM     22  C   UNL     1       2.396   0.029  -0.020  0.00  0.00    -0.035 A 
ATOM     23  C   UNL     1       1.208  -0.679  -0.012  0.00  0.00    +0.004 A 
ATOM     24  C   UNL     1       0.002  -0.004   0.002  0.00  0.00    +0.000 A 
ENDBRANCH   1  22
BRANCH  15  25
ATOM     25  N   UNL     1       4.357   0.357   2.540  0.00  0.00    -0.343 N 
ATOM     26  H   UNL     1       4.295   0.929   1.758  0.00  0.00    +0.144 HD
ATOM     27  H   UNL     1       4.577   0.740   3.404  0.00  0.00    +0.144 HD
ENDBRANCH  15  25
TORSDOF 2
