REMARK  Name = ZINC40135417
REMARK  10 active torsions:
REMARK  status: ('A' for Active; 'I' for Inactive)
REMARK    1  A    between atoms: C_1  and  C_2
REMARK    2  A    between atoms: C_2  and  C_4
REMARK    3  A    between atoms: C_2  and  N_15
REMARK    4  A    between atoms: N_6  and  C_7
REMARK    5  A    between atoms: N_11  and  C_12
REMARK    6  A    between atoms: C_12  and  C_13
REMARK    7  A    between atoms: C_12  and  C_14
REMARK    8  A    between atoms: C_18  and  C_21
REMARK    9  A    between atoms: N_23  and  C_24
REMARK   10  A    between atoms: C_29  and  O_30
REMARK                            x       y       z     vdW  Elec       q    Type
REMARK                         _______ _______ _______ _____ _____    ______ ____
ROOT
ATOM      1  N   UNL     1      -1.373  -1.007  -0.751  0.00  0.00    +0.387 N 
ATOM      2  C   UNL     1      -1.751  -0.514  -2.081  0.00  0.00    -0.077 C 
ATOM      3  C   UNL     1      -2.975  -1.282  -2.585  0.00  0.00    -0.006 C 
ATOM      4  C   UNL     1      -2.637  -2.772  -2.669  0.00  0.00    +0.072 C 
ATOM      5  C   UNL     1      -2.172  -3.259  -1.294  0.00  0.00    -0.006 C 
ATOM      6  C   UNL     1      -0.978  -2.418  -0.838  0.00  0.00    -0.077 C 
ATOM      7  H   UNL     1      -2.159  -0.917  -0.125  0.00  0.00    -0.081 HD
ENDROOT
BRANCH   4   8
ATOM      8  C   UNL     1      -3.861  -3.544  -3.090  0.00  0.00    +0.220 C 
ATOM      9  O   UNL     1      -4.903  -2.961  -3.302  0.00  0.00    -0.275 OA
ATOM     10  N   UNL     1      -3.798  -4.883  -3.231  0.00  0.00    -0.282 N 
ATOM     11  H   UNL     1      -2.988  -5.359  -2.988  0.00  0.00    +0.155 HD
BRANCH  10  12
ATOM     12  C   UNL     1      -4.902  -5.588  -3.729  0.00  0.00    +0.077 A 
ATOM     13  C   UNL     1      -5.876  -4.926  -4.462  0.00  0.00    +0.047 A 
ATOM     14  C   UNL     1      -6.964  -5.624  -4.953  0.00  0.00    +0.043 A 
ATOM     15  C   UNL     1      -7.084  -6.982  -4.714  0.00  0.00    +0.023 A 
ATOM     16  C   UNL     1      -6.117  -7.647  -3.984  0.00  0.00    +0.049 A 
ATOM     17  C   UNL     1      -5.021  -6.956  -3.494  0.00  0.00    +0.138 A 
ATOM     18 CL   UNL     1      -8.183  -4.795  -5.871  0.00  0.00    -0.083 Cl
BRANCH  17  19
ATOM     19  O   UNL     1      -4.066  -7.610  -2.781  0.00  0.00    -0.505 OA
ATOM     20  H   UNL     1      -4.232  -7.633  -1.828  0.00  0.00    +0.292 HD
ENDBRANCH  17  19
ENDBRANCH  10  12
ENDBRANCH   4   8
BRANCH   1  22
ATOM     21  C   UNL     1      -0.681   1.243  -0.076  0.00  0.00    -0.004 C 
ATOM     22  C   UNL     1      -0.246  -0.215  -0.239  0.00  0.00    +0.016 C 
BRANCH  22  23
ATOM     23  C   UNL     1       0.186  -0.763   1.096  0.00  0.00    +0.204 C 
ATOM     24  O   UNL     1      -0.617  -1.325   1.810  0.00  0.00    -0.277 OA
ATOM     25  N   UNL     1       1.466  -0.628   1.498  0.00  0.00    -0.272 N 
ATOM     26  H   UNL     1       2.108  -0.179   0.926  0.00  0.00    +0.156 HD
BRANCH  25  27
ATOM     27  C   UNL     1       1.866  -1.135   2.734  0.00  0.00    +0.123 A 
ATOM     28  C   UNL     1       1.077  -1.790   3.628  0.00  0.00    +0.065 A 
ATOM     29  C   UNL     1       1.868  -2.127   4.730  0.00  0.00    +0.136 A 
ATOM     30  N   UNL     1       3.083  -1.695   4.512  0.00  0.00    -0.178 NA
ATOM     31  N   UNL     1       3.111  -1.071   3.258  0.00  0.00    -0.248 N 
BRANCH  31  32
ATOM     32  C   UNL     1       4.281  -0.454   2.629  0.00  0.00    +0.103 C 
ATOM     33  C   UNL     1       4.806   0.673   3.521  0.00  0.00    +0.032 C 
ATOM     34  C   UNL     1       5.375  -1.508   2.441  0.00  0.00    +0.032 C 
ENDBRANCH  31  32
ENDBRANCH  25  27
ENDBRANCH  22  23
ENDBRANCH   1  22
TORSDOF 7
