REMARK  Name = ZINC09949542
REMARK  9 active torsions:
REMARK  status: ('A' for Active; 'I' for Inactive)
REMARK    1  A    between atoms: C_1  and  C_2
REMARK    2  A    between atoms: C_2  and  C_3
REMARK    3  A    between atoms: C_3  and  C_4
REMARK    4  A    between atoms: C_4  and  N_5
REMARK    5  A    between atoms: C_6  and  N_34
REMARK    6  A    between atoms: C_7  and  N_14
REMARK    7  A    between atoms: N_14  and  C_15
REMARK    8  A    between atoms: C_20  and  C_22
REMARK    9  A    between atoms: C_22  and  N_71
REMARK                            x       y       z     vdW  Elec       q    Type
REMARK                         _______ _______ _______ _____ _____    ______ ____
ROOT
ATOM      1  N   UNL     1      -0.009   3.568   0.146  0.00  0.00    -0.263 N 
ATOM      2  C   UNL     1       1.091   2.805  -0.022  0.00  0.00    +0.204 C 
ATOM      3  O   UNL     1       2.194   3.296   0.097  0.00  0.00    -0.277 OA
ENDROOT
BRANCH   1   6
ATOM      4  N   UNL     1      -3.275   2.899  -1.398  0.00  0.00    -0.280 N 
ATOM      5  C   UNL     1      -2.033   3.450  -1.181  0.00  0.00    +0.127 A 
ATOM      6  C   UNL     1      -1.288   3.026  -0.100  0.00  0.00    +0.140 A 
ATOM      7  C   UNL     1      -1.827   2.048   0.756  0.00  0.00    +0.277 A 
ATOM      8  O   UNL     1      -1.192   1.658   1.721  0.00  0.00    -0.266 OA
ATOM      9  N   UNL     1      -3.049   1.540   0.498  0.00  0.00    -0.273 N 
ATOM     10  H   UNL     1      -3.431   0.842   1.104  0.00  0.00    +0.173 HD
ATOM     11  C   UNL     1      -3.759   1.961  -0.563  0.00  0.00    +0.331 A 
ATOM     12  O   UNL     1      -4.858   1.486  -0.772  0.00  0.00    -0.246 OA
BRANCH   5  13
ATOM     13  N   UNL     1      -1.539   4.407  -2.034  0.00  0.00    -0.343 N 
ATOM     14  H   UNL     1      -2.034   4.648  -2.833  0.00  0.00    +0.144 HD
ATOM     15  H   UNL     1      -0.696   4.845  -1.836  0.00  0.00    +0.144 HD
ENDBRANCH   5  13
BRANCH   4  16
ATOM     16  C   UNL     1      -4.075   3.335  -2.545  0.00  0.00    +0.128 C 
BRANCH  16  17
ATOM     17  C   UNL     1      -3.753   2.456  -3.755  0.00  0.00    +0.021 C 
BRANCH  17  19
ATOM     18  C   UNL     1      -4.268   2.033  -6.163  0.00  0.00    +0.004 C 
ATOM     19  C   UNL     1      -4.589   2.912  -4.953  0.00  0.00    -0.002 C 
ENDBRANCH  17  19
ENDBRANCH  16  17
ENDBRANCH   4  16
ENDBRANCH   1   6
BRANCH   1  20
ATOM     20  C   UNL     1       0.125   4.960   0.585  0.00  0.00    +0.082 C 
ATOM     21  C   UNL     1       0.954   5.760  -0.441  0.00  0.00    +0.023 C 
ATOM     22  C   UNL     1       1.799   6.727   0.424  0.00  0.00    +0.002 C 
ATOM     23  C   UNL     1       2.165   5.857   1.652  0.00  0.00    +0.002 C 
ATOM     24  C   UNL     1       0.895   5.021   1.916  0.00  0.00    +0.023 C 
ENDBRANCH   1  20
BRANCH   2  25
ATOM     25  C   UNL     1       0.950   1.343  -0.357  0.00  0.00    +0.020 C 
BRANCH  25  35
ATOM     26  C   UNL     1       2.974   1.288  -1.684  0.00  0.00    -0.078 C 
ATOM     27  C   UNL     1       4.407   0.754  -1.728  0.00  0.00    -0.018 C 
ATOM     28  C   UNL     1       4.375  -0.776  -1.794  0.00  0.00    +0.000 C 
ATOM     29  C   UNL     1       3.608  -1.313  -0.583  0.00  0.00    -0.025 C 
ATOM     30  C   UNL     1       2.197  -0.721  -0.574  0.00  0.00    -0.065 C 
ATOM     31  C   UNL     1       1.463  -1.130  -1.853  0.00  0.00    -0.015 C 
ATOM     32  C   UNL     1       1.378  -2.655  -1.929  0.00  0.00    -0.002 C 
ATOM     33  C   UNL     1       2.790  -3.243  -1.944  0.00  0.00    +0.000 C 
ATOM     34  C   UNL     1       3.524  -2.838  -0.665  0.00  0.00    +0.002 C 
ATOM     35  N   UNL     1       2.298   0.751  -0.484  0.00  0.00    +0.387 N 
ATOM     36  H   UNL     1       2.849   0.997   0.347  0.00  0.00    -0.081 HD
ENDBRANCH  25  35
ENDBRANCH   2  25
TORSDOF 8
