REMARK  Name = ZINC39584724
REMARK  5 active torsions:
REMARK  status: ('A' for Active; 'I' for Inactive)
REMARK    1  A    between atoms: C_4  and  C_25
REMARK    2  A    between atoms: C_5  and  C_7
REMARK    3  A    between atoms: N_8  and  N_9
REMARK    4  A    between atoms: C_10  and  C_12
REMARK    5  A    between atoms: C_15  and  C_18
REMARK                            x       y       z     vdW  Elec       q    Type
REMARK                         _______ _______ _______ _____ _____    ______ ____
ROOT
ATOM      1  N   UNL     1       1.878  -4.285   0.178  0.00  0.00    -0.205 N 
ATOM      2  C   UNL     1       2.978  -5.057   0.284  0.00  0.00    +0.263 C 
ATOM      3  O   UNL     1       4.074  -4.543   0.357  0.00  0.00    -0.271 OA
ATOM      4  H   UNL     1       1.002  -4.695   0.119  0.00  0.00    +0.177 HD
ENDROOT
BRANCH   2   5
ATOM      5  C   UNL     1       2.845  -6.558   0.312  0.00  0.00    +0.240 C 
ATOM      6  C   UNL     1       2.499  -7.039   1.710  0.00  0.00    +0.041 C 
ATOM      7  C   UNL     1       3.540  -7.824   2.048  0.00  0.00    +0.092 C 
ATOM      8  N   UNL     1       4.449  -7.867   1.039  0.00  0.00    -0.153 NA
ATOM      9  N   UNL     1       4.143  -7.199   0.044  0.00  0.00    -0.170 NA
BRANCH   7  10
ATOM     10  C   UNL     1       3.676  -8.540   3.341  0.00  0.00    +0.002 A 
ATOM     11  C   UNL     1       2.679  -8.430   4.309  0.00  0.00    +0.011 A 
ATOM     12  C   UNL     1       2.811  -9.098   5.509  0.00  0.00    +0.020 A 
ATOM     13  C   UNL     1       3.930  -9.875   5.753  0.00  0.00    +0.041 A 
ATOM     14  C   UNL     1       4.923  -9.987   4.795  0.00  0.00    +0.020 A 
ATOM     15  C   UNL     1       4.798  -9.328   3.588  0.00  0.00    +0.011 A 
ATOM     16 CL   UNL     1       4.090 -10.711   7.266  0.00  0.00    -0.084 Cl
ENDBRANCH   7  10
ENDBRANCH   2   5
BRANCH   1  18
ATOM     17  C   UNL     1       0.942  -2.146   0.049  0.00  0.00    +0.139 C 
ATOM     18  N   UNL     1       2.002  -2.889   0.151  0.00  0.00    -0.188 NA
BRANCH  17  23
ATOM     19  C   UNL     1       2.450   1.288  -0.044  0.00  0.00    +0.001 A 
ATOM     20  C   UNL     1       1.319   2.089  -0.030  0.00  0.00    +0.001 A 
ATOM     21  C   UNL     1       0.062   1.525   0.010  0.00  0.00    +0.016 A 
ATOM     22  C   UNL     1      -0.080   0.136   0.036  0.00  0.00    +0.072 A 
ATOM     23  C   UNL     1       1.072  -0.680   0.021  0.00  0.00    +0.009 A 
ATOM     24  C   UNL     1       2.334  -0.086  -0.019  0.00  0.00    +0.010 A 
BRANCH  22  25
ATOM     25  C   UNL     1      -1.419  -0.472   0.079  0.00  0.00    +0.387 C 
ATOM     26  O   UNL     1      -2.409   0.235   0.209  0.00  0.00    -0.241 OA
ATOM     27  O   UNL     1      -1.543  -1.686  -0.016  0.00  0.00    -0.241 OA
ENDBRANCH  22  25
ENDBRANCH  17  23
ENDBRANCH   1  18
TORSDOF 5
