REMARK  Name = ZINC35566217
REMARK  7 active torsions:
REMARK  status: ('A' for Active; 'I' for Inactive)
REMARK    1  A    between atoms: C_1  and  C_2
REMARK    2  A    between atoms: C_3  and  C_8
REMARK    3  A    between atoms: C_5  and  C_7
REMARK    4  A    between atoms: C_8  and  C_10
REMARK    5  A    between atoms: C_15  and  C_17
REMARK    6  A    between atoms: C_22  and  N_23
REMARK    7  A    between atoms: C_29  and  C_31
REMARK                            x       y       z     vdW  Elec       q    Type
REMARK                         _______ _______ _______ _____ _____    ______ ____
ROOT
ATOM      1  C   UNL     1      -0.283  -1.387  -3.056  0.00  0.00    +0.077 C 
ATOM      2  C   UNL     1      -0.275  -0.782  -4.267  0.00  0.00    +0.250 C 
ATOM      3  C   UNL     1      -0.146  -1.807  -5.321  0.00  0.00    +0.293 C 
ATOM      4  O   UNL     1      -0.108  -1.579  -6.514  0.00  0.00    -0.266 OA
ATOM      5  N   UNL     1      -0.076  -3.031  -4.766  0.00  0.00    -0.230 N 
ATOM      6  C   UNL     1      -0.149  -2.871  -3.309  0.00  0.00    +0.154 C 
ATOM      7  C   UNL     1       0.050  -4.233  -5.451  0.00  0.00    +0.191 A 
ATOM      8  N   UNL     1       0.028  -5.479  -4.998  0.00  0.00    -0.125 NA
ATOM      9  N   UNL     1       0.159  -6.469  -5.769  0.00  0.00    -0.145 NA
ATOM     10  C   UNL     1       0.325  -6.329  -7.069  0.00  0.00    +0.101 A 
ATOM     11  S   UNL     1       0.281  -4.544  -7.199  0.00  0.00    -0.035 S 
ATOM     12  C   UNL     1       0.498  -7.374  -8.142  0.00  0.00    +0.075 C 
ATOM     13  O   UNL     1      -0.370   0.551  -4.478  0.00  0.00    -0.282 OA
ENDROOT
BRANCH   6  14
ATOM     14  C   UNL     1      -1.353  -3.600  -2.771  0.00  0.00    +0.008 A 
ATOM     15  C   UNL     1      -2.561  -2.940  -2.645  0.00  0.00    +0.008 A 
ATOM     16  C   UNL     1      -3.665  -3.609  -2.150  0.00  0.00    +0.000 A 
ATOM     17  C   UNL     1      -3.561  -4.937  -1.782  0.00  0.00    +0.002 A 
ATOM     18  C   UNL     1      -2.353  -5.597  -1.909  0.00  0.00    +0.033 A 
ATOM     19  C   UNL     1      -1.250  -4.929  -2.408  0.00  0.00    +0.131 A 
BRANCH  19  20
ATOM     20  N   UNL     1       0.042  -5.637  -2.548  0.00  0.00    +0.057 N 
ATOM     21  O   UNL     1       0.108  -6.824  -2.328  0.00  0.00    -0.126 OA
ATOM     22  O   UNL     1       1.032  -5.029  -2.883  0.00  0.00    -0.126 OA
ENDBRANCH  19  20
ENDBRANCH   6  14
BRANCH   1  23
ATOM     23  C   UNL     1      -0.395  -0.729  -1.750  0.00  0.00    +0.203 C 
ATOM     24  O   UNL     1      -0.613   0.469  -1.688  0.00  0.00    -0.286 OA
BRANCH  23  27
ATOM     25  C   UNL     1      -0.424   0.355   1.184  0.00  0.00    +0.067 C 
ATOM     26  C   UNL     1      -0.249  -1.093   0.807  0.00  0.00    +0.057 A 
ATOM     27  C   UNL     1      -0.245  -1.512  -0.519  0.00  0.00    +0.082 A 
ATOM     28  S   UNL     1      -0.006  -3.268  -0.304  0.00  0.00    -0.069 S 
ATOM     29  C   UNL     1       0.061  -3.291   1.377  0.00  0.00    +0.076 A 
ATOM     30  N   UNL     1      -0.086  -2.028   1.709  0.00  0.00    -0.249 NA
ATOM     31  C   UNL     1       0.252  -4.477   2.286  0.00  0.00    +0.073 C 
ENDBRANCH  23  27
ENDBRANCH   1  23
TORSDOF 4
