REMARK  Name = ZINC38633069
REMARK  5 active torsions:
REMARK  status: ('A' for Active; 'I' for Inactive)
REMARK    1  A    between atoms: N_9  and  C_11
REMARK    2  A    between atoms: C_11  and  C_13
REMARK    3  A    between atoms: C_11  and  C_26
REMARK    4  A    between atoms: C_13  and  N_14
REMARK    5  A    between atoms: N_17  and  C_18
REMARK                            x       y       z     vdW  Elec       q    Type
REMARK                         _______ _______ _______ _____ _____    ______ ____
ROOT
ATOM      1  C   UNL     1       5.263  -3.666   0.549  0.00  0.00    +0.141 C 
ENDROOT
BRANCH   1  10
ATOM      2  C   UNL     1       1.855   1.410  -1.435  0.00  0.00    +0.000 A 
ATOM      3  C   UNL     1       3.146   1.820  -1.159  0.00  0.00    +0.000 A 
ATOM      4  C   UNL     1       4.094   0.894  -0.772  0.00  0.00    +0.005 A 
ATOM      5  C   UNL     1       3.759  -0.447  -0.658  0.00  0.00    -0.030 A 
ATOM      6  C   UNL     1       2.470  -0.855  -0.930  0.00  0.00    -0.042 A 
ATOM      7  C   UNL     1       1.520   0.075  -1.321  0.00  0.00    +0.004 A 
ATOM      8  C   UNL     1       2.056  -2.299  -0.809  0.00  0.00    +0.051 C 
ATOM      9  C   UNL     1       3.293  -3.197  -0.782  0.00  0.00    +0.090 C 
ATOM     10  N   UNL     1       4.228  -2.675   0.227  0.00  0.00    -0.287 NA
ATOM     11  C   UNL     1       4.829  -1.421  -0.239  0.00  0.00    +0.120 C 
ENDBRANCH   1  10
BRANCH   1  12
ATOM     12  C   UNL     1       5.980  -4.072  -0.713  0.00  0.00    +0.123 A 
ATOM     13  C   UNL     1       6.258  -5.333  -1.088  0.00  0.00    +0.046 A 
ATOM     14  C   UNL     1       6.934  -5.252  -2.327  0.00  0.00    +0.041 A 
ATOM     15  C   UNL     1       7.030  -3.946  -2.634  0.00  0.00    +0.195 A 
ATOM     16  O   UNL     1       6.445  -3.236  -1.655  0.00  0.00    -0.466 OA
ENDBRANCH   1  12
BRANCH   1  17
ATOM     17  C   UNL     1       6.265  -3.057   1.532  0.00  0.00    +0.132 C 
BRANCH  17  18
ATOM     18  N   UNL     1       5.551  -2.554   2.708  0.00  0.00    -0.297 N 
ATOM     19  C   UNL     1       6.235  -1.971   3.713  0.00  0.00    +0.304 C 
ATOM     20  O   UNL     1       7.444  -1.862   3.643  0.00  0.00    -0.253 OA
ATOM     21  N   UNL     1       5.578  -1.508   4.795  0.00  0.00    -0.265 N 
ATOM     22  H   UNL     1       4.587  -2.640   2.764  0.00  0.00    +0.150 HD
ATOM     23  H   UNL     1       4.620  -1.637   4.873  0.00  0.00    +0.157 HD
BRANCH  21  24
ATOM     24  C   UNL     1       6.280  -0.840   5.808  0.00  0.00    +0.106 A 
ATOM     25  C   UNL     1       5.893  -0.984   7.135  0.00  0.00    +0.147 A 
ATOM     26  C   UNL     1       6.589  -0.323   8.132  0.00  0.00    +0.040 A 
ATOM     27  C   UNL     1       7.667   0.480   7.810  0.00  0.00    +0.006 A 
ATOM     28  C   UNL     1       8.055   0.625   6.491  0.00  0.00    +0.040 A 
ATOM     29  C   UNL     1       7.368  -0.036   5.489  0.00  0.00    +0.147 A 
ATOM     30  F   UNL     1       7.752   0.102   4.201  0.00  0.00    -0.203 F 
ATOM     31  F   UNL     1       4.839  -1.767   7.451  0.00  0.00    -0.203 F 
ENDBRANCH  21  24
ENDBRANCH  17  18
ENDBRANCH   1  17
TORSDOF 5
