REMARK  Name = ZINC12680595
REMARK  4 active torsions:
REMARK  status: ('A' for Active; 'I' for Inactive)
REMARK    1  A    between atoms: C_1  and  C_2
REMARK    2  A    between atoms: N_16  and  N_17
REMARK    3  A    between atoms: C_18  and  C_20
REMARK    4  A    between atoms: C_20  and  N_21
REMARK                            x       y       z     vdW  Elec       q    Type
REMARK                         _______ _______ _______ _____ _____    ______ ____
ROOT
ATOM      1  C   UNL     1       0.465   5.687   0.020  0.00  0.00    +0.088 C 
ATOM      2  C   UNL     1       0.293   4.190   0.017  0.00  0.00    +0.129 A 
ATOM      3  N   UNL     1       1.350   3.422   0.004  0.00  0.00    -0.225 NA
ATOM      4  C   UNL     1       1.232   2.097   0.002  0.00  0.00    +0.116 A 
ATOM      5  C   UNL     1      -0.018   1.462   0.010  0.00  0.00    +0.077 A 
ATOM      6  C   UNL     1       0.002  -0.004   0.002  0.00  0.00    -0.023 A 
ATOM      7  C   UNL     1       1.216  -0.594  -0.003  0.00  0.00    -0.004 A 
ATOM      8  S   UNL     1       2.380   0.745  -0.012  0.00  0.00    -0.073 S 
ATOM      9  C   UNL     1       1.525  -2.058   0.004  0.00  0.00    +0.043 C 
ATOM     10  C   UNL     1       0.694  -2.756  -1.081  0.00  0.00    +0.005 C 
ATOM     11  C   UNL     1      -0.634  -3.186  -0.468  0.00  0.00    +0.001 C 
ATOM     12  C   UNL     1      -1.066  -2.183   0.601  0.00  0.00    +0.005 C 
ATOM     13  C   UNL     1      -1.294  -0.809  -0.017  0.00  0.00    +0.037 C 
ATOM     14  C   UNL     1      -1.157   2.331   0.020  0.00  0.00    +0.280 A 
ATOM     15  O   UNL     1      -2.287   1.873   0.024  0.00  0.00    -0.265 OA
ATOM     16  N   UNL     1      -0.959   3.662   0.028  0.00  0.00    -0.210 N 
ENDROOT
BRANCH  16  17
ATOM     17  N   UNL     1      -2.065   4.522   0.043  0.00  0.00    -0.217 N 
ATOM     18  C   UNL     1      -2.794   4.700  -1.077  0.00  0.00    +0.251 C 
ATOM     19  O   UNL     1      -2.493   4.117  -2.096  0.00  0.00    -0.272 OA
ATOM     20  H   UNL     1      -2.306   4.988   0.858  0.00  0.00    +0.176 HD
BRANCH  18  21
ATOM     21  C   UNL     1      -3.985   5.625  -1.061  0.00  0.00    +0.223 C 
BRANCH  21  22
ATOM     22  N   UNL     1      -4.603   5.646  -2.389  0.00  0.00    -0.290 N 
ATOM     23  C   UNL     1      -4.196   6.562  -3.306  0.00  0.00    +0.203 A 
ATOM     24  N   UNL     1      -4.691   6.641  -4.504  0.00  0.00    -0.237 NA
ATOM     25  C   UNL     1      -5.675   5.807  -4.923  0.00  0.00    +0.078 A 
ATOM     26  C   UNL     1      -6.212   5.897  -6.209  0.00  0.00    +0.028 A 
ATOM     27  C   UNL     1      -7.210   5.030  -6.593  0.00  0.00    +0.002 A 
ATOM     28  C   UNL     1      -7.691   4.065  -5.717  0.00  0.00    +0.001 A 
ATOM     29  C   UNL     1      -7.177   3.958  -4.443  0.00  0.00    +0.015 A 
ATOM     30  C   UNL     1      -6.166   4.826  -4.035  0.00  0.00    +0.065 A 
ATOM     31  C   UNL     1      -5.580   4.758  -2.688  0.00  0.00    +0.262 A 
ATOM     32  O   UNL     1      -5.958   3.936  -1.874  0.00  0.00    -0.267 OA
ENDBRANCH  21  22
ENDBRANCH  18  21
ENDBRANCH  16  17
TORSDOF 3
