REMARK  Name = ZINC63698945
REMARK  4 active torsions:
REMARK  status: ('A' for Active; 'I' for Inactive)
REMARK    1  A    between atoms: C_1  and  C_2
REMARK    2  A    between atoms: C_4  and  C_23
REMARK    3  A    between atoms: N_12  and  C_14
REMARK    4  A    between atoms: C_26  and  C_29
REMARK                            x       y       z     vdW  Elec       q    Type
REMARK                         _______ _______ _______ _____ _____    ______ ____
ROOT
ATOM      1  C   UNL     1       0.236   1.464  -0.869  0.00  0.00    +0.062 C 
ATOM      2  C   UNL     1       0.070  -0.031  -0.785  0.00  0.00    +0.019 C 
ATOM      3  C   UNL     1      -1.017  -0.628  -0.388  0.00  0.00    -0.008 C 
ATOM      4  C   UNL     1      -2.392  -0.088  -0.083  0.00  0.00    +0.058 C 
ATOM      5  C   UNL     1      -3.345  -0.750  -1.089  0.00  0.00    +0.108 C 
ATOM      6  C   UNL     1      -2.976  -2.174  -1.351  0.00  0.00    +0.215 C 
ATOM      7  O   UNL     1      -3.847  -2.876  -1.821  0.00  0.00    -0.276 OA
ATOM      8  N   UNL     1      -1.801  -2.764  -1.129  0.00  0.00    -0.295 N 
ATOM      9  C   UNL     1      -0.732  -2.122  -0.375  0.00  0.00    +0.194 C 
ATOM     10  N   UNL     1       0.584  -2.231  -1.012  0.00  0.00    -0.164 NA
ATOM     11  N   UNL     1       1.052  -0.948  -1.127  0.00  0.00    -0.277 N 
ATOM     12  H   UNL     1      -1.652  -3.655  -1.484  0.00  0.00    +0.151 HD
ATOM     13  H   UNL     1       1.950  -0.713  -1.407  0.00  0.00    +0.166 HD
ENDROOT
BRANCH  10  14
ATOM     14  C   UNL     1       0.479  -2.868  -2.332  0.00  0.00    +0.270 C 
ATOM     15  N   UNL     1       1.811  -2.993  -2.939  0.00  0.00    -0.350 N 
ATOM     16  C   UNL     1       1.799  -2.313  -4.049  0.00  0.00    +0.061 A 
ATOM     17  C   UNL     1       2.817  -2.064  -5.079  0.00  0.00    +0.027 A 
ATOM     18  C   UNL     1       2.510  -1.301  -6.147  0.00  0.00    +0.002 A 
ATOM     19  C   UNL     1       1.242  -0.722  -6.325  0.00  0.00    +0.002 A 
ATOM     20  C   UNL     1       0.237  -0.886  -5.441  0.00  0.00    +0.027 A 
ATOM     21  C   UNL     1       0.456  -1.700  -4.238  0.00  0.00    +0.061 A 
ATOM     22  N   UNL     1      -0.311  -2.024  -3.237  0.00  0.00    -0.350 N 
ATOM     23  H   UNL     1       2.561  -3.490  -2.578  0.00  0.00    +0.163 HD
ATOM     24  H   UNL     1      -1.235  -1.758  -3.113  0.00  0.00    +0.163 HD
ENDBRANCH  10  14
BRANCH   4  25
ATOM     25  C   UNL     1      -2.410   1.409  -0.256  0.00  0.00    -0.040 A 
ATOM     26  C   UNL     1      -2.505   1.957  -1.522  0.00  0.00    +0.005 A 
ATOM     27  C   UNL     1      -2.522   3.330  -1.681  0.00  0.00    +0.012 A 
ATOM     28  C   UNL     1      -2.444   4.155  -0.575  0.00  0.00    +0.055 A 
ATOM     29  C   UNL     1      -2.351   3.607   0.691  0.00  0.00    +0.012 A 
ATOM     30  C   UNL     1      -2.338   2.234   0.851  0.00  0.00    +0.005 A 
BRANCH  28  31
ATOM     31  C   UNL     1      -2.462   5.652  -0.748  0.00  0.00    +0.417 C 
ATOM     32  F   UNL     1      -3.783   6.111  -0.707  0.00  0.00    -0.166 F 
ATOM     33  F   UNL     1      -1.728   6.250   0.283  0.00  0.00    -0.166 F 
ATOM     34  F   UNL     1      -1.890   5.985  -1.981  0.00  0.00    -0.166 F 
ENDBRANCH  28  31
ENDBRANCH   4  25
TORSDOF 3
