REMARK  Name = ZINC16921459
REMARK  6 active torsions:
REMARK  status: ('A' for Active; 'I' for Inactive)
REMARK    1  A    between atoms: C_3  and  C_6
REMARK    2  A    between atoms: N_10  and  C_14
REMARK    3  A    between atoms: C_14  and  C_15
REMARK    4  A    between atoms: N_17  and  C_18
REMARK    5  A    between atoms: C_21  and  C_24
REMARK    6  A    between atoms: C_24  and  C_25
REMARK                            x       y       z     vdW  Elec       q    Type
REMARK                         _______ _______ _______ _____ _____    ______ ____
ROOT
ATOM      1  C   UNL     1       7.186   2.909  -0.052  0.00  0.00    +0.213 C 
ENDROOT
BRANCH   1   6
ATOM      2  C   UNL     1       2.508   1.362   0.001  0.00  0.00    +0.035 C 
ATOM      3  C   UNL     1       3.529   2.266  -0.011  0.00  0.00    +0.080 C 
ATOM      4  C   UNL     1       4.939   2.043  -0.026  0.00  0.00    +0.261 C 
ATOM      5  O   UNL     1       5.396   0.914  -0.030  0.00  0.00    -0.269 OA
ATOM      6  N   UNL     1       5.734   3.099  -0.037  0.00  0.00    -0.219 N 
ATOM      7  C   UNL     1       5.227   4.352  -0.033  0.00  0.00    +0.286 C 
ATOM      8  O   UNL     1       5.819   5.414  -0.040  0.00  0.00    -0.262 OA
ATOM      9  S   UNL     1       3.466   4.052  -0.021  0.00  0.00    -0.026 S 
BRANCH   2  12
ATOM     10  C   UNL     1      -1.188   1.762   0.034  0.00  0.00    +0.008 A 
ATOM     11  C   UNL     1      -0.006   1.064   0.028  0.00  0.00    +0.015 A 
ATOM     12  C   UNL     1       1.167   1.810   0.015  0.00  0.00    +0.013 A 
ATOM     13  S   UNL     1       0.539   3.480   0.019  0.00  0.00    -0.097 S 
ATOM     14  C   UNL     1      -1.157   3.121   0.037  0.00  0.00    +0.046 A 
ENDBRANCH   2  12
ENDBRANCH   1   6
BRANCH   1  15
ATOM     15  C   UNL     1       7.669   2.841  -1.478  0.00  0.00    +0.235 C 
ATOM     16  O   UNL     1       6.878   2.942  -2.392  0.00  0.00    -0.274 OA
ATOM     17  N   UNL     1       8.980   2.668  -1.738  0.00  0.00    -0.284 N 
ATOM     18  H   UNL     1       9.621   2.655  -1.011  0.00  0.00    +0.155 HD
BRANCH  17  19
ATOM     19  C   UNL     1       9.416   2.509  -3.058  0.00  0.00    +0.033 A 
ATOM     20  C   UNL     1      10.486   1.669  -3.341  0.00  0.00    +0.023 A 
ATOM     21  C   UNL     1      10.911   1.510  -4.646  0.00  0.00    +0.006 A 
ATOM     22  C   UNL     1      10.279   2.193  -5.668  0.00  0.00    -0.037 A 
ATOM     23  C   UNL     1       9.217   3.034  -5.389  0.00  0.00    +0.006 A 
ATOM     24  C   UNL     1       8.784   3.194  -4.088  0.00  0.00    +0.023 A 
BRANCH  22  25
ATOM     25  C   UNL     1      10.749   2.022  -7.090  0.00  0.00    +0.160 C 
BRANCH  25  26
ATOM     26  C   UNL     1      11.809   3.049  -7.396  0.00  0.00    +0.360 C 
ATOM     27  O   UNL     1      12.147   3.839  -6.547  0.00  0.00    -0.246 OA
ATOM     28  O   UNL     1      12.376   3.086  -8.612  0.00  0.00    -0.246 OA
ENDBRANCH  25  26
ENDBRANCH  22  25
ENDBRANCH  17  19
ENDBRANCH   1  15
TORSDOF 6
