REMARK  Name = ZINC08942797
REMARK  8 active torsions:
REMARK  status: ('A' for Active; 'I' for Inactive)
REMARK    1  A    between atoms: C_1  and  C_2
REMARK    2  A    between atoms: C_5  and  N_8
REMARK    3  A    between atoms: C_9  and  C_31
REMARK    4  A    between atoms: C_11  and  C_16
REMARK    5  A    between atoms: C_16  and  O_18
REMARK    6  A    between atoms: O_18  and  C_19
REMARK    7  A    between atoms: C_19  and  C_20
REMARK    8  A    between atoms: N_25  and  C_26
REMARK                            x       y       z     vdW  Elec       q    Type
REMARK                         _______ _______ _______ _____ _____    ______ ____
ROOT
ATOM      1  N   UNL     1      -1.031  -2.743   1.409  0.00  0.00    -0.263 N 
ATOM      2  C   UNL     1      -0.815  -2.172   0.074  0.00  0.00    +0.132 C 
ATOM      3  C   UNL     1      -1.190  -0.679   0.198  0.00  0.00    +0.132 C 
ATOM      4  C   UNL     1      -2.181  -0.700   1.385  0.00  0.00    +0.113 C 
ATOM      5  C   UNL     1      -1.800  -1.939   2.165  0.00  0.00    +0.221 C 
ATOM      6  O   UNL     1      -2.138  -2.174   3.305  0.00  0.00    -0.275 OA
ENDROOT
BRANCH   1  11
ATOM      7  C   UNL     1       1.104  -7.700   3.156  0.00  0.00    +0.044 C 
ATOM      8  C   UNL     1       0.536  -6.383   2.692  0.00  0.00    -0.050 A 
ATOM      9  C   UNL     1       0.679  -5.997   1.372  0.00  0.00    +0.005 A 
ATOM     10  C   UNL     1       0.160  -4.791   0.943  0.00  0.00    +0.024 A 
ATOM     11  C   UNL     1      -0.505  -3.965   1.840  0.00  0.00    +0.037 A 
ATOM     12  C   UNL     1      -0.641  -4.353   3.167  0.00  0.00    +0.024 A 
ATOM     13  C   UNL     1      -0.125  -5.562   3.588  0.00  0.00    +0.005 A 
ENDBRANCH   1  11
BRANCH   2  14
ATOM     14  C   UNL     1       0.630  -2.316  -0.327  0.00  0.00    +0.011 A 
ATOM     15  C   UNL     1       1.157  -2.538  -1.555  0.00  0.00    +0.013 A 
ATOM     16  C   UNL     1       2.530  -2.632  -1.689  0.00  0.00    +0.008 A 
ATOM     17  C   UNL     1       3.308  -2.509  -0.586  0.00  0.00    +0.045 A 
ATOM     18  S   UNL     1       2.093  -2.245   0.695  0.00  0.00    -0.100 S 
ENDBRANCH   2  14
BRANCH   3  19
ATOM     19  C   UNL     1       0.022   0.156   0.522  0.00  0.00    +0.313 C 
ATOM     20  O   UNL     1       0.375   0.288   1.670  0.00  0.00    -0.250 OA
BRANCH  19  21
ATOM     21  O   UNL     1       0.709   0.753  -0.464  0.00  0.00    -0.455 OA
BRANCH  21  22
ATOM     22  C   UNL     1       1.866   1.542  -0.078  0.00  0.00    +0.328 C 
BRANCH  22  23
ATOM     23  C   UNL     1       2.506   2.130  -1.309  0.00  0.00    +0.258 C 
ATOM     24  O   UNL     1       2.034   1.907  -2.403  0.00  0.00    -0.272 OA
ATOM     25  N   UNL     1       3.603   2.905  -1.193  0.00  0.00    -0.237 N 
ATOM     26  C   UNL     1       4.175   3.431  -2.294  0.00  0.00    +0.306 C 
ATOM     27  O   UNL     1       3.702   3.207  -3.391  0.00  0.00    -0.252 OA
ATOM     28  N   UNL     1       5.272   4.205  -2.179  0.00  0.00    -0.296 N 
ATOM     29  H   UNL     1       3.980   3.083  -0.318  0.00  0.00    +0.159 HD
ATOM     30  H   UNL     1       5.650   4.384  -1.303  0.00  0.00    +0.151 HD
BRANCH  28  31
ATOM     31  C   UNL     1       5.894   4.778  -3.375  0.00  0.00    +0.074 C 
ATOM     32  C   UNL     1       6.908   3.780  -3.972  0.00  0.00    +0.022 C 
ATOM     33  C   UNL     1       8.068   4.675  -4.478  0.00  0.00    +0.002 C 
ATOM     34  C   UNL     1       8.157   5.769  -3.386  0.00  0.00    +0.002 C 
ATOM     35  C   UNL     1       6.688   6.042  -3.003  0.00  0.00    +0.022 C 
ENDBRANCH  28  31
ENDBRANCH  22  23
ENDBRANCH  21  22
ENDBRANCH  19  21
ENDBRANCH   3  19
TORSDOF 7
