REMARK  Name = ZINC35442292
REMARK  9 active torsions:
REMARK  status: ('A' for Active; 'I' for Inactive)
REMARK    1  A    between atoms: C_4  and  N_7
REMARK    2  A    between atoms: C_8  and  C_10
REMARK    3  A    between atoms: C_10  and  C_11
REMARK    4  A    between atoms: C_11  and  C_12
REMARK    5  A    between atoms: C_22  and  N_25
REMARK    6  A    between atoms: N_25  and  C_26
REMARK    7  A    between atoms: C_26  and  C_27
REMARK    8  A    between atoms: C_30  and  O_33
REMARK    9  A    between atoms: O_33  and  C_34
REMARK                            x       y       z     vdW  Elec       q    Type
REMARK                         _______ _______ _______ _____ _____    ______ ____
ROOT
ATOM      1  C   UNL     1       6.267  -4.521  -0.293  0.00  0.00    -0.050 C 
ATOM      2  C   UNL     1       6.245  -6.057  -0.292  0.00  0.00    +0.089 C 
ATOM      3  N   UNL     1       7.540  -6.624   0.063  0.00  0.00    -0.318 N 
ATOM      4  C   UNL     1       8.581  -5.908   0.533  0.00  0.00    +0.200 C 
ATOM      5  O   UNL     1       9.593  -6.464   0.906  0.00  0.00    -0.278 OA
ATOM      6  C   UNL     1       8.469  -4.420   0.587  0.00  0.00    +0.021 C 
ATOM      7  N   UNL     1       7.043  -4.096   0.859  0.00  0.00    +0.391 N 
ATOM      8  C   UNL     1       7.034  -2.676   1.200  0.00  0.00    -0.059 C 
ATOM      9  C   UNL     1       8.400  -2.404   1.882  0.00  0.00    +0.036 C 
ATOM     10  C   UNL     1       9.196  -3.746   1.759  0.00  0.00    +0.010 C 
ATOM     11  H   UNL     1       7.661  -7.580  -0.046  0.00  0.00    +0.149 HD
ATOM     12  H   UNL     1       6.741  -4.616   1.669  0.00  0.00    -0.080 HD
ENDROOT
BRANCH   9  13
ATOM     13  N   UNL     1       8.203  -2.042   3.293  0.00  0.00    -0.311 NA
ATOM     14  H   UNL     1       7.325  -1.563   3.424  0.00  0.00    +0.122 HD
BRANCH  13  15
ATOM     15  C   UNL     1       9.325  -1.234   3.790  0.00  0.00    +0.116 C 
BRANCH  15  16
ATOM     16  C   UNL     1       9.088  -0.883   5.237  0.00  0.00    -0.033 A 
ATOM     17  C   UNL     1       8.404   0.273   5.564  0.00  0.00    +0.008 A 
ATOM     18  C   UNL     1       8.186   0.597   6.889  0.00  0.00    +0.046 A 
ATOM     19  C   UNL     1       8.655  -0.240   7.892  0.00  0.00    +0.130 A 
ATOM     20  C   UNL     1       9.341  -1.399   7.561  0.00  0.00    +0.046 A 
ATOM     21  C   UNL     1       9.551  -1.721   6.234  0.00  0.00    +0.008 A 
BRANCH  19  22
ATOM     22  O   UNL     1       8.442   0.077   9.196  0.00  0.00    -0.406 OA
BRANCH  22  23
ATOM     23  C   UNL     1       8.953  -0.830  10.175  0.00  0.00    +0.575 C 
ATOM     24  F   UNL     1      10.341  -0.935  10.035  0.00  0.00    -0.133 F 
ATOM     25  F   UNL     1       8.648  -0.355  11.455  0.00  0.00    -0.133 F 
ATOM     26  F   UNL     1       8.369  -2.089   9.994  0.00  0.00    -0.133 F 
ENDBRANCH  22  23
ENDBRANCH  19  22
ENDBRANCH  15  16
ENDBRANCH  13  15
ENDBRANCH   9  13
BRANCH   1  27
ATOM     27  C   UNL     1       4.839  -3.981  -0.186  0.00  0.00    -0.005 C 
BRANCH  27  28
ATOM     28  C   UNL     1       4.070  -4.319  -1.464  0.00  0.00    +0.094 C 
BRANCH  28  30
ATOM     29  N   UNL     1       1.843  -3.850  -2.434  0.00  0.00    -0.285 N 
ATOM     30  C   UNL     1       2.703  -3.687  -1.409  0.00  0.00    +0.217 C 
ATOM     31  O   UNL     1       2.376  -3.031  -0.443  0.00  0.00    -0.275 OA
ATOM     32  H   UNL     1       2.073  -4.436  -3.172  0.00  0.00    +0.155 HD
BRANCH  29  36
ATOM     33  C   UNL     1      -1.804  -1.837  -2.436  0.00  0.00    +0.000 A 
ATOM     34  C   UNL     1      -0.691  -1.246  -1.868  0.00  0.00    +0.002 A 
ATOM     35  C   UNL     1       0.520  -1.911  -1.866  0.00  0.00    +0.023 A 
ATOM     36  C   UNL     1       0.618  -3.174  -2.435  0.00  0.00    +0.033 A 
ATOM     37  C   UNL     1      -0.503  -3.765  -3.004  0.00  0.00    +0.023 A 
ATOM     38  C   UNL     1      -1.710  -3.094  -3.003  0.00  0.00    +0.002 A 
ENDBRANCH  29  36
ENDBRANCH  28  30
ENDBRANCH  27  28
ENDBRANCH   1  27
TORSDOF 9
