REMARK  Name = ZINC36740064
REMARK  5 active torsions:
REMARK  status: ('A' for Active; 'I' for Inactive)
REMARK    1  A    between atoms: C_3  and  O_31
REMARK    2  A    between atoms: C_6  and  C_7
REMARK    3  A    between atoms: C_7  and  N_8
REMARK    4  A    between atoms: C_26  and  C_29
REMARK    5  A    between atoms: C_29  and  O_30
REMARK                            x       y       z     vdW  Elec       q    Type
REMARK                         _______ _______ _______ _____ _____    ______ ____
ROOT
ATOM      1  N   UNL     1      -1.728  -1.017  -1.371  0.00  0.00    +0.389 N 
ATOM      2  C   UNL     1      -3.008  -1.772  -1.394  0.00  0.00    -0.062 C 
ATOM      3  C   UNL     1      -3.064  -2.416  -2.791  0.00  0.00    -0.016 C 
ATOM      4  C   UNL     1      -1.600  -2.454  -3.278  0.00  0.00    -0.012 C 
ATOM      5  C   UNL     1      -0.781  -1.932  -2.067  0.00  0.00    -0.034 C 
ATOM      6  C   UNL     1      -0.582  -3.125  -1.157  0.00  0.00    -0.021 A 
ATOM      7  C   UNL     1       0.630  -3.789  -1.131  0.00  0.00    +0.118 A 
ATOM      8  N   UNL     1       0.767  -4.835  -0.329  0.00  0.00    -0.223 NA
ATOM      9  C   UNL     1      -0.240  -5.237   0.431  0.00  0.00    +0.218 A 
ATOM     10  N   UNL     1      -1.411  -4.616   0.428  0.00  0.00    -0.219 NA
ATOM     11  C   UNL     1      -1.612  -3.559  -0.347  0.00  0.00    +0.046 A 
ATOM     12  C   UNL     1      -2.946  -2.843  -0.304  0.00  0.00    +0.040 C 
ATOM     13  N   UNL     1      -0.065  -6.336   1.253  0.00  0.00    -0.299 N 
ATOM     14  C   UNL     1      -1.161  -6.816   2.106  0.00  0.00    +0.108 C 
ATOM     15  C   UNL     1      -1.386  -8.305   1.830  0.00  0.00    +0.019 C 
ATOM     16  C   UNL     1      -0.068  -9.059   2.018  0.00  0.00    +0.009 C 
ATOM     17  C   UNL     1       0.969  -8.535   1.022  0.00  0.00    +0.032 C 
ATOM     18  C   UNL     1       1.218  -7.051   1.284  0.00  0.00    +0.113 C 
ATOM     19  H   UNL     1      -1.817  -0.147  -1.874  0.00  0.00    -0.080 HD
ENDROOT
BRANCH   1  20
ATOM     20  C   UNL     1      -1.293  -0.774   0.011  0.00  0.00    -0.042 C 
BRANCH  20  26
ATOM     21  C   UNL     1      -0.017   1.378   0.010  0.00  0.00    +0.005 A 
ATOM     22  C   UNL     1       1.169   2.087   0.002  0.00  0.00    +0.045 A 
ATOM     23  C   UNL     1       2.380   1.409  -0.013  0.00  0.00    +0.117 A 
ATOM     24  C   UNL     1       2.396   0.022  -0.021  0.00  0.00    +0.045 A 
ATOM     25  C   UNL     1       1.207  -0.681  -0.013  0.00  0.00    +0.005 A 
ATOM     26  C   UNL     1       0.002  -0.004   0.002  0.00  0.00    -0.064 A 
BRANCH  23  27
ATOM     27  O   UNL     1       3.548   2.104  -0.021  0.00  0.00    -0.507 OA
ATOM     28  H   UNL     1       3.895   2.300   0.860  0.00  0.00    +0.292 HD
ENDBRANCH  23  27
ENDBRANCH  20  26
ENDBRANCH   1  20
BRANCH  17  29
ATOM     29  C   UNL     1       2.276  -9.312   1.188  0.00  0.00    +0.160 C 
BRANCH  29  30
ATOM     30  O   UNL     1       3.204  -8.903   0.182  0.00  0.00    -0.395 OA
ATOM     31  H   UNL     1       4.058  -9.355   0.226  0.00  0.00    +0.209 HD
ENDBRANCH  29  30
ENDBRANCH  17  29
TORSDOF 5
