REMARK  Name = ZINC08995689
REMARK  5 active torsions:
REMARK  status: ('A' for Active; 'I' for Inactive)
REMARK    1  A    between atoms: C_1  and  C_2
REMARK    2  A    between atoms: C_2  and  O_3
REMARK    3  A    between atoms: O_3  and  C_4
REMARK    4  A    between atoms: C_6  and  C_21
REMARK    5  A    between atoms: C_19  and  C_20
REMARK                            x       y       z     vdW  Elec       q    Type
REMARK                         _______ _______ _______ _____ _____    ______ ____
ROOT
ATOM      1  C   UNL     1       0.800  -1.795  -1.322  0.00  0.00    +0.338 C 
ATOM      2  C   UNL     1       1.423  -2.310  -2.443  0.00  0.00    +0.069 C 
ATOM      3  C   UNL     1       1.653  -3.802  -2.607  0.00  0.00    +0.094 C 
ATOM      4  C   UNL     1       2.347  -4.227  -3.885  0.00  0.00    +0.038 C 
ATOM      5  C   UNL     1       2.713  -3.237  -4.790  0.00  0.00    +0.080 C 
ATOM      6  C   UNL     1       3.371  -3.901  -5.952  0.00  0.00    +0.012 A 
ATOM      7  C   UNL     1       3.923  -3.414  -7.124  0.00  0.00    +0.011 A 
ATOM      8  C   UNL     1       4.479  -4.295  -8.043  0.00  0.00    +0.001 A 
ATOM      9  C   UNL     1       4.484  -5.651  -7.793  0.00  0.00    +0.001 A 
ATOM     10  C   UNL     1       3.933  -6.150  -6.620  0.00  0.00    +0.012 A 
ATOM     11  C   UNL     1       3.377  -5.281  -5.698  0.00  0.00    +0.031 A 
ATOM     12  C   UNL     1       2.722  -5.481  -4.377  0.00  0.00    +0.193 C 
ATOM     13  O   UNL     1       2.544  -6.551  -3.822  0.00  0.00    -0.287 OA
ATOM     14  N   UNL     1       2.461  -1.953  -4.543  0.00  0.00    -0.251 NA
ATOM     15  C   UNL     1       1.862  -1.484  -3.474  0.00  0.00    +0.050 C 
ATOM     16  C   UNL     1       1.647   0.003  -3.355  0.00  0.00    +0.066 C 
ATOM     17  O   UNL     1       0.282  -2.627  -0.398  0.00  0.00    -0.245 OA
ENDROOT
BRANCH   3  18
ATOM     18  C   UNL     1       0.315  -4.494  -2.550  0.00  0.00    -0.031 A 
ATOM     19  C   UNL     1      -0.660  -4.187  -3.481  0.00  0.00    +0.008 A 
ATOM     20  C   UNL     1      -1.888  -4.819  -3.434  0.00  0.00    +0.050 A 
ATOM     21  C   UNL     1      -2.146  -5.762  -2.452  0.00  0.00    +0.166 A 
ATOM     22  C   UNL     1      -1.163  -6.071  -1.514  0.00  0.00    +0.167 A 
ATOM     23  C   UNL     1       0.068  -5.438  -1.571  0.00  0.00    +0.054 A 
ATOM     24  O   UNL     1      -1.655  -7.018  -0.663  0.00  0.00    -0.453 OA
ATOM     25  C   UNL     1      -3.084  -6.988  -0.838  0.00  0.00    +0.466 C 
ATOM     26  O   UNL     1      -3.253  -6.516  -2.188  0.00  0.00    -0.453 OA
ENDBRANCH   3  18
BRANCH   1  27
ATOM     27  O   UNL     1       0.711  -0.462  -1.154  0.00  0.00    -0.462 OA
BRANCH  27  29
ATOM     28  C   UNL     1       0.050   1.530   0.044  0.00  0.00    +0.048 C 
ATOM     29  C   UNL     1       0.053  -0.000   0.028  0.00  0.00    +0.229 C 
ENDBRANCH  27  29
ENDBRANCH   1  27
TORSDOF 3
