REMARK  Name = ZINC06740873
REMARK  4 active torsions:
REMARK  status: ('A' for Active; 'I' for Inactive)
REMARK    1  A    between atoms: C_6  and  C_19
REMARK    2  A    between atoms: C_7  and  C_10
REMARK    3  A    between atoms: C_10  and  N_46
REMARK    4  A    between atoms: C_14  and  C_17
REMARK                            x       y       z     vdW  Elec       q    Type
REMARK                         _______ _______ _______ _____ _____    ______ ____
ROOT
ATOM      1  C   UNL     1       2.316   0.117  -0.528  0.00  0.00    +0.038 A 
ATOM      2  C   UNL     1       2.232   1.515  -0.488  0.00  0.00    +0.116 A 
ATOM      3  N   UNL     1       1.078   2.106  -0.287  0.00  0.00    -0.220 NA
ATOM      4  C   UNL     1      -0.043   1.389  -0.117  0.00  0.00    +0.235 A 
ATOM      5  N   UNL     1      -1.298   1.753   0.100  0.00  0.00    -0.210 NA
ATOM      6  C   UNL     1      -2.066   0.655   0.201  0.00  0.00    +0.093 A 
ATOM      7  C   UNL     1      -1.270  -0.439   0.050  0.00  0.00    +0.036 A 
ATOM      8  N   UNL     1       0.003   0.018  -0.150  0.00  0.00    -0.289 N 
ATOM      9  C   UNL     1       1.191  -0.621  -0.357  0.00  0.00    +0.096 A 
ENDROOT
BRANCH   6  10
ATOM     10  C   UNL     1      -3.530   0.638   0.440  0.00  0.00    +0.006 A 
ATOM     11  C   UNL     1      -4.357   1.539  -0.228  0.00  0.00    +0.014 A 
ATOM     12  C   UNL     1      -5.719   1.519  -0.008  0.00  0.00    +0.050 A 
ATOM     13  C   UNL     1      -6.268   0.611   0.885  0.00  0.00    +0.166 A 
ATOM     14  C   UNL     1      -5.445  -0.289   1.560  0.00  0.00    +0.167 A 
ATOM     15  C   UNL     1      -4.080  -0.275   1.338  0.00  0.00    +0.059 A 
ATOM     16  O   UNL     1      -6.221  -1.066   2.371  0.00  0.00    -0.453 OA
ATOM     17  C   UNL     1      -7.471  -0.363   2.494  0.00  0.00    +0.466 C 
ATOM     18  O   UNL     1      -7.559   0.396   1.275  0.00  0.00    -0.453 OA
ENDBRANCH   6  10
BRANCH   7  19
ATOM     19  C   UNL     1      -1.708  -1.880   0.094  0.00  0.00    -0.022 C 
BRANCH  19  25
ATOM     20  C   UNL     1      -0.343  -2.377   2.030  0.00  0.00    -0.078 C 
ATOM     21  C   UNL     1      -0.394  -2.729   3.519  0.00  0.00    -0.018 C 
ATOM     22  C   UNL     1      -1.060  -4.097   3.692  0.00  0.00    +0.011 C 
ATOM     23  C   UNL     1      -2.460  -4.056   3.074  0.00  0.00    +0.086 C 
ATOM     24  C   UNL     1      -2.350  -3.665   1.598  0.00  0.00    -0.064 C 
ATOM     25  N   UNL     1      -1.723  -2.329   1.501  0.00  0.00    +0.384 N 
ATOM     26  H   UNL     1      -2.270  -1.663   2.059  0.00  0.00    -0.081 HD
BRANCH  23  27
ATOM     27  C   UNL     1      -3.101  -5.415   3.187  0.00  0.00    +0.357 C 
ATOM     28  O   UNL     1      -3.435  -6.011   2.190  0.00  0.00    -0.246 OA
ATOM     29  O   UNL     1      -3.300  -5.964   4.396  0.00  0.00    -0.246 OA
ENDBRANCH  23  27
ENDBRANCH  19  25
ENDBRANCH   7  19
TORSDOF 4
