REMARK  Name = ZINC16996147
REMARK  4 active torsions:
REMARK  status: ('A' for Active; 'I' for Inactive)
REMARK    1  A    between atoms: C_1  and  C_2
REMARK    2  A    between atoms: C_4  and  C_19
REMARK    3  A    between atoms: C_10  and  N_12
REMARK    4  A    between atoms: C_13  and  C_15
REMARK                            x       y       z     vdW  Elec       q    Type
REMARK                         _______ _______ _______ _____ _____    ______ ____
ROOT
ATOM      1  C   UNL     1      -0.018   1.503   0.010  0.00  0.00    +0.065 C 
ATOM      2  C   UNL     1       0.002  -0.004   0.002  0.00  0.00    +0.040 C 
ATOM      3  C   UNL     1      -1.156  -0.668   0.004  0.00  0.00    +0.025 C 
ATOM      4  C   UNL     1      -1.093  -2.184  -0.004  0.00  0.00    +0.156 C 
ATOM      5  N   UNL     1       0.249  -2.780  -0.014  0.00  0.00    -0.180 N 
ATOM      6  C   UNL     1       1.331  -1.950  -0.015  0.00  0.00    +0.210 C 
ATOM      7  N   UNL     1       1.190  -0.643  -0.013  0.00  0.00    -0.222 NA
ATOM      8  N   UNL     1       2.442  -2.754  -0.025  0.00  0.00    -0.254 N 
ATOM      9  C   UNL     1       2.021  -4.069  -0.030  0.00  0.00    +0.240 C 
ATOM     10  N   UNL     1       0.715  -4.096  -0.024  0.00  0.00    -0.140 NA
ATOM     11  H   UNL     1       3.364  -2.452  -0.028  0.00  0.00    +0.158 HD
ENDROOT
BRANCH   4  12
ATOM     12  C   UNL     1      -1.829  -2.677  -1.224  0.00  0.00    -0.021 A 
ATOM     13  C   UNL     1      -1.206  -2.667  -2.458  0.00  0.00    +0.006 A 
ATOM     14  C   UNL     1      -1.881  -3.118  -3.577  0.00  0.00    +0.000 A 
ATOM     15  C   UNL     1      -3.179  -3.580  -3.461  0.00  0.00    +0.000 A 
ATOM     16  C   UNL     1      -3.801  -3.591  -2.227  0.00  0.00    +0.000 A 
ATOM     17  C   UNL     1      -3.125  -3.144  -1.108  0.00  0.00    +0.006 A 
ENDBRANCH   4  12
BRANCH   9  18
ATOM     18  N   UNL     1       2.836  -5.164  -0.039  0.00  0.00    -0.174 NA
ATOM     19  C   UNL     1       2.321  -6.359  -0.043  0.00  0.00    +0.300 C 
ATOM     20  O   UNL     1       0.983  -6.516  -0.038  0.00  0.00    -0.266 OA
BRANCH  19  21
ATOM     21  C   UNL     1       3.222  -7.567  -0.054  0.00  0.00    +0.271 C 
ATOM     22 CL   UNL     1       4.944  -7.033  -0.059  0.00  0.00    -0.073 Cl
ATOM     23 CL   UNL     1       2.906  -8.565   1.414  0.00  0.00    -0.073 Cl
ATOM     24 CL   UNL     1       2.893  -8.549  -1.530  0.00  0.00    -0.073 Cl
ENDBRANCH  19  21
ENDBRANCH   9  18
TORSDOF 3
