REMARK  Name = ZINC09082248
REMARK  7 active torsions:
REMARK  status: ('A' for Active; 'I' for Inactive)
REMARK    1  A    between atoms: C_3  and  C_6
REMARK    2  A    between atoms: C_6  and  C_8
REMARK    3  A    between atoms: C_6  and  S_24
REMARK    4  A    between atoms: C_8  and  N_9
REMARK    5  A    between atoms: N_9  and  S_10
REMARK    6  A    between atoms: S_10  and  C_13
REMARK    7  A    between atoms: S_24  and  C_27
REMARK                            x       y       z     vdW  Elec       q    Type
REMARK                         _______ _______ _______ _____ _____    ______ ____
ROOT
ATOM      1  C   UNL     1       4.316  -1.061  -1.809  0.00  0.00    +0.217 C 
ENDROOT
BRANCH   1   4
ATOM      2  C   UNL     1       1.468  -2.215  -3.844  0.00  0.00    +0.041 A 
ATOM      3  C   UNL     1       2.443  -1.245  -3.515  0.00  0.00    +0.046 A 
ATOM      4  C   UNL     1       3.162  -1.746  -2.495  0.00  0.00    +0.131 A 
ATOM      5  O   UNL     1       2.681  -2.964  -2.194  0.00  0.00    -0.466 OA
ATOM      6  C   UNL     1       1.650  -3.251  -3.005  0.00  0.00    +0.195 A 
ENDBRANCH   1   4
BRANCH   1   7
ATOM      7  S   UNL     1       3.931  -0.843  -0.050  0.00  0.00    +0.008 S 
ATOM      8  O   UNL     1       4.861   0.050   0.547  0.00  0.00    -0.169 OA
ATOM      9  O   UNL     1       3.647  -2.100   0.548  0.00  0.00    -0.169 OA
BRANCH   7  10
ATOM     10  C   UNL     1       2.397   0.024  -0.026  0.00  0.00    +0.093 A 
ATOM     11  C   UNL     1       1.207  -0.680  -0.016  0.00  0.00    +0.031 A 
ATOM     12  C   UNL     1       0.002  -0.004   0.002  0.00  0.00    +0.051 A 
ATOM     13  C   UNL     1      -0.017   1.383   0.010  0.00  0.00    +0.162 A 
ATOM     14  C   UNL     1       1.179   2.090   0.002  0.00  0.00    +0.164 A 
ATOM     15  C   UNL     1       2.386   1.406  -0.017  0.00  0.00    +0.076 A 
ATOM     16  O   UNL     1       1.184   3.451   0.018  0.00  0.00    -0.485 OA
ATOM     17  C   UNL     1      -0.040   4.103  -0.340  0.00  0.00    +0.270 C 
ATOM     18  C   UNL     1      -1.189   3.413   0.408  0.00  0.00    +0.270 C 
ATOM     19  O   UNL     1      -1.212   2.035   0.019  0.00  0.00    -0.485 OA
ENDBRANCH   7  10
ENDBRANCH   1   7
BRANCH   1  20
ATOM     20  C   UNL     1       5.576  -1.917  -1.953  0.00  0.00    +0.140 C 
BRANCH  20  21
ATOM     21  N   UNL     1       6.698  -1.251  -1.287  0.00  0.00    -0.188 NA
ATOM     22  H   UNL     1       6.629  -0.315  -1.040  0.00  0.00    +0.148 HD
BRANCH  21  23
ATOM     23  S   UNL     1       8.083  -2.095  -0.956  0.00  0.00    +0.059 S 
ATOM     24  O   UNL     1       8.979  -1.179  -0.341  0.00  0.00    -0.153 OA
ATOM     25  O   UNL     1       7.682  -3.305  -0.328  0.00  0.00    -0.153 OA
BRANCH  23  26
ATOM     26  C   UNL     1       8.803  -2.543  -2.500  0.00  0.00    +0.109 A 
ATOM     27  C   UNL     1       9.709  -1.694  -3.110  0.00  0.00    +0.031 A 
ATOM     28  C   UNL     1      10.278  -2.038  -4.321  0.00  0.00    +0.031 A 
ATOM     29  C   UNL     1       9.938  -3.239  -4.926  0.00  0.00    +0.087 A 
ATOM     30  C   UNL     1       9.024  -4.095  -4.312  0.00  0.00    +0.159 A 
ATOM     31  C   UNL     1       8.463  -3.743  -3.094  0.00  0.00    +0.077 A 
ATOM     32  O   UNL     1       8.884  -5.178  -5.116  0.00  0.00    -0.408 OA
ATOM     33  C   UNL     1       9.668  -5.029  -6.196  0.00  0.00    +0.419 A 
ATOM     34  O   UNL     1       9.768  -5.829  -7.106  0.00  0.00    -0.223 OA
ATOM     35  N   UNL     1      10.327  -3.856  -6.114  0.00  0.00    -0.288 N 
ATOM     36  H   UNL     1      10.956  -3.506  -6.763  0.00  0.00    +0.172 HD
ENDBRANCH  23  26
ENDBRANCH  21  23
ENDBRANCH  20  21
ENDBRANCH   1  20
TORSDOF 7
