REMARK  Name = ZINC54289597
REMARK  3 active torsions:
REMARK  status: ('A' for Active; 'I' for Inactive)
REMARK    1  A    between atoms: C_3  and  C_12
REMARK    2  A    between atoms: C_4  and  C_8
REMARK    3  A    between atoms: C_16  and  N_18
REMARK                            x       y       z     vdW  Elec       q    Type
REMARK                         _______ _______ _______ _____ _____    ______ ____
ROOT
ATOM      1  C   UNL     1       3.659   2.164  -0.022  0.00  0.00    +0.163 A 
ATOM      2  N   UNL     1       3.624   3.489  -0.009  0.00  0.00    -0.232 NA
ATOM      3  C   UNL     1       4.743   4.201  -0.016  0.00  0.00    +0.050 A 
ATOM      4  C   UNL     1       5.957   3.545  -0.036  0.00  0.00    +0.013 A 
ATOM      5  C   UNL     1       5.964   2.148  -0.049  0.00  0.00    +0.123 A 
ATOM      6  N   UNL     1       4.805   1.498  -0.036  0.00  0.00    -0.213 NA
ATOM      7  C   UNL     1       7.086   4.549  -0.041  0.00  0.00    +0.041 C 
ATOM      8  C   UNL     1       6.434   5.885  -0.458  0.00  0.00    +0.011 C 
ATOM      9  C   UNL     1       4.970   5.696  -0.005  0.00  0.00    +0.056 C 
ENDROOT
BRANCH   1  12
ATOM     10  C   UNL     1      -0.017   1.380   0.010  0.00  0.00    +0.016 A 
ATOM     11  C   UNL     1       1.167   2.088   0.002  0.00  0.00    +0.013 A 
ATOM     12  C   UNL     1       2.384   1.408  -0.013  0.00  0.00    +0.031 A 
ATOM     13  C   UNL     1       2.397   0.014  -0.021  0.00  0.00    +0.067 A 
ATOM     14  C   UNL     1       1.208  -0.685  -0.013  0.00  0.00    +0.028 A 
ATOM     15  C   UNL     1       0.002  -0.004   0.002  0.00  0.00    +0.018 A 
ATOM     16 BR   UNL     1      -1.625  -0.969   0.012  0.00  0.00    -0.050 Br
BRANCH  13  17
ATOM     17  C   UNL     1       3.708  -0.728  -0.038  0.00  0.00    +0.418 C 
ATOM     18  F   UNL     1       3.465  -2.106  -0.043  0.00  0.00    -0.166 F 
ATOM     19  F   UNL     1       4.428  -0.378  -1.185  0.00  0.00    -0.166 F 
ATOM     20  F   UNL     1       4.450  -0.390   1.099  0.00  0.00    -0.166 F 
ENDBRANCH  13  17
ENDBRANCH   1  12
BRANCH   5  21
ATOM     21  N   UNL     1       7.161   1.450  -0.070  0.00  0.00    -0.343 N 
ATOM     22  H   UNL     1       8.003   1.932  -0.075  0.00  0.00    +0.144 HD
ATOM     23  H   UNL     1       7.157   0.480  -0.079  0.00  0.00    +0.144 HD
ENDBRANCH   5  21
TORSDOF 3
