REMARK  Name = ZINC39769103
REMARK  6 active torsions:
REMARK  status: ('A' for Active; 'I' for Inactive)
REMARK    1  A    between atoms: C_1  and  O_2
REMARK    2  A    between atoms: O_2  and  C_3
REMARK    3  A    between atoms: N_5  and  C_6
REMARK    4  A    between atoms: C_9  and  S_12
REMARK    5  A    between atoms: S_12  and  N_15
REMARK    6  A    between atoms: C_24  and  C_26
REMARK                            x       y       z     vdW  Elec       q    Type
REMARK                         _______ _______ _______ _____ _____    ______ ____
ROOT
ATOM      1  N   UNL     1       2.573  -5.404   7.480  0.00  0.00    -0.163 NA
ATOM      2  C   UNL     1       2.644  -4.280   8.429  0.00  0.00    +0.115 C 
ATOM      3  C   UNL     1       1.670  -3.203   7.954  0.00  0.00    +0.052 C 
ATOM      4  C   UNL     1       0.330  -3.803   7.616  0.00  0.00    -0.041 A 
ATOM      5  C   UNL     1      -0.768  -2.952   7.584  0.00  0.00    +0.004 A 
ATOM      6  C   UNL     1      -2.021  -3.435   7.272  0.00  0.00    +0.000 A 
ATOM      7  C   UNL     1      -2.190  -4.777   6.986  0.00  0.00    +0.000 A 
ATOM      8  C   UNL     1      -1.102  -5.625   7.020  0.00  0.00    +0.006 A 
ATOM      9  C   UNL     1       0.159  -5.141   7.340  0.00  0.00    -0.020 A 
ATOM     10  C   UNL     1       1.298  -6.123   7.381  0.00  0.00    +0.156 C 
ENDROOT
BRANCH  10  11
ATOM     11  C   UNL     1       1.288  -6.954   6.124  0.00  0.00    +0.053 C 
ATOM     12  C   UNL     1       1.478  -8.243   6.154  0.00  0.00    +0.101 C 
ATOM     13  N   UNL     1       1.446  -8.912   4.920  0.00  0.00    -0.278 N 
ATOM     14  S   UNL     1       1.155  -7.686   3.816  0.00  0.00    +0.045 S 
ATOM     15  N   UNL     1       1.068  -6.381   4.862  0.00  0.00    -0.274 N 
ATOM     16  H   UNL     1       1.565  -9.859   4.748  0.00  0.00    +0.161 HD
ATOM     17  H   UNL     1       0.906  -5.449   4.646  0.00  0.00    +0.161 HD
ENDBRANCH  10  11
BRANCH   1  18
ATOM     18  S   UNL     1       3.879  -5.836   6.558  0.00  0.00    +0.062 S 
ATOM     19  O   UNL     1       4.793  -4.749   6.614  0.00  0.00    -0.153 OA
ATOM     20  O   UNL     1       3.363  -6.335   5.332  0.00  0.00    -0.153 OA
BRANCH  18  24
ATOM     21  C   UNL     1       5.890  -9.324   8.631  0.00  0.00    +0.037 A 
ATOM     22  C   UNL     1       4.978  -9.554   7.610  0.00  0.00    +0.025 A 
ATOM     23  C   UNL     1       4.366  -8.488   6.980  0.00  0.00    +0.030 A 
ATOM     24  C   UNL     1       4.662  -7.193   7.365  0.00  0.00    +0.106 A 
ATOM     25  C   UNL     1       5.570  -6.961   8.381  0.00  0.00    +0.030 A 
ATOM     26  C   UNL     1       6.180  -8.023   9.019  0.00  0.00    +0.025 A 
BRANCH  21  29
ATOM     27  C   UNL     1       6.819 -10.322  10.581  0.00  0.00    +0.404 C 
ATOM     28  O   UNL     1       6.653  -9.278  11.181  0.00  0.00    -0.226 OA
ATOM     29  N   UNL     1       6.512 -10.402   9.272  0.00  0.00    -0.251 N 
ATOM     30  H   UNL     1       6.722 -11.207   8.773  0.00  0.00    +0.158 HD
BRANCH  27  32
ATOM     31  C   UNL     1       7.614 -11.241  12.613  0.00  0.00    +0.282 C 
ATOM     32  O   UNL     1       7.310 -11.397  11.225  0.00  0.00    -0.453 OA
ENDBRANCH  27  32
ENDBRANCH  21  29
ENDBRANCH  18  24
ENDBRANCH   1  18
TORSDOF 5
