REMARK  Name = ZINC05626240
REMARK  4 active torsions:
REMARK  status: ('A' for Active; 'I' for Inactive)
REMARK    1  A    between atoms: C_3  and  C_24
REMARK    2  A    between atoms: C_6  and  C_7
REMARK    3  A    between atoms: N_8  and  N_9
REMARK    4  A    between atoms: C_10  and  C_15
REMARK                            x       y       z     vdW  Elec       q    Type
REMARK                         _______ _______ _______ _____ _____    ______ ____
ROOT
ATOM      1  N   UNL     1      -0.017   1.374  -0.024  0.00  0.00    -0.185 N 
ATOM      2  C   UNL     1       0.002  -0.004  -0.025  0.00  0.00    +0.204 A 
ATOM      3  N   UNL     1       1.262  -0.371  -0.046  0.00  0.00    -0.125 NA
ATOM      4  N   UNL     1       2.023   0.664  -0.057  0.00  0.00    -0.119 NA
ATOM      5  C   UNL     1       1.297   1.760  -0.044  0.00  0.00    +0.223 A 
ATOM      6  S   UNL     1       1.901   3.415  -0.054  0.00  0.00    -0.007 SA
ENDROOT
BRANCH   2   7
ATOM      7  C   UNL     1      -1.175  -0.899  -0.008  0.00  0.00    +0.108 A 
ATOM      8  C   UNL     1      -1.145  -2.312  -0.016  0.00  0.00    +0.004 A 
ATOM      9  C   UNL     1      -2.420  -2.752   0.000  0.00  0.00    +0.067 A 
ATOM     10  N   UNL     1      -3.235  -1.671   0.024  0.00  0.00    -0.178 NA
ATOM     11  H   UNL     1      -2.689   0.549   0.055  0.00  0.00    +0.189 HD
ATOM     12  N   UNL     1      -2.436  -0.521   0.029  0.00  0.00    -0.273 N 
ATOM     13  C   UNL     1      -2.454  -4.265  -0.015  0.00  0.00    +0.058 C 
ATOM     14  C   UNL     1      -1.042  -4.694  -0.465  0.00  0.00    +0.011 C 
ATOM     15  C   UNL     1      -0.185  -3.482  -0.036  0.00  0.00    +0.039 C 
ENDBRANCH   2   7
BRANCH   1  17
ATOM     16  C   UNL     1      -1.654   2.590   1.119  0.00  0.00    +0.141 C 
ATOM     17  N   UNL     1      -1.144   2.206  -0.011  0.00  0.00    -0.170 NA
BRANCH  16  23
ATOM     18  C   UNL     1      -3.415   3.889  -0.069  0.00  0.00    +0.010 A 
ATOM     19  C   UNL     1      -4.527   4.704  -0.048  0.00  0.00    +0.013 A 
ATOM     20  C   UNL     1      -5.068   5.112   1.159  0.00  0.00    +0.055 A 
ATOM     21  C   UNL     1      -4.501   4.702   2.352  0.00  0.00    +0.013 A 
ATOM     22  C   UNL     1      -3.391   3.882   2.347  0.00  0.00    +0.010 A 
ATOM     23  C   UNL     1      -2.840   3.466   1.133  0.00  0.00    -0.005 A 
BRANCH  20  24
ATOM     24  C   UNL     1      -6.280   6.007   1.173  0.00  0.00    +0.417 C 
ATOM     25  F   UNL     1      -5.871   7.345   1.170  0.00  0.00    -0.166 F 
ATOM     26  F   UNL     1      -7.059   5.755   0.039  0.00  0.00    -0.166 F 
ATOM     27  F   UNL     1      -7.034   5.753   2.323  0.00  0.00    -0.166 F 
ENDBRANCH  20  24
ENDBRANCH  16  23
ENDBRANCH   1  17
TORSDOF 4
