REMARK  Name = ZINC12847177
REMARK  8 active torsions:
REMARK  status: ('A' for Active; 'I' for Inactive)
REMARK    1  A    between atoms: C_1  and  C_2
REMARK    2  A    between atoms: C_5  and  C_8
REMARK    3  A    between atoms: C_11  and  C_35
REMARK    4  A    between atoms: C_16  and  C_19
REMARK    5  A    between atoms: N_21  and  C_22
REMARK    6  A    between atoms: C_27  and  C_28
REMARK    7  A    between atoms: C_28  and  C_30
REMARK    8  A    between atoms: C_28  and  O_31
REMARK                            x       y       z     vdW  Elec       q    Type
REMARK                         _______ _______ _______ _____ _____    ______ ____
ROOT
ATOM      1  C   UNL     1       0.754  -5.225  -0.725  0.00  0.00    +0.113 C 
ATOM      2  C   UNL     1      -0.764  -5.326  -0.565  0.00  0.00    +0.062 C 
ATOM      3  C   UNL     1      -1.128  -6.667   0.092  0.00  0.00    +0.201 C 
ATOM      4  N   UNL     1      -0.329  -6.781   1.317  0.00  0.00    -0.226 N 
ATOM      5  C   UNL     1       0.874  -6.112   1.490  0.00  0.00    +0.126 C 
ATOM      6  N   UNL     1       1.418  -5.359   0.578  0.00  0.00    -0.364 N 
ATOM      7  C   UNL     1       1.338  -6.446   2.842  0.00  0.00    +0.091 C 
ATOM      8  C   UNL     1       0.408  -7.298   3.377  0.00  0.00    +0.104 C 
ATOM      9  N   UNL     1      -0.581  -7.512   2.472  0.00  0.00    -0.269 N 
ATOM     10  H   UNL     1      -1.348  -8.089   2.611  0.00  0.00    +0.170 HD
ATOM     11  H   UNL     1       2.250  -4.894   0.756  0.00  0.00    +0.161 HD
ENDROOT
BRANCH   1  16
ATOM     12  C   UNL     1       2.088  -0.096  -3.029  0.00  0.00    +0.044 C 
ATOM     13  C   UNL     1       1.740  -1.434  -2.428  0.00  0.00    -0.050 A 
ATOM     14  C   UNL     1       1.690  -2.559  -3.229  0.00  0.00    +0.004 A 
ATOM     15  C   UNL     1       1.371  -3.786  -2.678  0.00  0.00    +0.006 A 
ATOM     16  C   UNL     1       1.102  -3.888  -1.325  0.00  0.00    -0.025 A 
ATOM     17  C   UNL     1       1.153  -2.762  -0.524  0.00  0.00    +0.006 A 
ATOM     18  C   UNL     1       1.477  -1.536  -1.075  0.00  0.00    +0.004 A 
ENDBRANCH   1  16
BRANCH   7  19
ATOM     19  C   UNL     1       2.560  -5.962   3.493  0.00  0.00    +0.253 C 
ATOM     20  O   UNL     1       2.894  -6.415   4.572  0.00  0.00    -0.270 OA
ATOM     21  N   UNL     1       3.313  -5.017   2.896  0.00  0.00    -0.281 N 
ATOM     22  H   UNL     1       3.012  -4.608   2.070  0.00  0.00    +0.155 HD
BRANCH  21  23
ATOM     23  C   UNL     1       4.529  -4.625   3.470  0.00  0.00    +0.043 A 
ATOM     24  C   UNL     1       5.194  -5.480   4.338  0.00  0.00    +0.073 A 
ATOM     25  C   UNL     1       6.397  -5.092   4.904  0.00  0.00    +0.168 A 
ATOM     26  C   UNL     1       6.936  -3.844   4.601  0.00  0.00    +0.167 A 
ATOM     27  C   UNL     1       6.269  -2.994   3.735  0.00  0.00    +0.057 A 
ATOM     28  C   UNL     1       5.072  -3.384   3.166  0.00  0.00    +0.005 A 
ATOM     29  O   UNL     1       8.114  -3.702   5.279  0.00  0.00    -0.453 OA
ATOM     30  C   UNL     1       8.085  -4.703   6.313  0.00  0.00    +0.466 C 
ATOM     31  O   UNL     1       7.236  -5.731   5.770  0.00  0.00    -0.453 OA
BRANCH  28  32
ATOM     32  C   UNL     1       4.351  -2.459   2.218  0.00  0.00    +0.143 C 
ATOM     33  C   UNL     1       4.726  -2.813   0.777  0.00  0.00    +0.043 C 
BRANCH  32  34
ATOM     34  O   UNL     1       4.730  -1.109   2.491  0.00  0.00    -0.387 OA
ATOM     35  H   UNL     1       5.677  -0.938   2.392  0.00  0.00    +0.210 HD
ENDBRANCH  32  34
ENDBRANCH  28  32
ENDBRANCH  21  23
ENDBRANCH   7  19
BRANCH   3  36
ATOM     36  C   UNL     1      -2.619  -6.690   0.436  0.00  0.00    +0.410 C 
ATOM     37  F   UNL     1      -3.370  -6.531  -0.733  0.00  0.00    -0.169 F 
ATOM     38  F   UNL     1      -2.940  -7.914   1.033  0.00  0.00    -0.169 F 
ATOM     39  F   UNL     1      -2.909  -5.648   1.323  0.00  0.00    -0.169 F 
ENDBRANCH   3  36
TORSDOF 6
