REMARK  Name = ZINC02635699
REMARK  11 active torsions:
REMARK  status: ('A' for Active; 'I' for Inactive)
REMARK    1  A    between atoms: C_1  and  C_2
REMARK    2  A    between atoms: C_2  and  C_3
REMARK    3  A    between atoms: C_2  and  C_4
REMARK    4  A    between atoms: C_4  and  N_5
REMARK    5  A    between atoms: C_6  and  N_27
REMARK    6  A    between atoms: C_7  and  C_14
REMARK    7  A    between atoms: N_10  and  C_13
REMARK    8  A    between atoms: C_14  and  C_16
REMARK    9  A    between atoms: C_16  and  O_17
REMARK   10  A    between atoms: O_17  and  C_18
REMARK   11  A    between atoms: C_18  and  C_20
REMARK                            x       y       z     vdW  Elec       q    Type
REMARK                         _______ _______ _______ _____ _____    ______ ____
ROOT
ATOM      1  N   UNL     1       0.666  -1.961  -1.315  0.00  0.00    -0.281 N 
ATOM      2  C   UNL     1      -0.272  -2.512  -2.141  0.00  0.00    +0.116 A 
ATOM      3  C   UNL     1      -0.379  -3.912  -2.210  0.00  0.00    +0.123 A 
ATOM      4  C   UNL     1       0.533  -4.712  -1.382  0.00  0.00    +0.269 A 
ATOM      5  O   UNL     1       0.485  -5.928  -1.402  0.00  0.00    -0.267 OA
ATOM      6  N   UNL     1       1.425  -4.071  -0.599  0.00  0.00    -0.263 N 
ATOM      7  C   UNL     1       1.484  -2.729  -0.578  0.00  0.00    +0.333 A 
ATOM      8  O   UNL     1       2.305  -2.191   0.138  0.00  0.00    -0.246 OA
ATOM      9  C   UNL     1       2.345  -4.848   0.235  0.00  0.00    +0.157 C 
ENDROOT
BRANCH   2  10
ATOM     10  N   UNL     1      -1.089  -1.719  -2.885  0.00  0.00    -0.344 N 
ATOM     11  H   UNL     1      -1.483  -2.060  -3.703  0.00  0.00    +0.144 HD
ATOM     12  H   UNL     1      -1.278  -0.812  -2.598  0.00  0.00    +0.144 HD
ENDBRANCH   2  10
BRANCH   3  13
ATOM     13  C   UNL     1      -1.331  -4.529  -3.049  0.00  0.00    +0.209 C 
ATOM     14  O   UNL     1      -2.146  -3.852  -3.643  0.00  0.00    -0.288 OA
BRANCH  13  15
ATOM     15  C   UNL     1      -1.338  -6.028  -3.207  0.00  0.00    +0.312 C 
BRANCH  15  16
ATOM     16  O   UNL     1      -2.404  -6.414  -4.114  0.00  0.00    -0.453 OA
BRANCH  16  17
ATOM     17  C   UNL     1      -2.546  -7.730  -4.365  0.00  0.00    +0.340 C 
ATOM     18  O   UNL     1      -1.801  -8.533  -3.840  0.00  0.00    -0.245 OA
BRANCH  17  19
ATOM     19  C   UNL     1      -3.609  -8.197  -5.278  0.00  0.00    +0.059 A 
ATOM     20  C   UNL     1      -4.471  -7.277  -5.878  0.00  0.00    +0.016 A 
ATOM     21  C   UNL     1      -5.457  -7.719  -6.735  0.00  0.00    +0.016 A 
ATOM     22  C   UNL     1      -5.602  -9.072  -6.990  0.00  0.00    +0.018 A 
ATOM     23  C   UNL     1      -4.754  -9.990  -6.393  0.00  0.00    +0.016 A 
ATOM     24  C   UNL     1      -3.760  -9.560  -5.540  0.00  0.00    +0.016 A 
ATOM     25 BR   UNL     1      -6.962  -9.670  -8.160  0.00  0.00    -0.050 Br
ENDBRANCH  17  19
ENDBRANCH  16  17
ENDBRANCH  15  16
ENDBRANCH  13  15
ENDBRANCH   3  13
BRANCH   1  26
ATOM     26  C   UNL     1       0.785  -0.503  -1.236  0.00  0.00    +0.131 C 
BRANCH  26  28
ATOM     27  C   UNL     1      -0.103   1.554  -0.131  0.00  0.00    +0.009 C 
ATOM     28  C   UNL     1      -0.133   0.024  -0.132  0.00  0.00    +0.003 C 
ATOM     29  C   UNL     1       0.349  -0.496   1.224  0.00  0.00    +0.009 C 
ENDBRANCH  26  28
ENDBRANCH   1  26
TORSDOF 8
