REMARK  Name = ZINC66934551
REMARK  6 active torsions:
REMARK  status: ('A' for Active; 'I' for Inactive)
REMARK    1  A    between atoms: C_1  and  C_2
REMARK    2  A    between atoms: C_6  and  C_23
REMARK    3  A    between atoms: N_9  and  S_10
REMARK    4  A    between atoms: S_10  and  C_13
REMARK    5  A    between atoms: C_17  and  S_19
REMARK    6  A    between atoms: S_19  and  N_22
REMARK                            x       y       z     vdW  Elec       q    Type
REMARK                         _______ _______ _______ _____ _____    ______ ____
ROOT
ATOM      1  S   UNL     1       1.718   0.543   2.045  0.00  0.00    +0.061 S 
ATOM      2  O   UNL     1       1.050   1.794   1.957  0.00  0.00    -0.153 OA
ATOM      3  O   UNL     1       1.998  -0.085   3.288  0.00  0.00    -0.153 OA
ENDROOT
BRANCH   1  10
ATOM      4  C   UNL     1       0.101   1.423  -0.130  0.00  0.00    +0.028 C 
ATOM      5  C   UNL     1       0.086  -0.104  -0.037  0.00  0.00    +0.102 C 
ATOM      6  C   UNL     1      -1.359  -0.601   0.078  0.00  0.00    +0.181 C 
ATOM      7  O   UNL     1      -1.354  -2.004   0.350  0.00  0.00    -0.369 OA
ATOM      8  C   UNL     1      -0.736  -2.358   1.590  0.00  0.00    +0.164 C 
ATOM      9  C   UNL     1       0.741  -1.951   1.551  0.00  0.00    +0.146 C 
ATOM     10  N   UNL     1       0.824  -0.535   1.161  0.00  0.00    -0.169 NA
BRANCH   8  11
ATOM     11  C   UNL     1      -0.844  -3.846   1.799  0.00  0.00    -0.018 A 
ATOM     12  C   UNL     1      -0.661  -4.709   0.735  0.00  0.00    +0.006 A 
ATOM     13  C   UNL     1      -0.760  -6.075   0.927  0.00  0.00    +0.000 A 
ATOM     14  C   UNL     1      -1.042  -6.577   2.184  0.00  0.00    +0.000 A 
ATOM     15  C   UNL     1      -1.224  -5.714   3.248  0.00  0.00    +0.000 A 
ATOM     16  C   UNL     1      -1.121  -4.349   3.057  0.00  0.00    +0.006 A 
ENDBRANCH   8  11
ENDBRANCH   1  10
BRANCH   1  17
ATOM     17  C   UNL     1       3.263   0.738   1.220  0.00  0.00    +0.107 A 
ATOM     18  C   UNL     1       4.277  -0.178   1.427  0.00  0.00    +0.028 A 
ATOM     19  C   UNL     1       5.489  -0.025   0.780  0.00  0.00    +0.004 A 
ATOM     20  C   UNL     1       5.686   1.044  -0.074  0.00  0.00    +0.028 A 
ATOM     21  C   UNL     1       4.672   1.959  -0.282  0.00  0.00    +0.107 A 
ATOM     22  C   UNL     1       3.458   1.804   0.362  0.00  0.00    +0.057 A 
BRANCH  21  23
ATOM     23  S   UNL     1       4.924   3.322  -1.370  0.00  0.00    +0.056 S 
ATOM     24  O   UNL     1       4.010   4.334  -0.971  0.00  0.00    -0.153 OA
ATOM     25  O   UNL     1       6.327   3.541  -1.428  0.00  0.00    -0.153 OA
BRANCH  23  26
ATOM     26  N   UNL     1       4.458   2.833  -2.882  0.00  0.00    -0.204 NA
ATOM     27  H   UNL     1       4.104   3.479  -3.513  0.00  0.00    +0.144 HD
ATOM     28  H   UNL     1       4.541   1.901  -3.137  0.00  0.00    +0.144 HD
ENDBRANCH  23  26
ENDBRANCH  21  23
ENDBRANCH   1  17
TORSDOF 5
