REMARK  Name = ZINC64050451
REMARK  6 active torsions:
REMARK  status: ('A' for Active; 'I' for Inactive)
REMARK    1  A    between atoms: C_1  and  C_2
REMARK    2  A    between atoms: C_2  and  C_4
REMARK    3  A    between atoms: C_2  and  O_17
REMARK    4  A    between atoms: N_6  and  C_7
REMARK    5  A    between atoms: O_17  and  C_18
REMARK    6  A    between atoms: C_18  and  C_20
REMARK                            x       y       z     vdW  Elec       q    Type
REMARK                         _______ _______ _______ _____ _____    ______ ____
ROOT
ATOM      1  C   UNL     1      -0.033   1.520   0.013  0.00  0.00    +0.062 C 
ATOM      2  C   UNL     1      -0.002  -0.010   0.002  0.00  0.00    +0.259 C 
ENDROOT
BRANCH   2   3
ATOM      3  C   UNL     1       0.708  -0.488  -1.238  0.00  0.00    +0.258 C 
ATOM      4  O   UNL     1       1.758  -1.088  -1.142  0.00  0.00    -0.271 OA
ATOM      5  N   UNL     1       0.176  -0.250  -2.453  0.00  0.00    -0.282 N 
ATOM      6  H   UNL     1      -0.695   0.170  -2.527  0.00  0.00    +0.155 HD
BRANCH   5   7
ATOM      7  C   UNL     1       0.882  -0.609  -3.609  0.00  0.00    +0.037 A 
ATOM      8  C   UNL     1       0.803   0.185  -4.745  0.00  0.00    +0.027 A 
ATOM      9  C   UNL     1       1.497  -0.168  -5.886  0.00  0.00    +0.051 A 
ATOM     10  C   UNL     1       2.277  -1.316  -5.899  0.00  0.00    +0.162 A 
ATOM     11  C   UNL     1       2.360  -2.111  -4.763  0.00  0.00    +0.164 A 
ATOM     12  C   UNL     1       1.665  -1.754  -3.617  0.00  0.00    +0.072 A 
ATOM     13  O   UNL     1       3.126  -3.237  -4.755  0.00  0.00    -0.485 OA
ATOM     14  C   UNL     1       3.513  -3.761  -6.029  0.00  0.00    +0.270 C 
ATOM     15  C   UNL     1       4.016  -2.597  -6.894  0.00  0.00    +0.270 C 
ATOM     16  O   UNL     1       2.951  -1.650  -7.034  0.00  0.00    -0.485 OA
ENDBRANCH   5   7
ENDBRANCH   2   3
BRANCH   2  17
ATOM     17  O   UNL     1       0.692  -0.480   1.160  0.00  0.00    -0.449 OA
BRANCH  17  18
ATOM     18  C   UNL     1      -0.046  -0.708   2.266  0.00  0.00    +0.338 C 
ATOM     19  O   UNL     1      -1.246  -0.512   2.247  0.00  0.00    -0.245 OA
BRANCH  18  20
ATOM     20  C   UNL     1       0.598  -1.191   3.489  0.00  0.00    +0.065 C 
ATOM     21  C   UNL     1      -0.010  -1.476   4.694  0.00  0.00    +0.010 A 
ATOM     22  C   UNL     1      -1.355  -1.406   5.134  0.00  0.00    +0.010 A 
ATOM     23  C   UNL     1      -1.675  -1.754   6.400  0.00  0.00    +0.001 A 
ATOM     24  C   UNL     1      -0.716  -2.193   7.327  0.00  0.00    +0.002 A 
ATOM     25  C   UNL     1       0.593  -2.295   7.008  0.00  0.00    +0.026 A 
ATOM     26  C   UNL     1       1.028  -1.936   5.649  0.00  0.00    +0.043 A 
ATOM     27  N   UNL     1       2.201  -1.938   5.082  0.00  0.00    -0.380 N 
ATOM     28  C   UNL     1       2.067  -1.488   3.693  0.00  0.00    +0.156 C 
ATOM     29  H   UNL     1       3.031  -2.201   5.510  0.00  0.00    +0.160 HD
ENDBRANCH  18  20
ENDBRANCH  17  18
ENDBRANCH   2  17
TORSDOF 5
