REMARK  Name = ZINC20618079
REMARK  9 active torsions:
REMARK  status: ('A' for Active; 'I' for Inactive)
REMARK    1  A    between atoms: C_3  and  C_6
REMARK    2  A    between atoms: C_6  and  N_7
REMARK    3  A    between atoms: N_7  and  C_8
REMARK    4  A    between atoms: N_7  and  C_33
REMARK    5  A    between atoms: C_8  and  C_9
REMARK    6  A    between atoms: C_9  and  C_10
REMARK    7  A    between atoms: C_10  and  N_11
REMARK    8  A    between atoms: C_12  and  C_14
REMARK    9  A    between atoms: C_17  and  N_20
REMARK                            x       y       z     vdW  Elec       q    Type
REMARK                         _______ _______ _______ _____ _____    ______ ____
ROOT
ATOM      1  N   UNL     1       0.243   0.682  -1.422  0.00  0.00    -0.311 N 
ATOM      2  C   UNL     1      -0.675  -0.155  -0.902  0.00  0.00    +0.244 C 
ATOM      3  O   UNL     1      -0.402  -1.327  -0.731  0.00  0.00    -0.270 OA
ATOM      4  H   UNL     1      -0.004   1.743  -1.577  0.00  0.00    +0.149 HD
ENDROOT
BRANCH   2   5
ATOM      5  C   UNL     1      -2.016   0.349  -0.545  0.00  0.00    +0.037 A 
ATOM      6  C   UNL     1      -2.330   1.698  -0.736  0.00  0.00    +0.015 A 
ATOM      7  C   UNL     1      -3.583   2.164  -0.407  0.00  0.00    +0.028 A 
ATOM      8  C   UNL     1      -4.532   1.296   0.124  0.00  0.00    +0.067 A 
ATOM      9  C   UNL     1      -4.221  -0.046   0.320  0.00  0.00    +0.028 A 
ATOM     10  C   UNL     1      -2.972  -0.519  -0.011  0.00  0.00    +0.015 A 
BRANCH   8  11
ATOM     11  N   UNL     1      -5.797   1.773   0.462  0.00  0.00    -0.226 NA
ATOM     12  C   UNL     1      -5.932   3.005   1.063  0.00  0.00    +0.155 C 
ATOM     13  N   UNL     1      -7.037   3.607   1.370  0.00  0.00    -0.318 N 
ATOM     14  C   UNL     1      -7.052   4.921   1.984  0.00  0.00    +0.108 C 
ATOM     15  C   UNL     1      -7.893   5.878   1.105  0.00  0.00    +0.189 C 
ATOM     16  S   UNL     1      -7.019   7.482   1.339  0.00  0.00    -0.028 S 
ATOM     17  O   UNL     1      -7.427   8.092   2.555  0.00  0.00    -0.174 OA
ATOM     18  O   UNL     1      -7.079   8.219   0.125  0.00  0.00    -0.174 OA
ATOM     19  C   UNL     1      -5.323   6.781   1.544  0.00  0.00    +0.182 C 
ATOM     20  C   UNL     1      -5.640   5.456   2.264  0.00  0.00    +0.097 C 
ATOM     21  S   UNL     1      -4.620   4.093   1.585  0.00  0.00    -0.084 S 
ATOM     22  H   UNL     1      -7.983   3.091   1.151  0.00  0.00    +0.148 HD
ENDBRANCH   8  11
ENDBRANCH   2   5
BRANCH   1  23
ATOM     23  C   UNL     1       1.572   0.180  -1.781  0.00  0.00    +0.102 C 
BRANCH  23  24
ATOM     24  C   UNL     1       2.415   1.326  -2.345  0.00  0.00    +0.000 C 
BRANCH  24  25
ATOM     25  C   UNL     1       3.802   0.802  -2.720  0.00  0.00    -0.076 C 
BRANCH  25  26
ATOM     26  N   UNL     1       4.555   1.859  -3.409  0.00  0.00    +0.386 N 
ATOM     27  H   UNL     1       3.947   2.209  -4.256  0.00  0.00    -0.081 HD
BRANCH  26  28
ATOM     28  C   UNL     1       4.791   3.003  -2.519  0.00  0.00    -0.068 C 
ATOM     29  C   UNL     1       4.763   2.543  -1.047  0.00  0.00    -0.015 C 
ATOM     30  C   UNL     1       4.077   3.711  -0.297  0.00  0.00    -0.002 C 
ATOM     31  C   UNL     1       2.986   4.167  -1.298  0.00  0.00    -0.002 C 
ATOM     32  C   UNL     1       3.662   4.036  -2.679  0.00  0.00    -0.015 C 
ENDBRANCH  26  28
BRANCH  26  33
ATOM     33  C   UNL     1       5.820   1.339  -3.946  0.00  0.00    -0.003 C 
BRANCH  33  36
ATOM     34  C   UNL     1       7.507   3.930  -5.952  0.00  0.00    +0.041 A 
ATOM     35  C   UNL     1       7.282   3.265  -4.725  0.00  0.00    +0.042 A 
ATOM     36  C   UNL     1       6.369   2.306  -4.963  0.00  0.00    +0.089 A 
ATOM     37  O   UNL     1       6.025   2.360  -6.260  0.00  0.00    -0.470 OA
ATOM     38  C   UNL     1       6.712   3.343  -6.865  0.00  0.00    +0.195 A 
ENDBRANCH  33  36
ENDBRANCH  26  33
ENDBRANCH  25  26
ENDBRANCH  24  25
ENDBRANCH  23  24
ENDBRANCH   1  23
TORSDOF 9
