REMARK  Name = ZINC03959480
REMARK  5 active torsions:
REMARK  status: ('A' for Active; 'I' for Inactive)
REMARK    1  A    between atoms: C_1  and  N_2
REMARK    2  A    between atoms: N_7  and  C_10
REMARK    3  A    between atoms: C_11  and  C_21
REMARK    4  A    between atoms: C_26  and  O_27
REMARK    5  A    between atoms: O_27  and  C_28
REMARK                            x       y       z     vdW  Elec       q    Type
REMARK                         _______ _______ _______ _____ _____    ______ ____
ROOT
ATOM      1  C   UNL     1      -2.280   8.299  -2.163  0.00  0.00    +0.155 C 
ATOM      2  N   UNL     1      -2.513   6.855  -2.238  0.00  0.00    -0.284 N 
ATOM      3  C   UNL     1      -2.429   6.089  -1.100  0.00  0.00    +0.116 A 
ATOM      4  C   UNL     1      -2.643   4.746  -1.176  0.00  0.00    +0.067 A 
ATOM      5  C   UNL     1      -2.953   4.174  -2.423  0.00  0.00    +0.262 A 
ATOM      6  O   UNL     1      -3.154   2.975  -2.516  0.00  0.00    -0.267 OA
ATOM      7  N   UNL     1      -3.027   4.960  -3.515  0.00  0.00    -0.264 N 
ATOM      8  C   UNL     1      -2.808   6.285  -3.421  0.00  0.00    +0.333 A 
ATOM      9  O   UNL     1      -2.877   6.976  -4.418  0.00  0.00    -0.246 OA
ATOM     10  C   UNL     1      -3.348   4.369  -4.816  0.00  0.00    +0.157 C 
ATOM     11  C   UNL     1      -2.552   3.880   0.046  0.00  0.00    +0.096 C 
ATOM     12  C   UNL     1      -2.640   4.703   1.307  0.00  0.00    +0.024 C 
ATOM     13  C   UNL     1      -2.431   6.036   1.281  0.00  0.00    +0.017 C 
ATOM     14  N   UNL     1      -2.134   6.673   0.106  0.00  0.00    -0.303 N 
ATOM     15  C   UNL     1      -2.524   6.862   2.541  0.00  0.00    +0.051 C 
ATOM     16  C   UNL     1      -2.109   6.012   3.744  0.00  0.00    +0.014 C 
ATOM     17  C   UNL     1      -3.027   4.787   3.812  0.00  0.00    +0.080 C 
ATOM     18  C   UNL     1      -2.943   4.040   2.509  0.00  0.00    +0.162 C 
ATOM     19  O   UNL     1      -3.141   2.841   2.495  0.00  0.00    -0.292 OA
ATOM     20  H   UNL     1      -1.711   7.546   0.127  0.00  0.00    +0.153 HD
ENDROOT
BRANCH  11  21
ATOM     21  C   UNL     1      -1.239   3.141   0.030  0.00  0.00    +0.007 A 
ATOM     22  C   UNL     1      -0.049   3.844   0.023  0.00  0.00    +0.008 A 
ATOM     23  C   UNL     1       1.156   3.166   0.008  0.00  0.00    +0.001 A 
ATOM     24  C   UNL     1       1.174   1.783   0.000  0.00  0.00    +0.004 A 
ATOM     25  C   UNL     1      -0.013   1.076   0.008  0.00  0.00    +0.046 A 
ATOM     26  C   UNL     1      -1.223   1.754   0.017  0.00  0.00    +0.131 A 
BRANCH  26  27
ATOM     27  O   UNL     1      -2.392   1.060   0.019  0.00  0.00    -0.434 OA
BRANCH  27  28
ATOM     28  C   UNL     1      -2.300  -0.366   0.011  0.00  0.00    +0.541 C 
ATOM     29  F   UNL     1      -1.617  -0.782  -1.137  0.00  0.00    -0.166 F 
ATOM     30  F   UNL     1      -1.606  -0.795   1.147  0.00  0.00    -0.166 F 
ENDBRANCH  27  28
ENDBRANCH  26  27
ENDBRANCH  11  21
TORSDOF 3
