REMARK  Name = ZINC39466098
REMARK  15 active torsions:
REMARK  status: ('A' for Active; 'I' for Inactive)
REMARK    1  A    between atoms: C_1  and  C_2
REMARK    2  A    between atoms: C_4  and  C_9
REMARK    3  A    between atoms: C_5  and  C_8
REMARK    4  A    between atoms: C_9  and  C_10
REMARK    5  A    between atoms: C_10  and  N_11
REMARK    6  A    between atoms: N_11  and  C_12
REMARK    7  A    between atoms: C_12  and  C_13
REMARK    8  A    between atoms: C_18  and  O_19
REMARK    9  A    between atoms: O_19  and  C_20
REMARK   10  A    between atoms: C_20  and  C_21
REMARK   11  A    between atoms: C_21  and  C_23
REMARK   12  A    between atoms: C_21  and  O_32
REMARK   13  A    between atoms: C_23  and  N_24
REMARK   14  A    between atoms: N_24  and  C_25
REMARK   15  A    between atoms: N_24  and  C_26
REMARK                            x       y       z     vdW  Elec       q    Type
REMARK                         _______ _______ _______ _____ _____    ______ ____
ROOT
ATOM      1  C   UNL     1      -7.692   3.245  -2.565  0.00  0.00    -0.023 A 
ATOM      2  C   UNL     1      -7.791   4.059  -3.677  0.00  0.00    +0.005 A 
ATOM      3  C   UNL     1      -8.879   3.947  -4.523  0.00  0.00    +0.000 A 
ATOM      4  C   UNL     1      -9.870   3.020  -4.259  0.00  0.00    +0.004 A 
ATOM      5  C   UNL     1      -9.776   2.203  -3.149  0.00  0.00    +0.046 A 
ATOM      6  C   UNL     1      -8.682   2.310  -2.302  0.00  0.00    +0.122 A 
ENDROOT
BRANCH   1   7
ATOM      7  C   UNL     1      -6.506   3.368  -1.643  0.00  0.00    -0.043 C 
BRANCH   7   8
ATOM      8  N   UNL     1      -5.536   2.308  -1.950  0.00  0.00    +0.382 N 
ATOM      9  H   UNL     1      -5.229   2.400  -2.906  0.00  0.00    -0.085 HD
ATOM     10  H   UNL     1      -5.971   1.407  -1.820  0.00  0.00    -0.085 HD
BRANCH   8  11
ATOM     11  C   UNL     1      -4.380   2.428  -1.051  0.00  0.00    -0.078 C 
BRANCH  11  12
ATOM     12  C   UNL     1      -3.370   1.325  -1.370  0.00  0.00    +0.016 C 
BRANCH  12  15
ATOM     13  C   UNL     1      -1.346   3.804  -0.641  0.00  0.00    +0.039 C 
ATOM     14  C   UNL     1      -0.956   2.325  -0.615  0.00  0.00    +0.153 C 
ATOM     15  C   UNL     1      -2.184   1.448  -0.448  0.00  0.00    -0.023 C 
ATOM     16  C   UNL     1      -1.970   0.811   0.706  0.00  0.00    +0.061 C 
ATOM     17  N   UNL     1      -0.789   1.185   1.248  0.00  0.00    -0.159 NA
ATOM     18  N   UNL     1      -0.159   2.017   0.585  0.00  0.00    -0.180 NA
ATOM     19  C   UNL     1      -2.915  -0.188   1.320  0.00  0.00    +0.067 C 
ENDBRANCH  12  15
ENDBRANCH  11  12
ENDBRANCH   8  11
ENDBRANCH   7   8
ENDBRANCH   1   7
BRANCH   6  20
ATOM     20  O   UNL     1      -8.584   1.504  -1.212  0.00  0.00    -0.489 OA
BRANCH  20  21
ATOM     21  C   UNL     1      -9.641   0.565  -1.003  0.00  0.00    +0.258 C 
BRANCH  21  22
ATOM     22  C   UNL     1      -9.358  -0.248   0.262  0.00  0.00    +0.135 C 
BRANCH  22  23
ATOM     23  O   UNL     1      -9.389   0.616   1.400  0.00  0.00    -0.390 OA
ATOM     24  H   UNL     1     -10.237   1.062   1.532  0.00  0.00    +0.210 HD
ENDBRANCH  22  23
BRANCH  22  25
ATOM     25  C   UNL     1     -10.422  -1.336   0.418  0.00  0.00    -0.044 C 
BRANCH  25  26
ATOM     26  N   UNL     1     -10.059  -2.220   1.533  0.00  0.00    +0.381 N 
ATOM     27  C   UNL     1     -10.128  -1.472   2.795  0.00  0.00    -0.096 C 
ATOM     28  H   UNL     1      -9.120  -2.564   1.397  0.00  0.00    -0.082 HD
BRANCH  26  29
ATOM     29  C   UNL     1     -10.992  -3.353   1.584  0.00  0.00    -0.069 C 
ATOM     30  C   UNL     1     -10.614  -4.275   2.746  0.00  0.00    -0.015 C 
ATOM     31  C   UNL     1     -11.586  -5.455   2.799  0.00  0.00    -0.002 C 
ATOM     32  C   UNL     1     -11.514  -6.235   1.485  0.00  0.00    -0.000 C 
ATOM     33  C   UNL     1     -11.893  -5.313   0.323  0.00  0.00    -0.002 C 
ATOM     34  C   UNL     1     -10.920  -4.133   0.270  0.00  0.00    -0.015 C 
ENDBRANCH  26  29
ENDBRANCH  25  26
ENDBRANCH  22  25
ENDBRANCH  21  22
ENDBRANCH  20  21
ENDBRANCH   6  20
TORSDOF 12
