REMARK  Name = ZINC05500231
REMARK  5 active torsions:
REMARK  status: ('A' for Active; 'I' for Inactive)
REMARK    1  A    between atoms: C_1  and  C_2
REMARK    2  A    between atoms: C_3  and  C_12
REMARK    3  A    between atoms: C_12  and  C_14
REMARK    4  A    between atoms: C_14  and  C_15
REMARK    5  A    between atoms: N_17  and  C_18
REMARK                            x       y       z     vdW  Elec       q    Type
REMARK                         _______ _______ _______ _____ _____    ______ ____
ROOT
ATOM      1  C   UNL     1      -5.184   1.153   0.703  0.00  0.00    +0.175 C 
ENDROOT
BRANCH   1   2
ATOM      2  C   UNL     1      -6.524   0.534   1.006  0.00  0.00    +0.221 C 
ATOM      3  O   UNL     1      -6.644  -0.673   1.025  0.00  0.00    -0.275 OA
ATOM      4  N   UNL     1      -7.589   1.321   1.256  0.00  0.00    -0.309 N 
ATOM      5  H   UNL     1      -7.492   2.287   1.241  0.00  0.00    +0.149 HD
BRANCH   4   6
ATOM      6  C   UNL     1      -8.892   0.720   1.550  0.00  0.00    +0.035 C 
ATOM      7  C   UNL     1      -8.778  -0.156   2.800  0.00  0.00    +0.029 C 
ATOM      8  C   UNL     1     -10.139  -0.784   3.108  0.00  0.00    -0.008 C 
ATOM      9  C   UNL     1     -11.168   0.322   3.352  0.00  0.00    +0.007 C 
ATOM     10  C   UNL     1     -11.281   1.197   2.102  0.00  0.00    -0.008 C 
ATOM     11  C   UNL     1      -9.920   1.826   1.795  0.00  0.00    +0.029 C 
ATOM     12  C   UNL     1     -11.726   0.339   0.917  0.00  0.00    +0.007 C 
ATOM     13  C   UNL     1     -10.698  -0.767   0.672  0.00  0.00    -0.008 C 
ATOM     14  C   UNL     1     -10.584  -1.643   1.922  0.00  0.00    +0.007 C 
ATOM     15  C   UNL     1      -9.337  -0.138   0.365  0.00  0.00    +0.029 C 
ENDBRANCH   4   6
ENDBRANCH   1   2
BRANCH   1  16
ATOM     16  C   UNL     1      -4.170   0.064   0.462  0.00  0.00    +0.180 C 
ATOM     17  O   UNL     1      -4.525  -1.099   0.425  0.00  0.00    -0.291 OA
BRANCH  16  20
ATOM     18  C   UNL     1      -2.347  -2.008   0.465  0.00  0.00    +0.062 C 
ATOM     19  C   UNL     1      -1.884  -0.586   0.280  0.00  0.00    +0.022 C 
ATOM     20  C   UNL     1      -2.816   0.391   0.281  0.00  0.00    +0.072 C 
ATOM     21  S   UNL     1      -2.345   2.075   0.059  0.00  0.00    -0.083 S 
ATOM     22  C   UNL     1      -0.707   1.962  -0.582  0.00  0.00    +0.034 A 
ATOM     23  C   UNL     1      -0.124   3.067  -1.183  0.00  0.00    +0.017 A 
ATOM     24  C   UNL     1       1.160   2.982  -1.691  0.00  0.00    +0.001 A 
ATOM     25  C   UNL     1       1.861   1.794  -1.601  0.00  0.00    +0.002 A 
ATOM     26  C   UNL     1       1.285   0.689  -1.002  0.00  0.00    +0.024 A 
ATOM     27  C   UNL     1      -0.003   0.763  -0.486  0.00  0.00    +0.045 A 
ATOM     28  N   UNL     1      -0.558  -0.363   0.122  0.00  0.00    -0.316 N 
ATOM     29  H   UNL     1       0.052  -1.039   0.456  0.00  0.00    +0.152 HD
ENDBRANCH  16  20
ENDBRANCH   1  16
TORSDOF 4
