REMARK  Name = ZINC39669129
REMARK  6 active torsions:
REMARK  status: ('A' for Active; 'I' for Inactive)
REMARK    1  A    between atoms: C_4  and  O_7
REMARK    2  A    between atoms: O_7  and  C_8
REMARK    3  A    between atoms: C_9  and  C_14
REMARK    4  A    between atoms: C_18  and  C_27
REMARK    5  A    between atoms: N_29  and  C_30
REMARK    6  A    between atoms: C_30  and  C_31
REMARK                            x       y       z     vdW  Elec       q    Type
REMARK                         _______ _______ _______ _____ _____    ______ ____
ROOT
ATOM      1  C   UNL     1       6.018  -1.884   0.118  0.00  0.00    +0.252 C 
ATOM      2  O   UNL     1       6.050  -0.669   0.097  0.00  0.00    -0.270 OA
ATOM      3  N   UNL     1       7.166  -2.589   0.113  0.00  0.00    -0.296 N 
ATOM      4  C   UNL     1       7.330  -4.059   0.207  0.00  0.00    +0.121 C 
ATOM      5  C   UNL     1       8.479  -4.387  -0.774  0.00  0.00    +0.100 C 
ATOM      6  C   UNL     1       9.277  -3.078  -0.895  0.00  0.00    -0.004 C 
ATOM      7  C   UNL     1       8.551  -2.070   0.008  0.00  0.00    +0.115 C 
ATOM      8  C   UNL     1       9.269  -2.586  -2.339  0.00  0.00    -0.010 C 
ATOM      9  C   UNL     1      10.117  -1.315  -2.444  0.00  0.00    -0.082 C 
ATOM     10  N   UNL     1      11.489  -1.603  -2.012  0.00  0.00    +0.379 N 
ATOM     11  C   UNL     1      11.498  -1.986  -0.595  0.00  0.00    -0.082 C 
ATOM     12  C   UNL     1      10.709  -3.285  -0.411  0.00  0.00    -0.010 C 
ATOM     13  H   UNL     1      11.864  -2.358  -2.566  0.00  0.00    -0.086 HD
ATOM     14  H   UNL     1      12.060  -0.780  -2.140  0.00  0.00    -0.086 HD
ENDROOT
BRANCH   1  16
ATOM     15  C   UNL     1       3.617  -2.079  -0.554  0.00  0.00    +0.233 A 
ATOM     16  C   UNL     1       4.721  -2.587   0.148  0.00  0.00    +0.099 A 
ATOM     17  C   UNL     1       4.570  -3.772   0.876  0.00  0.00    +0.020 A 
ATOM     18  C   UNL     1       3.333  -4.393   0.872  0.00  0.00    +0.021 A 
ATOM     19  C   UNL     1       2.292  -3.830   0.156  0.00  0.00    +0.114 A 
ATOM     20  N   UNL     1       2.455  -2.709  -0.520  0.00  0.00    -0.220 NA
BRANCH  15  21
ATOM     21  O   UNL     1       3.740  -0.933  -1.265  0.00  0.00    -0.437 OA
BRANCH  21  25
ATOM     22  C   UNL     1       0.349   0.638  -3.012  0.00  0.00    +0.000 A 
ATOM     23  C   UNL     1       0.453   0.582  -1.634  0.00  0.00    +0.004 A 
ATOM     24  C   UNL     1       1.588   0.057  -1.047  0.00  0.00    +0.046 A 
ATOM     25  C   UNL     1       2.623  -0.416  -1.840  0.00  0.00    +0.130 A 
ATOM     26  C   UNL     1       2.516  -0.358  -3.223  0.00  0.00    +0.046 A 
ATOM     27  C   UNL     1       1.380   0.169  -3.805  0.00  0.00    +0.004 A 
ENDBRANCH  21  25
ENDBRANCH  15  21
ENDBRANCH   1  16
BRANCH   5  28
ATOM     28  C   UNL     1       7.924  -4.791  -2.115  0.00  0.00    +0.218 C 
ATOM     29  O   UNL     1       6.910  -4.273  -2.533  0.00  0.00    -0.275 OA
ATOM     30  N   UNL     1       8.554  -5.729  -2.850  0.00  0.00    -0.312 N 
ATOM     31  H   UNL     1       9.365  -6.144  -2.515  0.00  0.00    +0.149 HD
BRANCH  30  32
ATOM     32  C   UNL     1       8.014  -6.122  -4.154  0.00  0.00    +0.140 C 
BRANCH  32  33
ATOM     33  C   UNL     1       8.912  -7.195  -4.775  0.00  0.00    +0.165 C 
ATOM     34  C   UNL     1       8.430  -7.503  -6.169  0.00  0.00    -0.014 A 
ATOM     35  C   UNL     1       8.073  -6.451  -6.998  0.00  0.00    +0.006 A 
ATOM     36  C   UNL     1       7.631  -6.695  -8.283  0.00  0.00    +0.000 A 
ATOM     37  C   UNL     1       7.545  -7.995  -8.746  0.00  0.00    +0.000 A 
ATOM     38  C   UNL     1       7.899  -9.044  -7.921  0.00  0.00    +0.004 A 
ATOM     39  C   UNL     1       8.339  -8.800  -6.629  0.00  0.00    -0.040 A 
ATOM     40  C   UNL     1       8.705  -9.971  -5.753  0.00  0.00    +0.063 C 
ATOM     41  C   UNL     1       9.539  -9.488  -4.566  0.00  0.00    +0.165 C 
ATOM     42  O   UNL     1       8.869  -8.372  -3.969  0.00  0.00    -0.370 OA
ENDBRANCH  32  33
ENDBRANCH  30  32
ENDBRANCH   5  28
TORSDOF 6
