REMARK  Name = ZINC39684039
REMARK  6 active torsions:
REMARK  status: ('A' for Active; 'I' for Inactive)
REMARK    1  A    between atoms: C_1  and  C_2
REMARK    2  A    between atoms: C_2  and  C_4
REMARK    3  A    between atoms: C_2  and  N_8
REMARK    4  A    between atoms: N_6  and  C_7
REMARK    5  A    between atoms: C_9  and  C_11
REMARK    6  A    between atoms: C_22  and  C_24
REMARK                            x       y       z     vdW  Elec       q    Type
REMARK                         _______ _______ _______ _____ _____    ______ ____
ROOT
ATOM      1  C   UNL     1       2.736  -1.073  -2.455  0.00  0.00    +0.100 C 
ATOM      2  C   UNL     1       2.409  -2.561  -2.711  0.00  0.00    +0.121 C 
ATOM      3  N   UNL     1       3.675  -3.140  -3.221  0.00  0.00    -0.296 N 
ATOM      4  C   UNL     1       4.731  -2.493  -2.407  0.00  0.00    +0.115 C 
ATOM      5  C   UNL     1       4.261  -1.032  -2.254  0.00  0.00    -0.004 C 
ATOM      6  C   UNL     1       4.597  -0.513  -0.860  0.00  0.00    -0.010 C 
ATOM      7  C   UNL     1       6.118  -0.426  -0.705  0.00  0.00    -0.082 C 
ATOM      8  N   UNL     1       6.665   0.472  -1.728  0.00  0.00    +0.379 N 
ATOM      9  C   UNL     1       6.419  -0.082  -3.065  0.00  0.00    -0.082 C 
ATOM     10  C   UNL     1       4.910  -0.154  -3.320  0.00  0.00    -0.010 C 
ATOM     11  C   UNL     1       3.830  -4.049  -4.204  0.00  0.00    +0.252 C 
ATOM     12  O   UNL     1       4.944  -4.429  -4.510  0.00  0.00    -0.270 OA
ATOM     13  H   UNL     1       6.221   1.375  -1.653  0.00  0.00    -0.086 HD
ATOM     14  H   UNL     1       7.659   0.576  -1.587  0.00  0.00    -0.086 HD
ENDROOT
BRANCH  11  15
ATOM     15  C   UNL     1       2.649  -4.583  -4.908  0.00  0.00    +0.108 A 
ATOM     16  C   UNL     1       2.171  -3.949  -6.060  0.00  0.00    +0.138 A 
ATOM     17  C   UNL     1       1.064  -4.456  -6.715  0.00  0.00    +0.041 A 
ATOM     18  C   UNL     1       0.429  -5.587  -6.234  0.00  0.00    +0.026 A 
ATOM     19  C   UNL     1       0.895  -6.221  -5.096  0.00  0.00    +0.077 A 
ATOM     20  C   UNL     1       2.005  -5.730  -4.432  0.00  0.00    +0.156 A 
ATOM     21  F   UNL     1       2.462  -6.353  -3.324  0.00  0.00    -0.203 F 
ATOM     22 CL   UNL     1       0.088  -7.639  -4.503  0.00  0.00    -0.081 Cl
ATOM     23  F   UNL     1       2.788  -2.844  -6.531  0.00  0.00    -0.205 F 
ENDBRANCH  11  15
BRANCH   1  25
ATOM     24  N   UNL     1       1.682   0.710  -1.103  0.00  0.00    -0.304 N 
ATOM     25  C   UNL     1       2.031  -0.587  -1.215  0.00  0.00    +0.219 C 
ATOM     26  O   UNL     1       1.778  -1.363  -0.318  0.00  0.00    -0.275 OA
ATOM     27  H   UNL     1       1.885   1.331  -1.820  0.00  0.00    +0.149 HD
BRANCH  24  29
ATOM     28  C   UNL     1       2.030   1.520   1.179  0.00  0.00    +0.038 C 
ATOM     29  C   UNL     1       0.996   1.182   0.102  0.00  0.00    +0.156 C 
BRANCH  29  30
ATOM     30  C   UNL     1       0.194   2.415  -0.227  0.00  0.00    +0.233 C 
ATOM     31  O   UNL     1       0.194   2.855  -1.357  0.00  0.00    -0.274 OA
ATOM     32  N   UNL     1      -0.525   3.027   0.735  0.00  0.00    -0.317 N 
ATOM     33  C   UNL     1      -1.305   4.225   0.415  0.00  0.00    +0.128 C 
ATOM     34  H   UNL     1      -0.526   2.675   1.639  0.00  0.00    +0.148 HD
ENDBRANCH  29  30
ENDBRANCH  24  29
ENDBRANCH   1  25
TORSDOF 4
