REMARK  Name = ZINC03516605
REMARK  9 active torsions:
REMARK  status: ('A' for Active; 'I' for Inactive)
REMARK    1  A    between atoms: C_1  and  C_2
REMARK    2  A    between atoms: C_2  and  N_3
REMARK    3  A    between atoms: C_7  and  C_9
REMARK    4  A    between atoms: C_9  and  S_10
REMARK    5  A    between atoms: S_10  and  C_11
REMARK    6  A    between atoms: N_24  and  C_25
REMARK    7  A    between atoms: C_25  and  C_26
REMARK    8  A    between atoms: C_26  and  O_27
REMARK    9  A    between atoms: O_27  and  C_28
REMARK                            x       y       z     vdW  Elec       q    Type
REMARK                         _______ _______ _______ _____ _____    ______ ____
ROOT
ATOM      1  C   UNL     1      -0.335   2.752   1.766  0.00  0.00    +0.173 A 
ATOM      2  N   UNL     1      -0.935   3.208   2.847  0.00  0.00    -0.216 NA
ATOM      3  C   UNL     1      -1.903   2.512   3.432  0.00  0.00    +0.117 A 
ATOM      4  C   UNL     1      -2.337   1.272   2.935  0.00  0.00    +0.076 A 
ATOM      5  C   UNL     1      -3.413   0.623   3.687  0.00  0.00    -0.023 A 
ATOM      6  C   UNL     1      -3.878   1.272   4.773  0.00  0.00    -0.004 A 
ATOM      7  S   UNL     1      -2.926   2.765   4.860  0.00  0.00    -0.073 S 
ATOM      8  C   UNL     1      -4.965   0.824   5.702  0.00  0.00    +0.043 C 
ATOM      9  C   UNL     1      -5.738  -0.319   5.028  0.00  0.00    +0.005 C 
ATOM     10  C   UNL     1      -4.732  -1.331   4.472  0.00  0.00    +0.005 C 
ATOM     11  C   UNL     1      -3.994  -0.727   3.276  0.00  0.00    +0.037 C 
ATOM     12  C   UNL     1      -1.671   0.804   1.758  0.00  0.00    +0.263 A 
ATOM     13  O   UNL     1      -1.981  -0.262   1.255  0.00  0.00    -0.267 OA
ATOM     14  N   UNL     1      -0.698   1.558   1.213  0.00  0.00    -0.285 N 
ENDROOT
BRANCH   1  15
ATOM     15  S   UNL     1       0.950   3.699   1.020  0.00  0.00    -0.078 S 
BRANCH  15  16
ATOM     16  C   UNL     1       0.989   5.117   2.145  0.00  0.00    +0.173 C 
BRANCH  16  21
ATOM     17  N   UNL     1       3.411   9.237   2.666  0.00  0.00    -0.299 N 
ATOM     18  C   UNL     1       3.201   8.098   1.975  0.00  0.00    +0.306 C 
ATOM     19  O   UNL     1       3.865   7.857   0.986  0.00  0.00    -0.252 OA
ATOM     20  N   UNL     1       2.256   7.228   2.381  0.00  0.00    -0.240 N 
ATOM     21  C   UNL     1       2.046   6.090   1.691  0.00  0.00    +0.231 C 
ATOM     22  O   UNL     1       2.708   5.849   0.704  0.00  0.00    -0.274 OA
ATOM     23  H   UNL     1       2.881   9.430   3.455  0.00  0.00    +0.150 HD
ATOM     24  H   UNL     1       1.726   7.421   3.171  0.00  0.00    +0.159 HD
BRANCH  17  26
ATOM     25  C   UNL     1       4.472  11.381   3.175  0.00  0.00    +0.024 C 
ATOM     26  C   UNL     1       4.439  10.183   2.224  0.00  0.00    +0.102 C 
ENDBRANCH  17  26
ENDBRANCH  16  21
ENDBRANCH  15  16
ENDBRANCH   1  15
BRANCH  14  27
ATOM     27  C   UNL     1      -0.013   1.086   0.008  0.00  0.00    +0.155 C 
BRANCH  27  28
ATOM     28  C   UNL     1      -0.753   1.593  -1.232  0.00  0.00    +0.181 C 
BRANCH  28  29
ATOM     29  O   UNL     1      -2.054   1.005  -1.282  0.00  0.00    -0.381 OA
ATOM     30  C   UNL     1      -2.833   1.415  -2.409  0.00  0.00    +0.194 C 
ENDBRANCH  28  29
ENDBRANCH  27  28
ENDBRANCH  14  27
TORSDOF 7
