REMARK  Name = ZINC59334217
REMARK  11 active torsions:
REMARK  status: ('A' for Active; 'I' for Inactive)
REMARK    1  A    between atoms: C_1  and  C_2
REMARK    2  A    between atoms: C_2  and  C_4
REMARK    3  A    between atoms: C_2  and  N_11
REMARK    4  A    between atoms: N_11  and  C_12
REMARK    5  A    between atoms: N_11  and  C_32
REMARK    6  A    between atoms: C_12  and  C_13
REMARK    7  A    between atoms: N_15  and  N_16
REMARK    8  A    between atoms: C_19  and  C_23
REMARK    9  A    between atoms: C_19  and  C_24
REMARK   10  A    between atoms: C_24  and  C_25
REMARK   11  A    between atoms: C_25  and  C_26
REMARK                            x       y       z     vdW  Elec       q    Type
REMARK                         _______ _______ _______ _____ _____    ______ ____
ROOT
ATOM      1  C   UNL     1       0.667  -0.103  -3.591  0.00  0.00    +0.213 C 
ATOM      2  O   UNL     1       1.730  -0.688  -3.589  0.00  0.00    -0.276 OA
ATOM      3  N   UNL     1       0.126   0.305  -4.756  0.00  0.00    -0.225 N 
ATOM      4  H   UNL     1      -0.724   0.773  -4.757  0.00  0.00    +0.173 HD
ENDROOT
BRANCH   3   5
ATOM      5  N   UNL     1       0.789   0.054  -5.963  0.00  0.00    -0.137 N 
ATOM      6  C   UNL     1       1.457   0.988  -6.669  0.00  0.00    +0.263 C 
ATOM      7  O   UNL     1       1.591   2.160  -6.389  0.00  0.00    -0.271 OA
ATOM      8  C   UNL     1       2.006   0.268  -7.885  0.00  0.00    +0.112 C 
ATOM      9  N   UNL     1       1.540  -1.118  -7.707  0.00  0.00    -0.284 N 
ATOM     10  C   UNL     1       0.843  -1.145  -6.556  0.00  0.00    +0.326 C 
ATOM     11  O   UNL     1       0.319  -2.145  -6.107  0.00  0.00    -0.251 OA
ATOM     12  C   UNL     1       1.431   0.868  -9.170  0.00  0.00    +0.041 C 
ATOM     13  H   UNL     1       1.705  -1.866  -8.302  0.00  0.00    +0.151 HD
BRANCH   8  14
ATOM     14  C   UNL     1       3.534   0.324  -7.900  0.00  0.00    +0.040 C 
BRANCH  14  15
ATOM     15  C   UNL     1       4.060  -0.408  -9.136  0.00  0.00    +0.038 C 
BRANCH  15  16
ATOM     16  C   UNL     1       5.566  -0.353  -9.150  0.00  0.00    -0.047 A 
ATOM     17  C   UNL     1       6.213   0.696  -9.775  0.00  0.00    +0.003 A 
ATOM     18  C   UNL     1       7.595   0.747  -9.788  0.00  0.00    +0.000 A 
ATOM     19  C   UNL     1       8.329  -0.251  -9.176  0.00  0.00    +0.000 A 
ATOM     20  C   UNL     1       7.682  -1.300  -8.550  0.00  0.00    +0.000 A 
ATOM     21  C   UNL     1       6.300  -1.349  -8.533  0.00  0.00    +0.003 A 
ENDBRANCH  15  16
ENDBRANCH  14  15
ENDBRANCH   8  14
ENDBRANCH   3   5
BRANCH   1  22
ATOM     22  C   UNL     1      -0.046   0.167  -2.292  0.00  0.00    +0.021 C 
BRANCH  22  23
ATOM     23  N   UNL     1       0.675  -0.485  -1.191  0.00  0.00    +0.392 N 
ATOM     24  H   UNL     1       0.204  -0.295  -0.320  0.00  0.00    -0.080 HD
BRANCH  23  25
ATOM     25  C   UNL     1       2.048   0.034  -1.129  0.00  0.00    -0.067 C 
ATOM     26  C   UNL     1       2.510   0.653   0.191  0.00  0.00    -0.017 C 
ATOM     27  C   UNL     1       2.225   1.550  -1.015  0.00  0.00    -0.017 C 
ENDBRANCH  23  25
BRANCH  23  29
ATOM     28  C   UNL     1      -0.717  -2.462  -1.579  0.00  0.00    -0.008 C 
ATOM     29  C   UNL     1       0.711  -1.936  -1.422  0.00  0.00    -0.038 C 
BRANCH  29  30
ATOM     30  C   UNL     1       1.370  -2.615  -0.248  0.00  0.00    -0.043 A 
ATOM     31  C   UNL     1       1.357  -2.012   0.996  0.00  0.00    +0.003 A 
ATOM     32  C   UNL     1       1.961  -2.635   2.072  0.00  0.00    +0.000 A 
ATOM     33  C   UNL     1       2.579  -3.860   1.904  0.00  0.00    +0.001 A 
ATOM     34  C   UNL     1       2.593  -4.463   0.661  0.00  0.00    +0.020 A 
ATOM     35  C   UNL     1       1.983  -3.843  -0.415  0.00  0.00    +0.043 A 
ATOM     36 CL   UNL     1       1.994  -4.604  -1.976  0.00  0.00    -0.083 Cl
ENDBRANCH  29  30
ENDBRANCH  23  29
ENDBRANCH  22  23
ENDBRANCH   1  22
TORSDOF 9
