REMARK  Name = ZINC00425245
REMARK  5 active torsions:
REMARK  status: ('A' for Active; 'I' for Inactive)
REMARK    1  A    between atoms: C_1  and  C_2
REMARK    2  A    between atoms: C_8  and  N_10
REMARK    3  A    between atoms: C_16  and  C_23
REMARK    4  A    between atoms: C_23  and  O_25
REMARK    5  A    between atoms: O_25  and  C_26
REMARK                            x       y       z     vdW  Elec       q    Type
REMARK                         _______ _______ _______ _____ _____    ______ ____
ROOT
ATOM      1  N   UNL     1      -1.372  -0.511   0.012  0.00  0.00    -0.285 N 
ATOM      2  C   UNL     1      -1.832  -1.201  -1.054  0.00  0.00    +0.263 A 
ATOM      3  O   UNL     1      -1.121  -1.405  -2.018  0.00  0.00    -0.267 OA
ATOM      4  C   UNL     1      -3.221  -1.702  -1.018  0.00  0.00    +0.063 A 
ATOM      5  C   UNL     1      -3.764  -2.422  -2.079  0.00  0.00    +0.016 A 
ATOM      6  C   UNL     1      -5.064  -2.871  -2.005  0.00  0.00    +0.016 A 
ATOM      7  C   UNL     1      -5.838  -2.608  -0.870  0.00  0.00    +0.061 A 
ATOM      8  C   UNL     1      -5.300  -1.888   0.195  0.00  0.00    +0.041 A 
ATOM      9  C   UNL     1      -3.993  -1.434   0.126  0.00  0.00    +0.054 A 
ATOM     10  N   UNL     1      -3.420  -0.714   1.165  0.00  0.00    -0.335 N 
ATOM     11  H   UNL     1      -3.959  -0.512   1.983  0.00  0.00    +0.168 HD
ATOM     12  C   UNL     1      -2.149  -0.286   1.083  0.00  0.00    +0.161 A 
ATOM     13  S   UNL     1      -1.494   0.591   2.400  0.00  0.00    -0.013 S 
ENDROOT
BRANCH   1  20
ATOM     14  C   UNL     1      -0.790   2.123  -1.042  0.00  0.00    +0.009 C 
ATOM     15  C   UNL     1       0.184   0.952  -1.179  0.00  0.00    +0.009 C 
ATOM     16  C   UNL     1       1.620   1.481  -1.190  0.00  0.00    +0.005 C 
ATOM     17  C   UNL     1       2.594   0.310  -1.327  0.00  0.00    +0.000 C 
ATOM     18  C   UNL     1       2.412  -0.646  -0.145  0.00  0.00    +0.002 C 
ATOM     19  C   UNL     1       0.977  -1.175  -0.135  0.00  0.00    +0.025 C 
ATOM     20  C   UNL     1       0.002  -0.004   0.002  0.00  0.00    +0.095 C 
ENDBRANCH   1  20
BRANCH   7  21
ATOM     21  C   UNL     1      -7.233  -3.095  -0.801  0.00  0.00    +0.339 C 
ATOM     22  O   UNL     1      -7.907  -2.868   0.183  0.00  0.00    -0.245 OA
BRANCH  21  23
ATOM     23  O   UNL     1      -7.755  -3.791  -1.829  0.00  0.00    -0.464 OA
ATOM     24  C   UNL     1      -9.130  -4.237  -1.692  0.00  0.00    +0.280 C 
ENDBRANCH  21  23
ENDBRANCH   7  21
TORSDOF 3
