REMARK  Name = ZINC08849227
REMARK  7 active torsions:
REMARK  status: ('A' for Active; 'I' for Inactive)
REMARK    1  A    between atoms: C_1  and  C_2
REMARK    2  A    between atoms: C_2  and  C_3
REMARK    3  A    between atoms: C_3  and  C_29
REMARK    4  A    between atoms: N_6  and  N_10
REMARK    5  A    between atoms: C_11  and  C_13
REMARK    6  A    between atoms: C_13  and  N_53
REMARK    7  A    between atoms: C_21  and  C_23
REMARK                            x       y       z     vdW  Elec       q    Type
REMARK                         _______ _______ _______ _____ _____    ______ ____
ROOT
ATOM      1  C   UNL     1       0.213  -3.945  -4.464  0.00  0.00    +0.021 C 
ENDROOT
BRANCH   1  10
ATOM      2  C   UNL     1      -0.919  -5.951  -3.716  0.00  0.00    -0.072 C 
ATOM      3  C   UNL     1      -0.632  -7.333  -3.106  0.00  0.00    +0.024 C 
ATOM      4  C   UNL     1       0.221  -8.089  -4.072  0.00  0.00    -0.010 A 
ATOM      5  C   UNL     1       0.887  -7.575  -5.144  0.00  0.00    -0.047 A 
ATOM      6  C   UNL     1       1.623  -8.476  -5.909  0.00  0.00    +0.010 A 
ATOM      7  C   UNL     1       1.650  -9.787  -5.572  0.00  0.00    +0.045 A 
ATOM      8  S   UNL     1       0.610  -9.815  -4.119  0.00  0.00    -0.101 S 
ATOM      9  C   UNL     1       0.799  -6.081  -5.440  0.00  0.00    -0.005 C 
ATOM     10  N   UNL     1       0.364  -5.389  -4.203  0.00  0.00    +0.393 N 
ATOM     11  H   UNL     1       1.080  -5.524  -3.480  0.00  0.00    -0.080 HD
BRANCH   9  12
ATOM     12  C   UNL     1       2.158  -5.562  -5.834  0.00  0.00    -0.057 A 
ATOM     13  C   UNL     1       3.101  -5.288  -4.862  0.00  0.00    +0.002 A 
ATOM     14  C   UNL     1       4.349  -4.816  -5.224  0.00  0.00    +0.000 A 
ATOM     15  C   UNL     1       4.650  -4.609  -6.557  0.00  0.00    +0.000 A 
ATOM     16  C   UNL     1       3.704  -4.878  -7.529  0.00  0.00    +0.000 A 
ATOM     17  C   UNL     1       2.458  -5.354  -7.167  0.00  0.00    +0.002 A 
ENDBRANCH   9  12
ENDBRANCH   1  10
BRANCH   1  19
ATOM     18  N   UNL     1      -0.125  -1.897  -3.117  0.00  0.00    -0.225 N 
ATOM     19  C   UNL     1       0.015  -3.237  -3.148  0.00  0.00    +0.213 C 
ATOM     20  O   UNL     1      -0.018  -3.874  -2.116  0.00  0.00    -0.276 OA
ATOM     21  H   UNL     1      -0.099  -1.388  -3.943  0.00  0.00    +0.173 HD
BRANCH  18  25
ATOM     22  C   UNL     1       0.002  -0.004   0.002  0.00  0.00    +0.111 C 
ATOM     23  C   UNL     1       0.645  -0.522  -1.269  0.00  0.00    +0.263 C 
ATOM     24  O   UNL     1       1.782  -0.330  -1.645  0.00  0.00    -0.271 OA
ATOM     25  N   UNL     1      -0.309  -1.240  -1.894  0.00  0.00    -0.137 N 
ATOM     26  C   UNL     1      -1.454  -1.247  -1.202  0.00  0.00    +0.326 C 
ATOM     27  O   UNL     1      -2.458  -1.828  -1.563  0.00  0.00    -0.251 OA
ATOM     28  N   UNL     1      -1.369  -0.541  -0.056  0.00  0.00    -0.284 N 
ATOM     29  C   UNL     1      -0.019   1.526   0.010  0.00  0.00    +0.041 C 
ATOM     30  H   UNL     1      -2.070  -0.410   0.601  0.00  0.00    +0.151 HD
BRANCH  22  32
ATOM     31  C   UNL     1      -0.033  -0.148   2.496  0.00  0.00    +0.006 C 
ATOM     32  C   UNL     1       0.738  -0.538   1.233  0.00  0.00    +0.032 C 
ENDBRANCH  22  32
ENDBRANCH  18  25
ENDBRANCH   1  19
TORSDOF 5
