REMARK  Name = ZINC20699587
REMARK  4 active torsions:
REMARK  status: ('A' for Active; 'I' for Inactive)
REMARK    1  A    between atoms: C_4  and  C_7
REMARK    2  A    between atoms: C_7  and  N_8
REMARK    3  A    between atoms: C_9  and  C_11
REMARK    4  A    between atoms: C_18  and  C_27
REMARK                            x       y       z     vdW  Elec       q    Type
REMARK                         _______ _______ _______ _____ _____    ______ ____
ROOT
ATOM      1  C   UNL     1      -2.127   5.457  -1.414  0.00  0.00    +0.058 A 
ATOM      2  C   UNL     1      -2.998   6.523  -1.196  0.00  0.00    +0.015 A 
ATOM      3  C   UNL     1      -3.895   6.479  -0.151  0.00  0.00    +0.001 A 
ATOM      4  C   UNL     1      -3.934   5.370   0.678  0.00  0.00    +0.006 A 
ATOM      5  C   UNL     1      -3.085   4.305   0.474  0.00  0.00    -0.019 A 
ATOM      6  C   UNL     1      -2.155   4.327  -0.570  0.00  0.00    +0.044 A 
ATOM      7  N   UNL     1      -1.239   3.319  -0.819  0.00  0.00    -0.336 N 
ATOM      8  C   UNL     1      -1.332   2.114   0.020  0.00  0.00    +0.105 C 
ATOM      9  C   UNL     1      -1.655   2.574   1.426  0.00  0.00    +0.029 C 
ATOM     10  C   UNL     1      -3.120   3.105   1.339  0.00  0.00    +0.049 C 
ATOM     11  C   UNL     1      -3.545   3.153   2.759  0.00  0.00    -0.023 C 
ATOM     12  C   UNL     1      -2.872   2.227   3.433  0.00  0.00    -0.030 C 
ATOM     13  C   UNL     1      -1.900   1.504   2.496  0.00  0.00    +0.033 C 
ATOM     14  H   UNL     1      -0.468   3.387  -1.600  0.00  0.00    +0.147 HD
ENDROOT
BRANCH   8  15
ATOM     15  C   UNL     1      -0.017   1.378   0.010  0.00  0.00    -0.027 A 
ATOM     16  C   UNL     1       1.171   2.086   0.002  0.00  0.00    +0.007 A 
ATOM     17  C   UNL     1       2.377   1.412  -0.013  0.00  0.00    +0.020 A 
ATOM     18  C   UNL     1       2.397   0.029  -0.021  0.00  0.00    +0.041 A 
ATOM     19  C   UNL     1       1.208  -0.679  -0.013  0.00  0.00    +0.020 A 
ATOM     20  C   UNL     1       0.002  -0.004   0.002  0.00  0.00    +0.007 A 
ATOM     21 CL   UNL     1       3.912  -0.818  -0.040  0.00  0.00    -0.084 Cl
ENDBRANCH   8  15
BRANCH   1  23
ATOM     22  N   UNL     1      -1.139   6.589  -3.343  0.00  0.00    -0.307 N 
ATOM     23  C   UNL     1      -1.170   5.511  -2.534  0.00  0.00    +0.246 C 
ATOM     24  O   UNL     1      -0.408   4.583  -2.728  0.00  0.00    -0.270 OA
ATOM     25  H   UNL     1      -1.828   7.428  -3.167  0.00  0.00    +0.149 HD
BRANCH  22  26
ATOM     26  C   UNL     1      -0.188   6.642  -4.455  0.00  0.00    +0.139 C 
BRANCH  26  30
ATOM     27  C   UNL     1      -0.666  10.328  -6.562  0.00  0.00    +0.000 A 
ATOM     28  C   UNL     1       0.221  10.246  -5.504  0.00  0.00    +0.000 A 
ATOM     29  C   UNL     1       0.375   9.053  -4.823  0.00  0.00    +0.005 A 
ATOM     30  C   UNL     1      -0.357   7.942  -5.198  0.00  0.00    -0.030 A 
ATOM     31  C   UNL     1      -1.239   8.023  -6.259  0.00  0.00    +0.005 A 
ATOM     32  C   UNL     1      -1.398   9.217  -6.938  0.00  0.00    +0.000 A 
ENDBRANCH  26  30
ENDBRANCH  22  26
ENDBRANCH   1  23
TORSDOF 4
