REMARK  Name = ZINC05704386
REMARK  5 active torsions:
REMARK  status: ('A' for Active; 'I' for Inactive)
REMARK    1  A    between atoms: C_1  and  O_2
REMARK    2  A    between atoms: O_2  and  C_3
REMARK    3  A    between atoms: C_8  and  C_9
REMARK    4  A    between atoms: C_12  and  O_26
REMARK    5  A    between atoms: N_14  and  C_21
REMARK                            x       y       z     vdW  Elec       q    Type
REMARK                         _______ _______ _______ _____ _____    ______ ____
ROOT
ATOM      1  C   UNL     1       0.051  -2.828  -0.033  0.00  0.00    +0.119 C 
ATOM      2  C   UNL     1       1.034  -2.942   1.089  0.00  0.00    +0.072 A 
ATOM      3  C   UNL     1       2.040  -1.971   1.306  0.00  0.00    +0.238 A 
ATOM      4  N   UNL     1       2.748  -2.327   2.343  0.00  0.00    -0.131 NA
ATOM      5  N   UNL     1       2.232  -3.527   2.830  0.00  0.00    -0.244 N 
ATOM      6  C   UNL     1       1.167  -3.892   2.040  0.00  0.00    +0.132 A 
ATOM      7  N   UNL     1       0.456  -5.040   2.294  0.00  0.00    -0.270 N 
ATOM      8  C   UNL     1      -0.534  -5.654   1.718  0.00  0.00    +0.228 C 
ATOM      9  O   UNL     1      -0.819  -6.728   2.203  0.00  0.00    -0.275 OA
ATOM     10  C   UNL     1      -1.367  -5.250   0.566  0.00  0.00    +0.166 C 
ATOM     11  S   UNL     1      -0.425  -4.417  -0.720  0.00  0.00    -0.138 S 
ATOM     12  H   UNL     1       0.765  -5.501   3.090  0.00  0.00    +0.156 HD
ENDROOT
BRANCH   1  18
ATOM     13  C   UNL     1       0.606  -0.607  -1.056  0.00  0.00    +0.125 A 
ATOM     14  C   UNL     1       1.173   0.161  -2.063  0.00  0.00    +0.046 A 
ATOM     15  C   UNL     1       1.786  -0.455  -3.136  0.00  0.00    +0.004 A 
ATOM     16  C   UNL     1       1.836  -1.835  -3.208  0.00  0.00    +0.001 A 
ATOM     17  C   UNL     1       1.271  -2.602  -2.207  0.00  0.00    +0.008 A 
ATOM     18  C   UNL     1       0.661  -1.991  -1.128  0.00  0.00    +0.012 A 
BRANCH  13  20
ATOM     19  C   UNL     1      -0.017   1.425   0.010  0.00  0.00    +0.277 C 
ATOM     20  O   UNL     1       0.002  -0.004   0.002  0.00  0.00    -0.495 OA
ENDBRANCH  13  20
ENDBRANCH   1  18
BRANCH   5  21
ATOM     21  C   UNL     1       2.738  -4.273   3.985  0.00  0.00    +0.109 C 
ATOM     22  C   UNL     1       4.228  -4.614   3.782  0.00  0.00    +0.027 C 
ATOM     23  C   UNL     1       4.982  -3.483   4.524  0.00  0.00    +0.002 C 
ATOM     24  C   UNL     1       4.098  -3.246   5.773  0.00  0.00    +0.002 C 
ATOM     25  C   UNL     1       2.655  -3.402   5.251  0.00  0.00    +0.027 C 
ENDBRANCH   5  21
BRANCH   3  26
ATOM     26  O   UNL     1       2.237  -0.853   0.558  0.00  0.00    -0.491 OA
ATOM     27  H   UNL     1       1.746  -0.080   0.869  0.00  0.00    +0.294 HD
ENDBRANCH   3  26
TORSDOF 4
