REMARK  Name = ZINC20715182
REMARK  7 active torsions:
REMARK  status: ('A' for Active; 'I' for Inactive)
REMARK    1  A    between atoms: C_1  and  O_2
REMARK    2  A    between atoms: O_2  and  C_3
REMARK    3  A    between atoms: C_6  and  C_11
REMARK    4  A    between atoms: C_8  and  O_9
REMARK    5  A    between atoms: O_9  and  C_10
REMARK    6  A    between atoms: C_21  and  N_28
REMARK    7  A    between atoms: C_24  and  O_27
REMARK                            x       y       z     vdW  Elec       q    Type
REMARK                         _______ _______ _______ _____ _____    ______ ____
ROOT
ATOM      1  C   UNL     1       4.918   0.483   0.508  0.00  0.00    +0.105 C 
ATOM      2  C   UNL     1       5.282   0.411  -0.961  0.00  0.00    +0.029 C 
ATOM      3  C   UNL     1       4.467  -0.527  -1.859  0.00  0.00    +0.033 C 
ATOM      4  C   UNL     1       5.502  -0.907  -2.921  0.00  0.00    -0.030 C 
ATOM      5  C   UNL     1       6.727  -0.805  -2.417  0.00  0.00    -0.023 C 
ATOM      6  C   UNL     1       6.619  -0.394  -0.995  0.00  0.00    +0.051 C 
ATOM      7  C   UNL     1       7.638   0.445  -0.328  0.00  0.00    +0.014 A 
ATOM      8  C   UNL     1       8.962   0.427  -0.719  0.00  0.00    +0.132 A 
ATOM      9  C   UNL     1       9.898   1.208  -0.070  0.00  0.00    +0.037 A 
ATOM     10  C   UNL     1       9.504   2.015   0.983  0.00  0.00    +0.049 A 
ATOM     11  C   UNL     1       8.181   2.045   1.378  0.00  0.00    +0.138 A 
ATOM     12  C   UNL     1       7.221   1.263   0.723  0.00  0.00    +0.076 A 
ATOM     13  N   UNL     1       5.898   1.371   1.153  0.00  0.00    -0.334 N 
ATOM     14  H   UNL     1       5.572   2.075   1.933  0.00  0.00    +0.147 HD
ENDROOT
BRANCH   1  18
ATOM     15  C   UNL     1       0.981   2.094   0.947  0.00  0.00    +0.162 A 
ATOM     16  C   UNL     1       2.058   2.938   0.732  0.00  0.00    +0.050 A 
ATOM     17  C   UNL     1       3.329   2.415   0.588  0.00  0.00    +0.009 A 
ATOM     18  C   UNL     1       3.530   1.049   0.665  0.00  0.00    -0.023 A 
ATOM     19  C   UNL     1       2.460   0.201   0.886  0.00  0.00    +0.055 A 
ATOM     20  C   UNL     1       1.183   0.720   1.030  0.00  0.00    +0.162 A 
BRANCH  15  22
ATOM     21  C   UNL     1      -0.405   4.027   0.986  0.00  0.00    +0.277 C 
ATOM     22  O   UNL     1      -0.272   2.607   1.083  0.00  0.00    -0.491 OA
ENDBRANCH  15  22
BRANCH  20  23
ATOM     23  O   UNL     1       0.130  -0.113   1.247  0.00  0.00    -0.491 OA
ATOM     24  C   UNL     1       0.413  -1.512   1.315  0.00  0.00    +0.277 C 
ENDBRANCH  20  23
ENDBRANCH   1  18
BRANCH   8  25
ATOM     25  N   UNL     1       9.382  -0.438  -1.844  0.00  0.00    +0.057 N 
ATOM     26  O   UNL     1       9.081  -1.618  -1.851  0.00  0.00    -0.126 OA
ATOM     27  O   UNL     1      10.030   0.030  -2.763  0.00  0.00    -0.126 OA
ENDBRANCH   8  25
BRANCH  11  28
ATOM     28  O   UNL     1       7.806   2.842   2.414  0.00  0.00    -0.505 OA
ATOM     29  H   UNL     1       6.754   2.870   2.734  0.00  0.00    +0.292 HD
ENDBRANCH  11  28
TORSDOF 5
