REMARK  Name = ZINC63796031
REMARK  9 active torsions:
REMARK  status: ('A' for Active; 'I' for Inactive)
REMARK    1  A    between atoms: C_7  and  C_10
REMARK    2  A    between atoms: C_10  and  C_11
REMARK    3  A    between atoms: C_11  and  N_12
REMARK    4  A    between atoms: C_13  and  C_15
REMARK    5  A    between atoms: C_15  and  C_16
REMARK    6  A    between atoms: C_16  and  C_17
REMARK    7  A    between atoms: C_17  and  C_18
REMARK    8  A    between atoms: C_18  and  C_19
REMARK    9  A    between atoms: C_19  and  N_20
REMARK                            x       y       z     vdW  Elec       q    Type
REMARK                         _______ _______ _______ _____ _____    ______ ____
ROOT
ATOM      1  C   UNL     1      -1.752  -6.557  -2.622  0.00  0.00    +0.096 C 
ENDROOT
BRANCH   1   3
ATOM      2  N   UNL     1      -0.458  -4.798  -1.460  0.00  0.00    -0.315 N 
ATOM      3  C   UNL     1      -0.811  -5.380  -2.623  0.00  0.00    +0.213 C 
ATOM      4  O   UNL     1      -0.371  -4.957  -3.671  0.00  0.00    -0.276 OA
ATOM      5  H   UNL     1      -0.810  -5.136  -0.622  0.00  0.00    +0.149 HD
BRANCH   2   6
ATOM      6  C   UNL     1       0.457  -3.653  -1.462  0.00  0.00    +0.108 C 
BRANCH   6   7
ATOM      7  C   UNL     1       0.691  -3.186  -0.024  0.00  0.00    +0.052 C 
BRANCH   7  14
ATOM      8  C   UNL     1      -0.016   1.348   0.009  0.00  0.00    +0.001 A 
ATOM      9  C   UNL     1       1.166   2.101   0.002  0.00  0.00    +0.002 A 
ATOM     10  C   UNL     1       2.391   1.535  -0.013  0.00  0.00    +0.026 A 
ATOM     11  C   UNL     1       2.529   0.120  -0.022  0.00  0.00    +0.043 A 
ATOM     12  N   UNL     1       3.587  -0.654  -0.037  0.00  0.00    -0.380 N 
ATOM     13  C   UNL     1       3.143  -2.053  -0.041  0.00  0.00    +0.144 C 
ATOM     14  C   UNL     1       1.631  -2.008  -0.025  0.00  0.00    -0.040 C 
ATOM     15  C   UNL     1       1.295  -0.698  -0.014  0.00  0.00    -0.001 A 
ATOM     16  C   UNL     1       0.002  -0.004   0.002  0.00  0.00    +0.010 A 
ATOM     17  H   UNL     1       4.509  -0.353  -0.045  0.00  0.00    +0.160 HD
ENDBRANCH   7  14
ENDBRANCH   6   7
ENDBRANCH   2   6
ENDBRANCH   1   3
BRANCH   1  18
ATOM     18  C   UNL     1      -1.986  -7.025  -4.059  0.00  0.00    +0.009 C 
BRANCH  18  19
ATOM     19  C   UNL     1      -2.941  -8.220  -4.058  0.00  0.00    +0.002 C 
BRANCH  19  20
ATOM     20  C   UNL     1      -3.175  -8.688  -5.496  0.00  0.00    +0.021 C 
BRANCH  20  21
ATOM     21  C   UNL     1      -4.130  -9.883  -5.494  0.00  0.00    +0.129 C 
BRANCH  21  22
ATOM     22  N   UNL     1      -4.355 -10.331  -6.871  0.00  0.00    -0.217 N 
ATOM     23  C   UNL     1      -3.538 -11.272  -7.398  0.00  0.00    +0.263 C 
ATOM     24  O   UNL     1      -2.687 -11.818  -6.723  0.00  0.00    -0.269 OA
ATOM     25  C   UNL     1      -3.719 -11.612  -8.823  0.00  0.00    +0.060 A 
ATOM     26  C   UNL     1      -3.124 -12.716  -9.419  0.00  0.00    +0.015 A 
ATOM     27  C   UNL     1      -3.343 -12.960 -10.760  0.00  0.00    +0.001 A 
ATOM     28  C   UNL     1      -4.148 -12.115 -11.508  0.00  0.00    +0.002 A 
ATOM     29  C   UNL     1      -4.748 -11.013 -10.925  0.00  0.00    +0.025 A 
ATOM     30  C   UNL     1      -4.540 -10.755  -9.584  0.00  0.00    +0.055 A 
ATOM     31  N   UNL     1      -5.111  -9.676  -8.922  0.00  0.00    -0.264 N 
ATOM     32  N   UNL     1      -5.382  -9.794  -7.583  0.00  0.00    -0.158 NA
ATOM     33  H   UNL     1      -5.317  -8.856  -9.398  0.00  0.00    +0.168 HD
ATOM     34  H   UNL     1      -6.237 -10.306  -7.427  0.00  0.00    +0.168 HD
ENDBRANCH  21  22
ENDBRANCH  20  21
ENDBRANCH  19  20
ENDBRANCH  18  19
ENDBRANCH   1  18
TORSDOF 9
