REMARK  Name = ZINC44681606
REMARK  14 active torsions:
REMARK  status: ('A' for Active; 'I' for Inactive)
REMARK    1  A    between atoms: C_1  and  C_2
REMARK    2  A    between atoms: C_7  and  N_10
REMARK    3  A    between atoms: N_10  and  C_11
REMARK    4  A    between atoms: C_14  and  C_33
REMARK    5  A    between atoms: C_14  and  C_34
REMARK    6  A    between atoms: C_17  and  C_24
REMARK    7  A    between atoms: C_20  and  C_22
REMARK    8  A    between atoms: C_20  and  O_23
REMARK    9  A    between atoms: C_24  and  C_25
REMARK   10  A    between atoms: C_25  and  C_26
REMARK   11  A    between atoms: N_28  and  C_29
REMARK   12  A    between atoms: C_29  and  C_30
REMARK   13  A    between atoms: C_30  and  O_31
REMARK   14  A    between atoms: O_31  and  C_32
REMARK                            x       y       z     vdW  Elec       q    Type
REMARK                         _______ _______ _______ _____ _____    ______ ____
ROOT
ATOM      1  C   UNL     1      -2.297  -4.441  -3.843  0.00  0.00    -0.064 C 
ATOM      2  C   UNL     1      -2.427  -5.009  -2.408  0.00  0.00    -0.009 C 
ATOM      3  C   UNL     1      -3.734  -5.848  -2.385  0.00  0.00    -0.033 C 
ATOM      4  C   UNL     1      -4.554  -5.236  -3.527  0.00  0.00    +0.002 C 
ATOM      5  C   UNL     1      -3.467  -5.034  -4.621  0.00  0.00    -0.038 C 
ATOM      6  C   UNL     1      -4.071  -4.162  -5.705  0.00  0.00    +0.008 C 
ATOM      7  C   UNL     1      -5.226  -4.956  -6.338  0.00  0.00    +0.035 C 
ATOM      8  C   UNL     1      -6.264  -5.358  -5.295  0.00  0.00    +0.064 C 
ATOM      9  C   UNL     1      -5.637  -6.124  -4.111  0.00  0.00    +0.039 C 
ATOM     10  C   UNL     1      -7.324  -6.241  -5.958  0.00  0.00    +0.041 C 
ATOM     11  C   UNL     1      -4.460  -5.683  -1.049  0.00  0.00    +0.011 C 
ATOM     12  C   UNL     1      -3.436  -7.322  -2.663  0.00  0.00    +0.011 C 
ENDROOT
BRANCH   1  13
ATOM     13  N   UNL     1      -2.390  -2.975  -3.821  0.00  0.00    +0.383 N 
ATOM     14  H   UNL     1      -3.196  -2.698  -3.281  0.00  0.00    -0.085 HD
ATOM     15  H   UNL     1      -2.482  -2.630  -4.765  0.00  0.00    -0.085 HD
BRANCH  13  22
ATOM     16  C   UNL     1       1.923   1.554  -3.329  0.00  0.00    +0.109 C 
ATOM     17  C   UNL     1       2.049   0.088  -3.658  0.00  0.00    +0.212 C 
ATOM     18  O   UNL     1       2.971  -0.303  -4.341  0.00  0.00    -0.276 OA
ATOM     19  N   UNL     1       1.136  -0.788  -3.193  0.00  0.00    -0.302 N 
ATOM     20  C   UNL     1       1.307  -2.231  -3.407  0.00  0.00    +0.106 C 
ATOM     21  C   UNL     1       0.040  -2.786  -4.064  0.00  0.00    +0.003 C 
ATOM     22  C   UNL     1      -1.176  -2.417  -3.211  0.00  0.00    -0.069 C 
ATOM     23  C   UNL     1      -1.301  -0.893  -3.130  0.00  0.00    +0.003 C 
ATOM     24  C   UNL     1      -0.046  -0.318  -2.457  0.00  0.00    +0.106 C 
ENDBRANCH  13  22
ENDBRANCH   1  13
BRANCH   8  25
ATOM     25  O   UNL     1      -6.893  -4.181  -4.784  0.00  0.00    -0.389 OA
ATOM     26  H   UNL     1      -7.347  -3.654  -5.456  0.00  0.00    +0.210 HD
ENDBRANCH   8  25
BRANCH   5  27
ATOM     27  C   UNL     1      -3.066  -6.388  -5.209  0.00  0.00    +0.015 C 
BRANCH  27  28
ATOM     28  C   UNL     1      -1.990  -6.181  -6.277  0.00  0.00    +0.096 C 
BRANCH  28  29
ATOM     29  C   UNL     1      -1.594  -7.515  -6.856  0.00  0.00    +0.213 C 
ATOM     30  O   UNL     1      -2.120  -8.531  -6.454  0.00  0.00    -0.276 OA
ATOM     31  N   UNL     1      -0.655  -7.579  -7.821  0.00  0.00    -0.313 N 
ATOM     32  H   UNL     1      -0.234  -6.766  -8.143  0.00  0.00    +0.149 HD
BRANCH  31  33
ATOM     33  C   UNL     1      -0.270  -8.875  -8.384  0.00  0.00    +0.132 C 
BRANCH  33  34
ATOM     34  C   UNL     1       0.805  -8.668  -9.452  0.00  0.00    +0.178 C 
BRANCH  34  35
ATOM     35  O   UNL     1       1.991  -8.155  -8.841  0.00  0.00    -0.381 OA
ATOM     36  C   UNL     1       3.063  -7.925  -9.757  0.00  0.00    +0.194 C 
ENDBRANCH  34  35
ENDBRANCH  33  34
ENDBRANCH  31  33
ENDBRANCH  28  29
ENDBRANCH  27  28
ENDBRANCH   5  27
TORSDOF 9
