REMARK  Name = ZINC10188796
REMARK  7 active torsions:
REMARK  status: ('A' for Active; 'I' for Inactive)
REMARK    1  A    between atoms: C_1  and  C_2
REMARK    2  A    between atoms: C_2  and  C_29
REMARK    3  A    between atoms: N_5  and  N_9
REMARK    4  A    between atoms: C_10  and  C_12
REMARK    5  A    between atoms: C_12  and  S_13
REMARK    6  A    between atoms: S_13  and  C_14
REMARK    7  A    between atoms: N_22  and  C_23
REMARK                            x       y       z     vdW  Elec       q    Type
REMARK                         _______ _______ _______ _____ _____    ______ ____
ROOT
ATOM      1  N   UNL     1       1.700   3.228   0.002  0.00  0.00    -0.223 N 
ATOM      2  C   UNL     1       2.204   3.773   1.127  0.00  0.00    +0.240 C 
ATOM      3  O   UNL     1       2.287   3.108   2.138  0.00  0.00    -0.273 OA
ATOM      4  H   UNL     1       1.633   3.760  -0.806  0.00  0.00    +0.174 HD
ENDROOT
BRANCH   1   9
ATOM      5  C   UNL     1      -0.666  -0.558   1.262  0.00  0.00    +0.047 C 
ATOM      6  C   UNL     1       0.002  -0.004   0.002  0.00  0.00    +0.137 C 
ATOM      7  C   UNL     1      -0.018   1.512   0.010  0.00  0.00    +0.267 C 
ATOM      8  O   UNL     1      -0.995   2.231   0.019  0.00  0.00    -0.271 OA
ATOM      9  N   UNL     1       1.274   1.894   0.000  0.00  0.00    -0.137 N 
ATOM     10  C   UNL     1       2.099   0.841  -0.013  0.00  0.00    +0.327 C 
ATOM     11  O   UNL     1       3.311   0.933  -0.025  0.00  0.00    -0.251 OA
ATOM     12  N   UNL     1       1.438  -0.331  -0.013  0.00  0.00    -0.280 N 
ATOM     13  H   UNL     1       1.831  -1.218  -0.022  0.00  0.00    +0.152 HD
BRANCH   6  14
ATOM     14  C   UNL     1      -0.676  -0.537  -1.234  0.00  0.00    -0.015 A 
ATOM     15  C   UNL     1      -1.704   0.177  -1.820  0.00  0.00    +0.006 A 
ATOM     16  C   UNL     1      -2.323  -0.309  -2.956  0.00  0.00    +0.000 A 
ATOM     17  C   UNL     1      -1.921  -1.514  -3.501  0.00  0.00    +0.000 A 
ATOM     18  C   UNL     1      -0.896  -2.231  -2.911  0.00  0.00    +0.000 A 
ATOM     19  C   UNL     1      -0.274  -1.742  -1.778  0.00  0.00    +0.006 A 
ENDBRANCH   6  14
ENDBRANCH   1   9
BRANCH   2  20
ATOM     20  C   UNL     1       2.662   5.208   1.130  0.00  0.00    +0.174 C 
BRANCH  20  21
ATOM     21  S   UNL     1       3.282   5.641   2.775  0.00  0.00    -0.078 S 
BRANCH  21  22
ATOM     22  C   UNL     1       3.736   7.321   2.498  0.00  0.00    +0.175 A 
ATOM     23  N   UNL     1       3.612   7.957   1.359  0.00  0.00    -0.222 NA
ATOM     24  C   UNL     1       4.054   9.235   1.498  0.00  0.00    +0.091 A 
ATOM     25  C   UNL     1       4.144  10.320   0.622  0.00  0.00    +0.030 A 
ATOM     26  C   UNL     1       4.656  11.518   1.067  0.00  0.00    +0.002 A 
ATOM     27  C   UNL     1       5.084  11.656   2.379  0.00  0.00    +0.002 A 
ATOM     28  C   UNL     1       5.003  10.595   3.257  0.00  0.00    +0.028 A 
ATOM     29  C   UNL     1       4.489   9.381   2.826  0.00  0.00    +0.074 A 
ATOM     30  N   UNL     1       4.278   8.155   3.439  0.00  0.00    -0.287 N 
BRANCH  30  31
ATOM     31  C   UNL     1       4.564   7.831   4.771  0.00  0.00    +0.049 A 
ATOM     32  C   UNL     1       3.884   8.464   5.803  0.00  0.00    +0.026 A 
ATOM     33  C   UNL     1       4.164   8.138   7.115  0.00  0.00    +0.002 A 
ATOM     34  C   UNL     1       5.130   7.191   7.403  0.00  0.00    +0.000 A 
ATOM     35  C   UNL     1       5.813   6.563   6.378  0.00  0.00    +0.002 A 
ATOM     36  C   UNL     1       5.533   6.880   5.064  0.00  0.00    +0.026 A 
ENDBRANCH  30  31
ENDBRANCH  21  22
ENDBRANCH  20  21
ENDBRANCH   2  20
TORSDOF 6
