REMARK  Name = ZINC00987175
REMARK  13 active torsions:
REMARK  status: ('A' for Active; 'I' for Inactive)
REMARK    1  A    between atoms: C_1  and  C_2
REMARK    2  A    between atoms: C_2  and  C_3
REMARK    3  A    between atoms: C_2  and  C_4
REMARK    4  A    between atoms: C_2  and  C_5
REMARK    5  A    between atoms: C_7  and  C_16
REMARK    6  A    between atoms: C_9  and  C_12
REMARK    7  A    between atoms: C_10  and  O_11
REMARK    8  A    between atoms: C_12  and  C_13
REMARK    9  A    between atoms: C_12  and  C_14
REMARK   10  A    between atoms: C_12  and  C_15
REMARK   11  A    between atoms: C_19  and  C_30
REMARK   12  A    between atoms: C_25  and  N_29
REMARK   13  A    between atoms: C_26  and  C_27
REMARK                            x       y       z     vdW  Elec       q    Type
REMARK                         _______ _______ _______ _____ _____    ______ ____
ROOT
ATOM      1  C   UNL     1       2.418   0.968  -4.270  0.00  0.00    +0.102 C 
ATOM      2  C   UNL     1       3.904   0.766  -4.415  0.00  0.00    +0.055 A 
ATOM      3  C   UNL     1       4.931   1.074  -3.515  0.00  0.00    +0.107 A 
ATOM      4  N   UNL     1       6.077   0.719  -4.070  0.00  0.00    -0.170 NA
ATOM      5  N   UNL     1       5.804   0.178  -5.336  0.00  0.00    -0.246 N 
ATOM      6  H   UNL     1       6.461  -0.164  -5.963  0.00  0.00    +0.192 HD
ATOM      7  C   UNL     1       4.469   0.217  -5.529  0.00  0.00    +0.223 A 
ATOM      8  O   UNL     1       3.738  -0.190  -6.596  0.00  0.00    -0.423 OA
ATOM      9  C   UNL     1       2.450   0.207  -6.659  0.00  0.00    +0.200 C 
ATOM     10  C   UNL     1       1.780   0.754  -5.620  0.00  0.00    +0.098 C 
ENDROOT
BRANCH   1  13
ATOM     11  C   UNL     1       0.707  -0.490  -1.238  0.00  0.00    -0.000 A 
ATOM     12  C   UNL     1       1.217   0.419  -2.145  0.00  0.00    +0.012 A 
ATOM     13  C   UNL     1       1.864  -0.026  -3.283  0.00  0.00    -0.034 A 
ATOM     14  C   UNL     1       2.003  -1.382  -3.516  0.00  0.00    +0.012 A 
ATOM     15  C   UNL     1       1.496  -2.295  -2.612  0.00  0.00    -0.000 A 
ATOM     16  C   UNL     1       0.851  -1.851  -1.467  0.00  0.00    +0.124 A 
BRANCH  11  18
ATOM     17  C   UNL     1      -0.019   1.526   0.010  0.00  0.00    +0.015 C 
ATOM     18  C   UNL     1       0.002  -0.004   0.002  0.00  0.00    -0.009 C 
ATOM     19  C   UNL     1       0.742  -0.511   1.242  0.00  0.00    +0.015 C 
ATOM     20  C   UNL     1      -1.433  -0.534   0.013  0.00  0.00    +0.015 C 
ENDBRANCH  11  18
BRANCH  15  21
ATOM     21  C   UNL     1       1.648  -3.773  -2.867  0.00  0.00    -0.009 C 
ATOM     22  C   UNL     1       2.396  -3.989  -4.184  0.00  0.00    +0.015 C 
ATOM     23  C   UNL     1       2.438  -4.409  -1.722  0.00  0.00    +0.015 C 
ATOM     24  C   UNL     1       0.264  -4.420  -2.953  0.00  0.00    +0.015 C 
ENDBRANCH  15  21
BRANCH  16  25
ATOM     25  O   UNL     1       0.356  -2.747  -0.573  0.00  0.00    -0.506 OA
ATOM     26  H   UNL     1      -0.556  -3.015  -0.749  0.00  0.00    +0.292 HD
ENDBRANCH  16  25
ENDBRANCH   1  13
BRANCH   3  27
ATOM     27  C   UNL     1       4.764   1.688  -2.180  0.00  0.00    +0.040 A 
ATOM     28  C   UNL     1       5.481   1.469  -1.034  0.00  0.00    +0.018 A 
ATOM     29  C   UNL     1       5.138   2.165   0.105  0.00  0.00    +0.008 A 
ATOM     30  C   UNL     1       4.105   3.044   0.057  0.00  0.00    +0.046 A 
ATOM     31  S   UNL     1       3.580   2.912  -1.645  0.00  0.00    -0.095 S 
ENDBRANCH   3  27
BRANCH   9  32
ATOM     32  N   UNL     1       1.782   0.048  -7.848  0.00  0.00    -0.328 N 
ATOM     33  H   UNL     1       2.237  -0.340  -8.612  0.00  0.00    +0.145 HD
ATOM     34  H   UNL     1       0.856   0.324  -7.924  0.00  0.00    +0.145 HD
ENDBRANCH   9  32
BRANCH  10  35
ATOM     35  C   UNL     1       0.414   1.143  -5.807  0.00  0.00    +0.101 C 
ATOM     36  N   UNL     1      -0.669   1.452  -5.955  0.00  0.00    -0.191 NA
ENDBRANCH  10  35
TORSDOF 7
