REMARK  Name = ZINC34724673
REMARK  5 active torsions:
REMARK  status: ('A' for Active; 'I' for Inactive)
REMARK    1  A    between atoms: C_1  and  C_2
REMARK    2  A    between atoms: C_3  and  C_27
REMARK    3  A    between atoms: N_15  and  C_16
REMARK    4  A    between atoms: C_16  and  C_17
REMARK    5  A    between atoms: C_20  and  N_23
REMARK                            x       y       z     vdW  Elec       q    Type
REMARK                         _______ _______ _______ _____ _____    ______ ____
ROOT
ATOM      1  C   UNL     1      -0.018   1.503   0.010  0.00  0.00    +0.039 C 
ATOM      2  C   UNL     1       0.002  -0.004   0.002  0.00  0.00    -0.064 C 
ATOM      3  C   UNL     1      -1.051  -0.800   0.003  0.00  0.00    -0.042 C 
ATOM      4  C   UNL     1      -0.654  -2.236  -0.007  0.00  0.00    +0.003 A 
ATOM      5  C   UNL     1       0.704  -2.285  -0.014  0.00  0.00    +0.004 A 
ATOM      6  S   UNL     1       1.104  -4.011  -0.025  0.00  0.00    -0.074 S 
ATOM      7  C   UNL     1      -0.542  -4.670  -0.021  0.00  0.00    +0.098 A 
ATOM      8  C   UNL     1      -1.353  -3.540  -0.011  0.00  0.00    +0.078 A 
ATOM      9  C   UNL     1      -2.808  -3.794  -0.005  0.00  0.00    +0.263 A 
ATOM     10  O   UNL     1      -3.597  -2.867   0.003  0.00  0.00    -0.267 OA
ATOM     11  N   UNL     1      -3.251  -5.065  -0.009  0.00  0.00    -0.274 N 
ATOM     12  H   UNL     1      -4.206  -5.231  -0.005  0.00  0.00    +0.173 HD
ATOM     13  C   UNL     1      -2.407  -6.110  -0.019  0.00  0.00    +0.330 A 
ATOM     14  O   UNL     1      -2.857  -7.239  -0.023  0.00  0.00    -0.246 OA
ATOM     15  N   UNL     1      -1.071  -5.931  -0.025  0.00  0.00    -0.283 N 
ATOM     16  C   UNL     1       1.233  -0.882  -0.015  0.00  0.00    +0.073 C 
ATOM     17  C   UNL     1      -2.478  -0.316   0.012  0.00  0.00    +0.044 C 
ENDROOT
BRANCH  15  18
ATOM     18  C   UNL     1      -0.181  -7.094  -0.036  0.00  0.00    +0.162 C 
BRANCH  18  19
ATOM     19  C   UNL     1       0.131  -7.501   1.382  0.00  0.00    -0.027 A 
ATOM     20  C   UNL     1       1.222  -6.955   2.033  0.00  0.00    +0.007 A 
ATOM     21  C   UNL     1       1.508  -7.328   3.333  0.00  0.00    +0.033 A 
ATOM     22  C   UNL     1       0.703  -8.246   3.982  0.00  0.00    +0.126 A 
ATOM     23  C   UNL     1      -0.388  -8.791   3.331  0.00  0.00    +0.033 A 
ATOM     24  C   UNL     1      -0.676  -8.415   2.032  0.00  0.00    +0.007 A 
BRANCH  22  25
ATOM     25  N   UNL     1       1.010  -8.646   5.373  0.00  0.00    +0.056 N 
ATOM     26  O   UNL     1       1.964  -8.170   5.943  0.00  0.00    -0.126 OA
ATOM     27  O   UNL     1       0.306  -9.449   5.941  0.00  0.00    -0.126 OA
ENDBRANCH  22  25
ENDBRANCH  18  19
ENDBRANCH  15  18
TORSDOF 3
