REMARK  Name = ZINC41548055
REMARK  6 active torsions:
REMARK  status: ('A' for Active; 'I' for Inactive)
REMARK    1  A    between atoms: C_1  and  C_2
REMARK    2  A    between atoms: C_11  and  C_13
REMARK    3  A    between atoms: C_11  and  C_14
REMARK    4  A    between atoms: N_16  and  C_17
REMARK    5  A    between atoms: N_16  and  C_18
REMARK    6  A    between atoms: C_18  and  C_19
REMARK                            x       y       z     vdW  Elec       q    Type
REMARK                         _______ _______ _______ _____ _____    ______ ____
ROOT
ATOM      1  C   UNL     1      -0.165   1.561   0.637  0.00  0.00    +0.044 C 
ATOM      2  C   UNL     1      -0.169   0.058   0.524  0.00  0.00    -0.048 A 
ATOM      3  C   UNL     1      -0.469  -0.542  -0.685  0.00  0.00    +0.007 A 
ATOM      4  C   UNL     1      -0.481  -1.921  -0.795  0.00  0.00    +0.048 A 
ATOM      5  C   UNL     1      -0.189  -2.703   0.309  0.00  0.00    +0.144 A 
ATOM      6  C   UNL     1       0.124  -2.099   1.525  0.00  0.00    +0.076 A 
ATOM      7  C   UNL     1       0.131  -0.717   1.629  0.00  0.00    +0.030 A 
ATOM      8  N   UNL     1       0.452  -2.898   2.628  0.00  0.00    -0.279 N 
ATOM      9  C   UNL     1       0.672  -4.217   2.445  0.00  0.00    +0.270 C 
ATOM     10  O   UNL     1       0.848  -4.943   3.400  0.00  0.00    -0.271 OA
ATOM     11  C   UNL     1       0.697  -4.783   1.048  0.00  0.00    +0.258 C 
ATOM     12  O   UNL     1      -0.215  -4.060   0.218  0.00  0.00    -0.465 OA
ATOM     13  C   UNL     1       2.111  -4.663   0.475  0.00  0.00    +0.076 C 
ATOM     14  H   UNL     1       0.520  -2.508   3.514  0.00  0.00    +0.155 HD
ENDROOT
BRANCH  11  15
ATOM     15  C   UNL     1       0.295  -6.235   1.088  0.00  0.00    +0.269 C 
ATOM     16  O   UNL     1       0.278  -6.830   2.144  0.00  0.00    -0.271 OA
ATOM     17  N   UNL     1      -0.046  -6.872  -0.050  0.00  0.00    -0.297 N 
ATOM     18  C   UNL     1       0.070  -6.183  -1.338  0.00  0.00    +0.132 C 
BRANCH  17  19
ATOM     19  C   UNL     1      -0.532  -8.253   0.001  0.00  0.00    +0.142 C 
BRANCH  19  20
ATOM     20  C   UNL     1      -2.031  -8.253   0.152  0.00  0.00    -0.026 A 
ATOM     21  C   UNL     1      -2.597  -8.245   1.413  0.00  0.00    +0.009 A 
ATOM     22  C   UNL     1      -3.972  -8.245   1.557  0.00  0.00    +0.050 A 
ATOM     23  C   UNL     1      -4.787  -8.252   0.436  0.00  0.00    +0.166 A 
ATOM     24  C   UNL     1      -4.216  -8.259  -0.835  0.00  0.00    +0.167 A 
ATOM     25  C   UNL     1      -2.837  -8.254  -0.971  0.00  0.00    +0.054 A 
ATOM     26  O   UNL     1      -5.218  -8.265  -1.762  0.00  0.00    -0.453 OA
ATOM     27  C   UNL     1      -6.400  -8.674  -1.049  0.00  0.00    +0.466 C 
ATOM     28  O   UNL     1      -6.145  -8.253   0.304  0.00  0.00    -0.453 OA
ENDBRANCH  19  20
ENDBRANCH  17  19
ENDBRANCH  11  15
TORSDOF 3
