REMARK  Name = ZINC62395769
REMARK  8 active torsions:
REMARK  status: ('A' for Active; 'I' for Inactive)
REMARK    1  A    between atoms: C_1  and  C_2
REMARK    2  A    between atoms: C_5  and  O_8
REMARK    3  A    between atoms: O_8  and  C_9
REMARK    4  A    between atoms: C_9  and  C_10
REMARK    5  A    between atoms: C_13  and  C_21
REMARK    6  A    between atoms: C_14  and  C_18
REMARK    7  A    between atoms: C_18  and  C_19
REMARK    8  A    between atoms: C_18  and  C_20
REMARK                            x       y       z     vdW  Elec       q    Type
REMARK                         _______ _______ _______ _____ _____    ______ ____
ROOT
ATOM      1  C   UNL     1       0.090  -6.277   1.043  0.00  0.00    +0.140 A 
ATOM      2  N   UNL     1       0.098  -6.950  -0.069  0.00  0.00    -0.158 NA
ATOM      3  N   UNL     1       0.116  -8.341  -0.074  0.00  0.00    -0.195 N 
ATOM      4  C   UNL     1       0.129  -9.386  -1.008  0.00  0.00    +0.166 A 
ATOM      5  C   UNL     1       0.143 -10.565  -0.293  0.00  0.00    +0.083 A 
ATOM      6  N   UNL     1       0.140 -10.257   1.001  0.00  0.00    -0.223 NA
ATOM      7  C   UNL     1       0.123  -8.957   1.139  0.00  0.00    +0.197 A 
ATOM      8  S   UNL     1       0.114  -7.580   2.265  0.00  0.00    -0.029 S 
ENDROOT
BRANCH   5   9
ATOM      9  C   UNL     1       0.161 -11.956  -0.874  0.00  0.00    +0.034 C 
ATOM     10  C   UNL     1       1.419 -12.688  -0.405  0.00  0.00    +0.014 C 
ATOM     11  C   UNL     1      -1.079 -12.720  -0.405  0.00  0.00    +0.014 C 
ENDBRANCH   5   9
BRANCH   4  12
ATOM     12  C   UNL     1       0.127  -9.255  -2.434  0.00  0.00    +0.121 C 
ATOM     13  N   UNL     1       0.125  -9.151  -3.565  0.00  0.00    -0.189 NA
ENDBRANCH   4  12
BRANCH   1  14
ATOM     14  C   UNL     1       0.072  -4.785   1.249  0.00  0.00    +0.293 C 
BRANCH  14  15
ATOM     15  O   UNL     1       0.057  -4.129  -0.021  0.00  0.00    -0.485 OA
BRANCH  15  20
ATOM     16  C   UNL     1      -0.018   1.503   0.010  0.00  0.00    +0.044 C 
ATOM     17  C   UNL     1       0.002  -0.004   0.002  0.00  0.00    -0.050 A 
ATOM     18  C   UNL     1       0.006  -0.688  -1.200  0.00  0.00    +0.007 A 
ATOM     19  C   UNL     1       0.024  -2.069  -1.210  0.00  0.00    +0.046 A 
ATOM     20  C   UNL     1       0.039  -2.770  -0.013  0.00  0.00    +0.121 A 
ATOM     21  C   UNL     1       0.036  -2.082   1.191  0.00  0.00    +0.046 A 
ATOM     22  C   UNL     1       0.023  -0.701   1.196  0.00  0.00    +0.007 A 
ENDBRANCH  15  20
ENDBRANCH  14  15
ENDBRANCH   1  14
TORSDOF 5
