REMARK  Name = ZINC59514404
REMARK  9 active torsions:
REMARK  status: ('A' for Active; 'I' for Inactive)
REMARK    1  A    between atoms: C_1  and  C_2
REMARK    2  A    between atoms: C_2  and  N_3
REMARK    3  A    between atoms: N_3  and  C_4
REMARK    4  A    between atoms: N_3  and  C_6
REMARK    5  A    between atoms: C_4  and  C_5
REMARK    6  A    between atoms: C_9  and  C_13
REMARK    7  A    between atoms: C_10  and  O_12
REMARK    8  A    between atoms: N_17  and  C_21
REMARK    9  A    between atoms: C_21  and  C_22
REMARK                            x       y       z     vdW  Elec       q    Type
REMARK                         _______ _______ _______ _____ _____    ______ ____
ROOT
ATOM      1  C   UNL     1      -1.905  -0.884   1.258  0.00  0.00    +0.033 A 
ATOM      2  C   UNL     1      -1.190  -0.988   2.450  0.00  0.00    +0.024 A 
ATOM      3  C   UNL     1      -1.844  -1.188   3.632  0.00  0.00    +0.013 A 
ATOM      4  C   UNL     1      -3.241  -1.290   3.652  0.00  0.00    +0.018 A 
ATOM      5  C   UNL     1      -3.966  -1.185   2.451  0.00  0.00    +0.126 A 
ATOM      6  C   UNL     1      -3.292  -0.977   1.262  0.00  0.00    +0.069 A 
ENDROOT
BRANCH   4   7
ATOM      7  C   UNL     1      -3.945  -1.505   4.920  0.00  0.00    +0.031 C 
ATOM      8  C   UNL     1      -3.554  -0.835   6.037  0.00  0.00    +0.077 C 
ATOM      9  C   UNL     1      -2.572   0.254   6.183  0.00  0.00    +0.259 C 
ATOM     10  O   UNL     1      -1.963   0.699   5.227  0.00  0.00    -0.269 OA
ATOM     11  N   UNL     1      -2.386   0.726   7.404  0.00  0.00    -0.244 N 
ATOM     12  C   UNL     1      -3.063   0.232   8.461  0.00  0.00    +0.121 C 
ATOM     13  S   UNL     1      -2.964   0.704  10.104  0.00  0.00    -0.027 S 
ATOM     14  S   UNL     1      -4.094  -1.029   7.729  0.00  0.00    -0.061 S 
BRANCH  11  15
ATOM     15  C   UNL     1      -1.423   1.810   7.614  0.00  0.00    +0.240 C 
BRANCH  15  16
ATOM     16  C   UNL     1      -2.123   3.138   7.474  0.00  0.00    +0.373 C 
ATOM     17  O   UNL     1      -3.315   3.175   7.222  0.00  0.00    -0.245 OA
ATOM     18  O   UNL     1      -1.496   4.174   7.613  0.00  0.00    -0.245 OA
ENDBRANCH  15  16
ENDBRANCH  11  15
ENDBRANCH   4   7
BRANCH   5  19
ATOM     19  O   UNL     1      -5.319  -1.283   2.460  0.00  0.00    -0.506 OA
ATOM     20  H   UNL     1      -5.774  -0.438   2.577  0.00  0.00    +0.292 HD
ENDBRANCH   5  19
BRANCH   1  21
ATOM     21  N   UNL     1      -1.227  -0.680   0.059  0.00  0.00    -0.330 N 
BRANCH  21  23
ATOM     22  C   UNL     1       0.648   0.879   0.238  0.00  0.00    +0.024 C 
ATOM     23  C   UNL     1       0.234  -0.582   0.052  0.00  0.00    +0.102 C 
ENDBRANCH  21  23
BRANCH  21  24
ATOM     24  C   UNL     1      -1.976  -0.564  -1.194  0.00  0.00    +0.102 C 
ATOM     25  C   UNL     1      -2.141  -1.951  -1.820  0.00  0.00    +0.024 C 
ENDBRANCH  21  24
ENDBRANCH   1  21
TORSDOF 7
