REMARK  Name = ZINC08001159
REMARK  4 active torsions:
REMARK  status: ('A' for Active; 'I' for Inactive)
REMARK    1  A    between atoms: C_4  and  N_7
REMARK    2  A    between atoms: C_11  and  C_13
REMARK    3  A    between atoms: C_13  and  N_46
REMARK    4  A    between atoms: C_21  and  C_23
REMARK                            x       y       z     vdW  Elec       q    Type
REMARK                         _______ _______ _______ _____ _____    ______ ____
ROOT
ATOM      1  C   UNL     1       2.462   0.919  -0.029  0.00  0.00    +0.020 C 
ENDROOT
BRANCH   1  10
ATOM      2  C   UNL     1       3.558   2.693  -1.261  0.00  0.00    -0.072 C 
ATOM      3  C   UNL     1       4.439   3.936  -1.046  0.00  0.00    +0.024 C 
ATOM      4  C   UNL     1       5.718   3.484  -0.419  0.00  0.00    -0.010 A 
ATOM      5  C   UNL     1       5.961   2.269   0.149  0.00  0.00    -0.046 A 
ATOM      6  C   UNL     1       7.237   2.071   0.671  0.00  0.00    +0.010 A 
ATOM      7  C   UNL     1       8.159   3.059   0.599  0.00  0.00    +0.045 A 
ATOM      8  S   UNL     1       7.249   4.354  -0.232  0.00  0.00    -0.101 S 
ATOM      9  C   UNL     1       4.855   1.219   0.183  0.00  0.00    +0.002 C 
ATOM     10  N   UNL     1       3.556   1.909  -0.002  0.00  0.00    +0.393 N 
ATOM     11  H   UNL     1       3.407   2.550   0.786  0.00  0.00    -0.080 HD
BRANCH   9  12
ATOM     12  C   UNL     1       4.849   0.529   1.523  0.00  0.00    -0.019 A 
ATOM     13  C   UNL     1       5.356  -0.682   1.861  0.00  0.00    +0.010 A 
ATOM     14  C   UNL     1       5.236  -1.118   3.167  0.00  0.00    +0.008 A 
ATOM     15  C   UNL     1       4.615  -0.322   4.071  0.00  0.00    +0.045 A 
ATOM     16  S   UNL     1       4.182   1.097   3.078  0.00  0.00    -0.103 S 
ENDBRANCH   9  12
ENDBRANCH   1  10
BRANCH   1  21
ATOM     17  N   UNL     1      -2.345   0.934   0.018  0.00  0.00    -0.269 N 
ATOM     18  C   UNL     1      -1.187   1.624   0.018  0.00  0.00    +0.310 C 
ATOM     19  O   UNL     1      -1.204   2.839   0.034  0.00  0.00    -0.252 OA
ATOM     20  N   UNL     1      -0.011   0.966   0.001  0.00  0.00    -0.241 N 
ATOM     21  C   UNL     1       1.147   1.655  -0.004  0.00  0.00    +0.204 C 
ATOM     22  O   UNL     1       1.131   2.867   0.011  0.00  0.00    -0.277 OA
ATOM     23  H   UNL     1      -2.334  -0.033  -0.062  0.00  0.00    +0.156 HD
ATOM     24  H   UNL     1       0.002  -0.004  -0.011  0.00  0.00    +0.159 HD
BRANCH  17  28
ATOM     25  C   UNL     1      -5.973   2.954   0.360  0.00  0.00    +0.000 A 
ATOM     26  C   UNL     1      -4.926   3.530  -0.335  0.00  0.00    +0.002 A 
ATOM     27  C   UNL     1      -3.722   2.863  -0.450  0.00  0.00    +0.023 A 
ATOM     28  C   UNL     1      -3.564   1.613   0.133  0.00  0.00    +0.035 A 
ATOM     29  C   UNL     1      -4.619   1.035   0.827  0.00  0.00    +0.023 A 
ATOM     30  C   UNL     1      -5.819   1.709   0.942  0.00  0.00    +0.002 A 
ENDBRANCH  17  28
ENDBRANCH   1  21
TORSDOF 4
