REMARK  Name = ZINC39663945
REMARK  11 active torsions:
REMARK  status: ('A' for Active; 'I' for Inactive)
REMARK    1  A    between atoms: C_1  and  C_2
REMARK    2  A    between atoms: C_6  and  C_7
REMARK    3  A    between atoms: C_11  and  C_20
REMARK    4  A    between atoms: N_22  and  C_23
REMARK    5  A    between atoms: C_23  and  C_24
REMARK    6  A    between atoms: C_24  and  C_26
REMARK    7  A    between atoms: C_24  and  N_34
REMARK    8  A    between atoms: C_29  and  O_32
REMARK    9  A    between atoms: O_32  and  C_33
REMARK   10  A    between atoms: N_34  and  C_35
REMARK   11  A    between atoms: N_34  and  C_36
REMARK                            x       y       z     vdW  Elec       q    Type
REMARK                         _______ _______ _______ _____ _____    ______ ____
ROOT
ATOM      1  C   UNL     1       0.049  -0.246   2.617  0.00  0.00    +0.254 C 
ATOM      2  O   UNL     1       0.133   0.941   2.873  0.00  0.00    -0.269 OA
ATOM      3  N   UNL     1      -0.038  -1.146   3.616  0.00  0.00    -0.296 N 
ATOM      4  C   UNL     1      -0.021  -2.624   3.511  0.00  0.00    +0.121 C 
ATOM      5  C   UNL     1       0.822  -3.091   4.719  0.00  0.00    +0.100 C 
ATOM      6  C   UNL     1       0.716  -1.944   5.738  0.00  0.00    -0.004 C 
ATOM      7  C   UNL     1      -0.167  -0.881   5.069  0.00  0.00    +0.115 C 
ATOM      8  C   UNL     1       2.098  -1.367   6.029  0.00  0.00    -0.010 C 
ATOM      9  C   UNL     1       1.973  -0.267   7.087  0.00  0.00    -0.082 C 
ATOM     10  N   UNL     1       1.387  -0.827   8.311  0.00  0.00    +0.379 N 
ATOM     11  C   UNL     1       0.022  -1.296   8.043  0.00  0.00    -0.082 C 
ATOM     12  C   UNL     1       0.064  -2.439   7.026  0.00  0.00    -0.010 C 
ATOM     13  H   UNL     1       1.951  -1.600   8.629  0.00  0.00    -0.086 HD
ATOM     14  H   UNL     1       1.363  -0.116   9.026  0.00  0.00    -0.086 HD
ENDROOT
BRANCH   1  20
ATOM     15  C   UNL     1       0.025   1.567   0.083  0.00  0.00    +0.045 C 
ATOM     16  C   UNL     1       0.031   0.060   0.059  0.00  0.00    -0.031 A 
ATOM     17  C   UNL     1       0.033  -0.652  -1.116  0.00  0.00    +0.011 A 
ATOM     18  C   UNL     1       0.039  -2.007  -1.065  0.00  0.00    +0.046 A 
ATOM     19  S   UNL     1       0.043  -2.358   0.578  0.00  0.00    -0.092 S 
ATOM     20  C   UNL     1       0.042  -0.696   1.222  0.00  0.00    +0.077 A 
ENDBRANCH   1  20
BRANCH   5  21
ATOM     21  C   UNL     1       0.253  -4.362   5.295  0.00  0.00    +0.218 C 
ATOM     22  O   UNL     1      -0.921  -4.626   5.141  0.00  0.00    -0.275 OA
ATOM     23  N   UNL     1       1.048  -5.206   5.981  0.00  0.00    -0.316 N 
ATOM     24  H   UNL     1       1.987  -4.996   6.104  0.00  0.00    +0.149 HD
BRANCH  23  25
ATOM     25  C   UNL     1       0.495  -6.442   6.541  0.00  0.00    +0.093 C 
BRANCH  25  26
ATOM     26  C   UNL     1       1.623  -7.273   7.157  0.00  0.00    -0.021 C 
BRANCH  26  27
ATOM     27  C   UNL     1       2.626  -7.627   6.089  0.00  0.00    -0.059 A 
ATOM     28  C   UNL     1       2.369  -8.672   5.221  0.00  0.00    +0.005 A 
ATOM     29  C   UNL     1       3.287  -9.000   4.242  0.00  0.00    +0.046 A 
ATOM     30  C   UNL     1       4.467  -8.279   4.130  0.00  0.00    +0.120 A 
ATOM     31  C   UNL     1       4.722  -7.230   5.002  0.00  0.00    +0.046 A 
ATOM     32  C   UNL     1       3.799  -6.904   5.976  0.00  0.00    +0.005 A 
BRANCH  30  33
ATOM     33  O   UNL     1       5.372  -8.599   3.167  0.00  0.00    -0.495 OA
ATOM     34  C   UNL     1       6.564  -7.814   3.111  0.00  0.00    +0.277 C 
ENDBRANCH  30  33
ENDBRANCH  26  27
BRANCH  26  35
ATOM     35  N   UNL     1       1.067  -8.503   7.734  0.00  0.00    +0.382 N 
ATOM     36  C   UNL     1       2.130  -9.245   8.425  0.00  0.00    -0.096 C 
ATOM     37  C   UNL     1       0.007  -8.159   8.692  0.00  0.00    -0.096 C 
ATOM     38  H   UNL     1       0.681  -9.076   6.997  0.00  0.00    -0.082 HD
ENDBRANCH  26  35
ENDBRANCH  25  26
ENDBRANCH  23  25
ENDBRANCH   5  21
TORSDOF 7
