REMARK  Name = ZINC08720504
REMARK  6 active torsions:
REMARK  status: ('A' for Active; 'I' for Inactive)
REMARK    1  A    between atoms: C_1  and  C_2
REMARK    2  A    between atoms: C_2  and  C_4
REMARK    3  A    between atoms: C_2  and  S_14
REMARK    4  A    between atoms: S_14  and  C_15
REMARK    5  A    between atoms: C_18  and  S_21
REMARK    6  A    between atoms: S_21  and  N_24
REMARK                            x       y       z     vdW  Elec       q    Type
REMARK                         _______ _______ _______ _____ _____    ______ ____
ROOT
ATOM      1  S   UNL     1      -1.560   2.239   0.017  0.00  0.00    -0.093 S 
ENDROOT
BRANCH   1   2
ATOM      2  C   UNL     1      -0.018   1.386   0.003  0.00  0.00    +0.098 A 
ATOM      3  C   UNL     1       0.000  -0.006  -0.006  0.00  0.00    +0.037 A 
ATOM      4  C   UNL     1       1.217  -0.662  -0.023  0.00  0.00    +0.032 A 
ATOM      5  C   UNL     1       2.380   0.098  -0.030  0.00  0.00    +0.124 A 
ATOM      6  C   UNL     1       2.288   1.475  -0.020  0.00  0.00    +0.140 A 
ATOM      7  N   UNL     1       1.113   2.075  -0.004  0.00  0.00    -0.247 NA
BRANCH   5   8
ATOM      8  S   UNL     1       3.957  -0.689  -0.052  0.00  0.00    +0.062 S 
ATOM      9  O   UNL     1       4.882   0.240   0.496  0.00  0.00    -0.153 OA
ATOM     10  O   UNL     1       3.770  -1.988   0.492  0.00  0.00    -0.153 OA
BRANCH   8  11
ATOM     11  N   UNL     1       4.378  -0.896  -1.640  0.00  0.00    -0.177 NA
ATOM     12  C   UNL     1       4.068  -2.076  -2.461  0.00  0.00    +0.109 C 
ATOM     13  C   UNL     1       4.677  -1.834  -3.858  0.00  0.00    +0.018 C 
ATOM     14  C   UNL     1       5.787  -0.788  -3.575  0.00  0.00    +0.018 C 
ATOM     15  C   UNL     1       5.132   0.068  -2.462  0.00  0.00    +0.109 C 
ENDBRANCH   8  11
ENDBRANCH   5   8
ENDBRANCH   1   2
BRANCH   1  17
ATOM     16  C   UNL     1      -0.364   4.319   1.331  0.00  0.00    +0.029 C 
ATOM     17  C   UNL     1      -1.092   3.992   0.026  0.00  0.00    +0.136 C 
BRANCH  17  18
ATOM     18  C   UNL     1      -2.330   4.843  -0.086  0.00  0.00    +0.231 C 
ATOM     19  O   UNL     1      -3.401   4.407   0.282  0.00  0.00    -0.274 OA
ATOM     20  N   UNL     1      -2.248   6.089  -0.594  0.00  0.00    -0.269 N 
ATOM     21  C   UNL     1      -3.408   6.837  -0.796  0.00  0.00    +0.125 A 
ATOM     22  C   UNL     1      -3.326   8.078  -1.418  0.00  0.00    +0.045 A 
ATOM     23  C   UNL     1      -4.484   8.810  -1.612  0.00  0.00    +0.025 A 
ATOM     24  C   UNL     1      -5.689   8.274  -1.176  0.00  0.00    +0.059 A 
ATOM     25  C   UNL     1      -5.695   7.034  -0.565  0.00  0.00    +0.132 A 
ATOM     26  N   UNL     1      -4.575   6.357  -0.399  0.00  0.00    -0.239 NA
ATOM     27 CL   UNL     1      -7.170   9.152  -1.395  0.00  0.00    -0.082 Cl
ATOM     28  H   UNL     1      -1.383   6.465  -0.820  0.00  0.00    +0.156 HD
ENDBRANCH  17  18
ENDBRANCH   1  17
TORSDOF 5
