REMARK  Name = ZINC54041528
REMARK  4 active torsions:
REMARK  status: ('A' for Active; 'I' for Inactive)
REMARK    1  A    between atoms: C_1  and  C_2
REMARK    2  A    between atoms: C_5  and  N_8
REMARK    3  A    between atoms: N_16  and  C_19
REMARK    4  A    between atoms: C_24  and  O_25
REMARK                            x       y       z     vdW  Elec       q    Type
REMARK                         _______ _______ _______ _____ _____    ______ ____
ROOT
ATOM      1  N   UNL     1       1.143  -5.232  -0.400  0.00  0.00    -0.181 N 
ATOM      2  C   UNL     1       0.703  -5.084   0.874  0.00  0.00    +0.242 A 
ATOM      3  N   UNL     1      -0.602  -5.253   0.854  0.00  0.00    -0.092 NA
ATOM      4  N   UNL     1      -1.006  -5.495  -0.341  0.00  0.00    -0.021 NA
ATOM      5  N   UNL     1      -0.011  -5.494  -1.160  0.00  0.00    -0.038 NA
ATOM      6  N   UNL     1       1.479  -4.808   1.985  0.00  0.00    -0.295 N 
ATOM      7  C   UNL     1       1.621  -3.430   2.475  0.00  0.00    +0.127 C 
ATOM      8  C   UNL     1       1.208  -3.389   3.951  0.00  0.00    +0.124 C 
ATOM      9  N   UNL     1       1.905  -4.469   4.664  0.00  0.00    -0.324 N 
ATOM     10  C   UNL     1       1.763  -5.848   4.174  0.00  0.00    +0.124 C 
ATOM     11  C   UNL     1       2.171  -5.889   2.701  0.00  0.00    +0.127 C 
ENDROOT
BRANCH   1  16
ATOM     12  C   UNL     1       6.489  -4.850  -2.269  0.00  0.00    +0.044 C 
ATOM     13  C   UNL     1       5.069  -4.952  -1.773  0.00  0.00    -0.050 A 
ATOM     14  C   UNL     1       4.239  -5.947  -2.255  0.00  0.00    +0.005 A 
ATOM     15  C   UNL     1       2.938  -6.043  -1.802  0.00  0.00    +0.028 A 
ATOM     16  C   UNL     1       2.463  -5.138  -0.861  0.00  0.00    +0.071 A 
ATOM     17  C   UNL     1       3.299  -4.140  -0.379  0.00  0.00    +0.028 A 
ATOM     18  C   UNL     1       4.601  -4.052  -0.832  0.00  0.00    +0.005 A 
ENDBRANCH   1  16
BRANCH   9  19
ATOM     19  C   UNL     1       2.691  -4.190   5.788  0.00  0.00    +0.072 A 
ATOM     20  C   UNL     1       2.124  -4.209   7.054  0.00  0.00    +0.027 A 
ATOM     21  C   UNL     1       2.902  -3.933   8.163  0.00  0.00    +0.002 A 
ATOM     22  C   UNL     1       4.245  -3.639   8.014  0.00  0.00    +0.004 A 
ATOM     23  C   UNL     1       4.816  -3.618   6.755  0.00  0.00    +0.047 A 
ATOM     24  C   UNL     1       4.045  -3.898   5.639  0.00  0.00    +0.138 A 
BRANCH  24  25
ATOM     25  O   UNL     1       4.607  -3.884   4.401  0.00  0.00    -0.505 OA
ATOM     26  H   UNL     1       4.576  -3.021   3.965  0.00  0.00    +0.292 HD
ENDBRANCH  24  25
ENDBRANCH   9  19
TORSDOF 3
