REMARK  Name = ZINC64491429
REMARK  7 active torsions:
REMARK  status: ('A' for Active; 'I' for Inactive)
REMARK    1  A    between atoms: C_1  and  C_2
REMARK    2  A    between atoms: C_2  and  N_3
REMARK    3  A    between atoms: C_11  and  N_15
REMARK    4  A    between atoms: C_18  and  C_21
REMARK    5  A    between atoms: N_23  and  C_24
REMARK    6  A    between atoms: C_24  and  C_25
REMARK    7  A    between atoms: C_25  and  C_26
REMARK                            x       y       z     vdW  Elec       q    Type
REMARK                         _______ _______ _______ _____ _____    ______ ____
ROOT
ATOM      1  N   UNL     1      -4.338  -0.050  -1.222  0.00  0.00    +0.398 N 
ATOM      2  C   UNL     1      -4.103   0.801  -0.049  0.00  0.00    -0.075 C 
ATOM      3  C   UNL     1      -4.979   2.052  -0.137  0.00  0.00    -0.006 C 
ATOM      4  C   UNL     1      -6.452   1.635  -0.180  0.00  0.00    +0.071 C 
ATOM      5  C   UNL     1      -6.670   0.689  -1.364  0.00  0.00    -0.006 C 
ATOM      6  C   UNL     1      -5.731  -0.512  -1.231  0.00  0.00    -0.075 C 
ATOM      7  H   UNL     1      -4.155   0.480  -2.061  0.00  0.00    -0.078 HD
ENDROOT
BRANCH   1  16
ATOM      8  N   UNL     1      -1.372  -0.511   0.012  0.00  0.00    -0.270 N 
ATOM      9  C   UNL     1      -2.013  -0.752   1.234  0.00  0.00    +0.057 A 
ATOM     10  C   UNL     1      -1.492  -0.254   2.417  0.00  0.00    +0.025 A 
ATOM     11  C   UNL     1      -2.137  -0.507   3.614  0.00  0.00    +0.002 A 
ATOM     12  C   UNL     1      -3.300  -1.255   3.636  0.00  0.00    +0.002 A 
ATOM     13  C   UNL     1      -3.828  -1.756   2.459  0.00  0.00    +0.025 A 
ATOM     14  C   UNL     1      -3.189  -1.504   1.259  0.00  0.00    +0.048 A 
ATOM     15  N   UNL     1      -3.705  -1.986   0.048  0.00  0.00    -0.348 N 
ATOM     16  C   UNL     1      -3.439  -1.210  -1.172  0.00  0.00    +0.105 C 
ATOM     17  C   UNL     1      -2.009  -0.736  -1.153  0.00  0.00    +0.223 C 
ATOM     18  O   UNL     1      -1.422  -0.557  -2.200  0.00  0.00    -0.275 OA
ATOM     19  H   UNL     1      -4.221  -2.807   0.016  0.00  0.00    +0.145 HD
BRANCH   8  21
ATOM     20  C   UNL     1      -0.019   1.526   0.010  0.00  0.00    +0.025 C 
ATOM     21  C   UNL     1       0.002  -0.004   0.002  0.00  0.00    +0.110 C 
ENDBRANCH   8  21
ENDBRANCH   1  16
BRANCH   4  22
ATOM     22  C   UNL     1      -7.317   2.857  -0.346  0.00  0.00    +0.216 C 
ATOM     23  O   UNL     1      -6.808   3.955  -0.422  0.00  0.00    -0.276 OA
ATOM     24  N   UNL     1      -8.658   2.731  -0.409  0.00  0.00    -0.315 N 
ATOM     25  H   UNL     1      -9.065   1.853  -0.348  0.00  0.00    +0.149 HD
BRANCH  24  26
ATOM     26  C   UNL     1      -9.499   3.920  -0.570  0.00  0.00    +0.108 C 
BRANCH  26  27
ATOM     27  C   UNL     1     -10.970   3.501  -0.613  0.00  0.00    +0.052 C 
BRANCH  27  28
ATOM     28  C   UNL     1     -11.835   4.724  -0.779  0.00  0.00    -0.040 C 
ATOM     29  C   UNL     1     -12.323   5.224  -1.937  0.00  0.00    -0.001 A 
ATOM     30  C   UNL     1     -12.199   4.796  -3.335  0.00  0.00    +0.010 A 
ATOM     31  C   UNL     1     -12.815   5.517  -4.299  0.00  0.00    +0.001 A 
ATOM     32  C   UNL     1     -13.568   6.660  -3.997  0.00  0.00    +0.002 A 
ATOM     33  C   UNL     1     -13.728   7.115  -2.736  0.00  0.00    +0.026 A 
ATOM     34  C   UNL     1     -13.124   6.434  -1.644  0.00  0.00    +0.043 A 
ATOM     35  N   UNL     1     -13.131   6.673  -0.355  0.00  0.00    -0.380 N 
ATOM     36  C   UNL     1     -12.339   5.636   0.317  0.00  0.00    +0.144 C 
ATOM     37  H   UNL     1     -13.586   7.409   0.082  0.00  0.00    +0.160 HD
ENDBRANCH  27  28
ENDBRANCH  26  27
ENDBRANCH  24  26
ENDBRANCH   4  22
TORSDOF 6
