REMARK  Name = ZINC16019830
REMARK  8 active torsions:
REMARK  status: ('A' for Active; 'I' for Inactive)
REMARK    1  A    between atoms: C_1  and  O_2
REMARK    2  A    between atoms: O_2  and  C_3
REMARK    3  A    between atoms: C_6  and  N_9
REMARK    4  A    between atoms: C_10  and  C_29
REMARK    5  A    between atoms: C_11  and  C_16
REMARK    6  A    between atoms: C_16  and  N_18
REMARK    7  A    between atoms: C_34  and  O_35
REMARK    8  A    between atoms: O_35  and  C_36
REMARK                            x       y       z     vdW  Elec       q    Type
REMARK                         _______ _______ _______ _____ _____    ______ ____
ROOT
ATOM      1  N   UNL     1       2.560  -2.555   4.087  0.00  0.00    -0.263 N 
ATOM      2  C   UNL     1       2.468  -3.994   4.296  0.00  0.00    +0.127 C 
ATOM      3  C   UNL     1       2.696  -4.337   5.769  0.00  0.00    +0.103 C 
ATOM      4  C   UNL     1       3.986  -3.653   6.238  0.00  0.00    +0.024 C 
ATOM      5  C   UNL     1       3.758  -2.140   6.240  0.00  0.00    +0.097 C 
ATOM      6  C   UNL     1       3.156  -1.713   4.932  0.00  0.00    +0.220 C 
ATOM      7  O   UNL     1       3.211  -0.539   4.631  0.00  0.00    -0.275 OA
ENDROOT
BRANCH   1  11
ATOM      8  C   UNL     1       0.867  -0.973   0.621  0.00  0.00    +0.120 A 
ATOM      9  C   UNL     1       1.776  -2.017   0.534  0.00  0.00    +0.047 A 
ATOM     10  C   UNL     1       2.337  -2.541   1.682  0.00  0.00    +0.027 A 
ATOM     11  C   UNL     1       1.991  -2.023   2.922  0.00  0.00    +0.037 A 
ATOM     12  C   UNL     1       1.081  -0.978   3.009  0.00  0.00    +0.027 A 
ATOM     13  C   UNL     1       0.525  -0.451   1.860  0.00  0.00    +0.047 A 
BRANCH   8  15
ATOM     14  C   UNL     1       0.711  -1.042  -1.751  0.00  0.00    +0.277 C 
ATOM     15  O   UNL     1       0.314  -0.457  -0.509  0.00  0.00    -0.495 OA
ENDBRANCH   8  15
ENDBRANCH   1  11
BRANCH   2  16
ATOM     16  C   UNL     1       1.101  -4.472   3.880  0.00  0.00    +0.016 A 
ATOM     17  C   UNL     1       0.049  -3.579   3.807  0.00  0.00    +0.009 A 
ATOM     18  C   UNL     1      -1.205  -4.017   3.425  0.00  0.00    +0.001 A 
ATOM     19  C   UNL     1      -1.411  -5.349   3.115  0.00  0.00    +0.004 A 
ATOM     20  C   UNL     1      -0.362  -6.246   3.186  0.00  0.00    +0.046 A 
ATOM     21  C   UNL     1       0.899  -5.808   3.564  0.00  0.00    +0.125 A 
BRANCH  21  22
ATOM     22  O   UNL     1       1.933  -6.687   3.629  0.00  0.00    -0.495 OA
ATOM     23  C   UNL     1       1.652  -8.046   3.290  0.00  0.00    +0.277 C 
ENDBRANCH  21  22
ENDBRANCH   2  16
BRANCH   3  24
ATOM     24  C   UNL     1       1.534  -3.841   6.590  0.00  0.00    +0.244 C 
ATOM     25  O   UNL     1       0.609  -3.266   6.048  0.00  0.00    -0.273 OA
BRANCH  24  26
ATOM     26  N   UNL     1       1.519  -4.030   7.905  0.00  0.00    -0.147 NA
ATOM     27  C   UNL     1       0.450  -3.683   8.616  0.00  0.00    +0.198 A 
ATOM     28  N   UNL     1      -0.640  -3.031   8.131  0.00  0.00    -0.326 N 
ATOM     29  H   UNL     1      -0.767  -2.742   7.214  0.00  0.00    +0.169 HD
ATOM     30  C   UNL     1      -1.540  -2.850   9.175  0.00  0.00    +0.065 A 
ATOM     31  C   UNL     1      -2.793  -2.258   9.254  0.00  0.00    +0.028 A 
ATOM     32  C   UNL     1      -3.465  -2.229  10.460  0.00  0.00    +0.002 A 
ATOM     33  C   UNL     1      -2.895  -2.787  11.591  0.00  0.00    +0.002 A 
ATOM     34  C   UNL     1      -1.649  -3.378  11.524  0.00  0.00    +0.028 A 
ATOM     35  C   UNL     1      -0.965  -3.413  10.317  0.00  0.00    +0.065 A 
ATOM     36  N   UNL     1       0.271  -3.929   9.940  0.00  0.00    -0.326 N 
ATOM     37  H   UNL     1       0.898  -4.385  10.523  0.00  0.00    +0.169 HD
ENDBRANCH  24  26
ENDBRANCH   3  24
TORSDOF 6
