REMARK  Name = ZINC20560206
REMARK  11 active torsions:
REMARK  status: ('A' for Active; 'I' for Inactive)
REMARK    1  A    between atoms: C_1  and  C_2
REMARK    2  A    between atoms: C_2  and  O_3
REMARK    3  A    between atoms: O_3  and  C_4
REMARK    4  A    between atoms: C_4  and  C_6
REMARK    5  A    between atoms: C_7  and  C_21
REMARK    6  A    between atoms: C_12  and  C_14
REMARK    7  A    between atoms: C_17  and  C_20
REMARK    8  A    between atoms: C_21  and  N_22
REMARK    9  A    between atoms: C_28  and  O_30
REMARK   10  A    between atoms: O_30  and  C_31
REMARK   11  A    between atoms: C_31  and  C_32
REMARK                            x       y       z     vdW  Elec       q    Type
REMARK                         _______ _______ _______ _____ _____    ______ ____
ROOT
ATOM      1  C   UNL     1      -1.256   1.896   0.106  0.00  0.00    +0.079 C 
ATOM      2  C   UNL     1      -2.421   1.240  -0.086  0.00  0.00    +0.038 C 
ATOM      3  N   UNL     1      -3.606   1.915  -0.159  0.00  0.00    -0.271 N 
ATOM      4  C   UNL     1      -3.709   3.246  -0.062  0.00  0.00    +0.304 C 
ATOM      5  O   UNL     1      -4.808   3.759  -0.145  0.00  0.00    -0.252 OA
ATOM      6  N   UNL     1      -2.634   4.037   0.125  0.00  0.00    -0.288 N 
ATOM      7  C   UNL     1      -1.307   3.405   0.224  0.00  0.00    +0.144 C 
ATOM      8  H   UNL     1      -4.545   1.362  -0.306  0.00  0.00    +0.156 HD
ATOM      9  H   UNL     1      -2.729   5.130   0.204  0.00  0.00    +0.151 HD
ENDROOT
BRANCH   7  10
ATOM     10  C   UNL     1      -0.709   3.788   1.553  0.00  0.00    -0.022 A 
ATOM     11  C   UNL     1      -1.466   3.693   2.705  0.00  0.00    +0.006 A 
ATOM     12  C   UNL     1      -0.916   4.039   3.925  0.00  0.00    +0.004 A 
ATOM     13  C   UNL     1       0.389   4.491   3.991  0.00  0.00    -0.050 A 
ATOM     14  C   UNL     1       1.145   4.591   2.838  0.00  0.00    +0.004 A 
ATOM     15  C   UNL     1       0.596   4.240   1.619  0.00  0.00    +0.006 A 
ATOM     16  C   UNL     1       0.987   4.874   5.320  0.00  0.00    +0.044 C 
ENDBRANCH   7  10
BRANCH   1  17
ATOM     17  C   UNL     1      -0.028   1.197   0.188  0.00  0.00    +0.339 C 
ATOM     18  O   UNL     1       0.468   0.964   1.274  0.00  0.00    -0.245 OA
BRANCH  17  19
ATOM     19  O   UNL     1       0.590   0.784  -0.939  0.00  0.00    -0.462 OA
BRANCH  19  21
ATOM     20  C   UNL     1       2.370  -0.305  -2.157  0.00  0.00    +0.048 C 
ATOM     21  C   UNL     1       1.823   0.080  -0.781  0.00  0.00    +0.229 C 
ENDBRANCH  19  21
ENDBRANCH  17  19
ENDBRANCH   1  17
BRANCH   2  22
ATOM     22  C   UNL     1      -2.414  -0.262  -0.215  0.00  0.00    +0.136 C 
BRANCH  22  23
ATOM     23  N   UNL     1      -3.152  -0.853   0.909  0.00  0.00    -0.294 NA
ATOM     24  C   UNL     1      -2.463  -0.601   2.182  0.00  0.00    +0.104 C 
ATOM     25  C   UNL     1      -3.348  -1.072   3.340  0.00  0.00    +0.126 C 
ATOM     26  N   UNL     1      -3.723  -2.474   3.102  0.00  0.00    -0.265 N 
ATOM     27  C   UNL     1      -4.294  -2.830   1.794  0.00  0.00    +0.126 C 
ATOM     28  C   UNL     1      -3.371  -2.290   0.697  0.00  0.00    +0.104 C 
ATOM     29  C   UNL     1      -3.546  -3.409   4.057  0.00  0.00    +0.403 C 
ATOM     30  O   UNL     1      -3.860  -4.563   3.843  0.00  0.00    -0.226 OA
BRANCH  29  31
ATOM     31  O   UNL     1      -3.021  -3.064   5.248  0.00  0.00    -0.451 OA
BRANCH  31  32
ATOM     32  C   UNL     1      -2.860  -4.122   6.229  0.00  0.00    +0.230 C 
ATOM     33  C   UNL     1      -2.254  -3.543   7.509  0.00  0.00    +0.048 C 
ENDBRANCH  31  32
ENDBRANCH  29  31
ENDBRANCH  22  23
ENDBRANCH   2  22
TORSDOF 8
