REMARK  Name = ZINC19848553
REMARK  9 active torsions:
REMARK  status: ('A' for Active; 'I' for Inactive)
REMARK    1  A    between atoms: C_1  and  C_2
REMARK    2  A    between atoms: C_3  and  C_14
REMARK    3  A    between atoms: C_14  and  C_15
REMARK    4  A    between atoms: C_15  and  N_16
REMARK    5  A    between atoms: N_16  and  C_17
REMARK    6  A    between atoms: C_17  and  C_23
REMARK    7  A    between atoms: N_27  and  C_28
REMARK    8  A    between atoms: C_31  and  O_34
REMARK    9  A    between atoms: O_34  and  C_35
REMARK                            x       y       z     vdW  Elec       q    Type
REMARK                         _______ _______ _______ _____ _____    ______ ____
ROOT
ATOM      1  C   UNL     1       3.532   0.877  -5.704  0.00  0.00    +0.081 C 
ATOM      2  C   UNL     1       4.737   1.793  -5.484  0.00  0.00    +0.030 C 
ATOM      3  C   UNL     1       4.434   3.180  -6.054  0.00  0.00    +0.002 C 
ATOM      4  C   UNL     1       4.149   3.064  -7.553  0.00  0.00    +0.000 C 
ATOM      5  C   UNL     1       2.944   2.147  -7.773  0.00  0.00    +0.002 C 
ATOM      6  C   UNL     1       3.247   0.761  -7.203  0.00  0.00    +0.030 C 
ENDROOT
BRANCH   1   7
ATOM      7  C   UNL     1       3.830  -0.489  -5.142  0.00  0.00    +0.176 A 
ATOM      8  N   UNL     1       4.731  -0.776  -4.238  0.00  0.00    -0.111 NA
ATOM      9  N   UNL     1       4.729  -2.034  -3.980  0.00  0.00    -0.023 NA
ATOM     10  N   UNL     1       3.836  -2.633  -4.692  0.00  0.00    -0.039 NA
ATOM     11  N   UNL     1       3.213  -1.644  -5.474  0.00  0.00    -0.195 N 
BRANCH  11  12
ATOM     12  C   UNL     1       2.175  -1.819  -6.401  0.00  0.00    +0.069 A 
ATOM     13  C   UNL     1       0.992  -1.107  -6.261  0.00  0.00    +0.031 A 
ATOM     14  C   UNL     1      -0.029  -1.280  -7.175  0.00  0.00    +0.048 A 
ATOM     15  C   UNL     1       0.127  -2.164  -8.232  0.00  0.00    +0.120 A 
ATOM     16  C   UNL     1       1.310  -2.876  -8.372  0.00  0.00    +0.048 A 
ATOM     17  C   UNL     1       2.334  -2.700  -7.463  0.00  0.00    +0.031 A 
BRANCH  15  18
ATOM     18  O   UNL     1      -0.878  -2.333  -9.131  0.00  0.00    -0.495 OA
ATOM     19  C   UNL     1      -0.693  -3.338 -10.130  0.00  0.00    +0.277 C 
ENDBRANCH  15  18
ENDBRANCH  11  12
ENDBRANCH   1   7
BRANCH   1  20
ATOM     20  N   UNL     1       2.358   1.440  -5.024  0.00  0.00    -0.304 NA
ATOM     21  H   UNL     1       1.518   0.946  -5.285  0.00  0.00    +0.123 HD
BRANCH  20  22
ATOM     22  C   UNL     1       2.541   1.436  -3.567  0.00  0.00    +0.086 C 
BRANCH  22  23
ATOM     23  C   UNL     1       1.256   1.916  -2.890  0.00  0.00    +0.052 C 
BRANCH  23  26
ATOM     24  C   UNL     1       2.465   4.359  -1.405  0.00  0.00    +0.063 C 
ATOM     25  C   UNL     1       2.004   3.081  -0.754  0.00  0.00    +0.017 A 
ATOM     26  C   UNL     1       1.482   2.029  -1.404  0.00  0.00    -0.018 A 
ATOM     27  C   UNL     1       1.174   1.012  -0.396  0.00  0.00    +0.005 A 
ATOM     28  C   UNL     1       0.626  -0.272  -0.449  0.00  0.00    +0.012 A 
ATOM     29  C   UNL     1       0.462  -0.988   0.703  0.00  0.00    +0.022 A 
ATOM     30  C   UNL     1       0.836  -0.450   1.928  0.00  0.00    +0.061 A 
ATOM     31  C   UNL     1       1.379   0.816   2.003  0.00  0.00    +0.083 A 
ATOM     32  C   UNL     1       1.555   1.563   0.841  0.00  0.00    +0.067 A 
ATOM     33  N   UNL     1       2.061   2.818   0.588  0.00  0.00    -0.357 N 
ATOM     34  H   UNL     1       2.403   3.427   1.261  0.00  0.00    +0.166 HD
ATOM     35 CL   UNL     1       1.841   1.477   3.540  0.00  0.00    -0.080 Cl
ATOM     36 CL   UNL     1       0.618  -1.379   3.378  0.00  0.00    -0.082 Cl
ENDBRANCH  23  26
ENDBRANCH  22  23
ENDBRANCH  20  22
ENDBRANCH   1  20
TORSDOF 7
