REMARK  Name = ZINC38744284
REMARK  4 active torsions:
REMARK  status: ('A' for Active; 'I' for Inactive)
REMARK    1  A    between atoms: C_1  and  C_2
REMARK    2  A    between atoms: C_4  and  C_8
REMARK    3  A    between atoms: C_12  and  C_17
REMARK    4  A    between atoms: C_17  and  N_18
REMARK                            x       y       z     vdW  Elec       q    Type
REMARK                         _______ _______ _______ _____ _____    ______ ____
ROOT
ATOM      1  C   UNL     1      -0.964  -2.951   1.248  0.00  0.00    +0.182 C 
ATOM      2  N   UNL     1      -0.339  -4.299   1.313  0.00  0.00    -0.265 N 
ATOM      3  N   UNL     1       0.849  -4.351   1.980  0.00  0.00    -0.223 N 
ATOM      4  C   UNL     1       1.946  -5.192   2.037  0.00  0.00    +0.171 A 
ATOM      5  N   UNL     1       2.769  -4.718   2.924  0.00  0.00    -0.130 NA
ATOM      6  N   UNL     1       2.297  -3.634   3.431  0.00  0.00    -0.121 NA
ATOM      7  C   UNL     1       1.155  -3.363   2.881  0.00  0.00    +0.210 A 
ATOM      8  S   UNL     1      -0.215  -2.228   2.772  0.00  0.00    -0.058 S 
ATOM      9  H   UNL     1      -0.988  -4.981   1.677  0.00  0.00    +0.168 HD
ENDROOT
BRANCH   1  13
ATOM     10  C   UNL     1      -0.018   1.503   0.010  0.00  0.00    +0.067 C 
ATOM     11  C   UNL     1       0.002  -0.004   0.002  0.00  0.00    +0.058 C 
ATOM     12  C   UNL     1      -1.086  -0.777   0.003  0.00  0.00    +0.029 C 
ATOM     13  C   UNL     1      -0.531  -2.190  -0.007  0.00  0.00    +0.185 C 
ATOM     14  N   UNL     1       0.926  -1.973  -0.013  0.00  0.00    -0.177 NA
ATOM     15  N   UNL     1       1.125  -0.756  -0.013  0.00  0.00    -0.159 NA
ENDBRANCH   1  13
BRANCH   4  16
ATOM     16  C   UNL     1       2.151  -6.438   1.214  0.00  0.00    +0.201 C 
BRANCH  16  17
ATOM     17  N   UNL     1       2.841  -6.093  -0.031  0.00  0.00    -0.323 N 
ATOM     18  C   UNL     1       2.256  -5.825  -1.230  0.00  0.00    +0.200 A 
ATOM     19  N   UNL     1       3.165  -5.556  -2.121  0.00  0.00    -0.236 NA
ATOM     20  C   UNL     1       4.397  -5.633  -1.555  0.00  0.00    +0.089 A 
ATOM     21  C   UNL     1       4.206  -5.973  -0.205  0.00  0.00    +0.069 A 
ATOM     22  C   UNL     1       5.303  -6.119   0.633  0.00  0.00    +0.028 A 
ATOM     23  C   UNL     1       6.574  -5.926   0.134  0.00  0.00    +0.002 A 
ATOM     24  C   UNL     1       6.762  -5.586  -1.198  0.00  0.00    +0.002 A 
ATOM     25  C   UNL     1       5.694  -5.445  -2.039  0.00  0.00    +0.030 A 
ENDBRANCH  16  17
ENDBRANCH   4  16
TORSDOF 3
