REMARK  Name = ZINC39795120
REMARK  5 active torsions:
REMARK  status: ('A' for Active; 'I' for Inactive)
REMARK    1  A    between atoms: C_1  and  C_2
REMARK    2  A    between atoms: C_2  and  C_34
REMARK    3  A    between atoms: C_6  and  C_17
REMARK    4  A    between atoms: C_20  and  C_22
REMARK    5  A    between atoms: C_27  and  N_28
REMARK                            x       y       z     vdW  Elec       q    Type
REMARK                         _______ _______ _______ _____ _____    ______ ____
ROOT
ATOM      1  C   UNL     1      -0.019   1.526   0.010  0.00  0.00    +0.011 C 
ATOM      2  C   UNL     1       0.002  -0.004   0.002  0.00  0.00    -0.023 C 
ATOM      3  C   UNL     1      -1.431  -0.538   0.039  0.00  0.00    +0.058 C 
ATOM      4  C   UNL     1      -1.410  -2.046   0.082  0.00  0.00    +0.017 C 
ATOM      5  C   UNL     1      -0.398  -2.710   0.678  0.00  0.00    +0.027 C 
ATOM      6  C   UNL     1      -0.385  -4.217   0.731  0.00  0.00    +0.128 C 
ATOM      7  C   UNL     1      -1.321  -4.805  -0.283  0.00  0.00    +0.070 A 
ATOM      8  C   UNL     1      -2.304  -4.049  -0.849  0.00  0.00    +0.111 A 
ATOM      9  N   UNL     1      -3.151  -4.617  -1.770  0.00  0.00    -0.323 N 
ATOM     10  C   UNL     1      -3.011  -5.910  -2.114  0.00  0.00    +0.159 A 
ATOM     11  S   UNL     1      -4.080  -6.597  -3.263  0.00  0.00    -0.013 S 
ATOM     12  N   UNL     1      -2.045  -6.671  -1.570  0.00  0.00    -0.302 N 
ATOM     13  C   UNL     1      -1.194  -6.154  -0.662  0.00  0.00    +0.258 A 
ATOM     14  O   UNL     1      -0.321  -6.849  -0.173  0.00  0.00    -0.267 OA
ATOM     15  N   UNL     1      -2.443  -2.728  -0.503  0.00  0.00    -0.304 N 
ATOM     16  C   UNL     1       0.675  -2.018   1.267  0.00  0.00    +0.162 C 
ATOM     17  O   UNL     1       1.566  -2.646   1.805  0.00  0.00    -0.292 OA
ATOM     18  C   UNL     1       0.743  -0.516   1.242  0.00  0.00    +0.086 C 
ATOM     19  C   UNL     1       0.709  -0.502  -1.261  0.00  0.00    +0.011 C 
ATOM     20  H   UNL     1      -1.960  -7.601  -1.833  0.00  0.00    +0.171 HD
ATOM     21  H   UNL     1      -3.282  -2.273  -0.674  0.00  0.00    +0.153 HD
ATOM     22  H   UNL     1      -3.852  -4.082  -2.173  0.00  0.00    +0.169 HD
ENDROOT
BRANCH   6  23
ATOM     23  C   UNL     1      -0.803  -4.667   2.107  0.00  0.00    +0.118 A 
ATOM     24  C   UNL     1      -0.056  -5.401   2.955  0.00  0.00    +0.046 A 
ATOM     25  C   UNL     1      -0.824  -5.594   4.121  0.00  0.00    +0.050 A 
ATOM     26  C   UNL     1      -2.010  -4.960   3.918  0.00  0.00    +0.137 A 
ATOM     27  O   UNL     1      -1.981  -4.397   2.695  0.00  0.00    -0.459 OA
BRANCH  26  28
ATOM     28  C   UNL     1      -3.134  -4.895   4.876  0.00  0.00    +0.047 A 
ATOM     29  C   UNL     1      -3.607  -6.061   5.481  0.00  0.00    +0.014 A 
ATOM     30  C   UNL     1      -4.657  -5.993   6.374  0.00  0.00    +0.001 A 
ATOM     31  C   UNL     1      -5.239  -4.774   6.670  0.00  0.00    +0.002 A 
ATOM     32  C   UNL     1      -4.775  -3.615   6.074  0.00  0.00    +0.033 A 
ATOM     33  C   UNL     1      -3.722  -3.668   5.184  0.00  0.00    +0.137 A 
BRANCH  33  34
ATOM     34  N   UNL     1      -3.222  -2.426   4.552  0.00  0.00    +0.057 N 
ATOM     35  O   UNL     1      -3.733  -1.363   4.820  0.00  0.00    -0.126 OA
ATOM     36  O   UNL     1      -2.303  -2.474   3.768  0.00  0.00    -0.126 OA
ENDBRANCH  33  34
ENDBRANCH  26  28
ENDBRANCH   6  23
TORSDOF 3
