REMARK  Name = ZINC03595013
REMARK  4 active torsions:
REMARK  status: ('A' for Active; 'I' for Inactive)
REMARK    1  A    between atoms: C_1  and  C_2
REMARK    2  A    between atoms: C_2  and  C_23
REMARK    3  A    between atoms: N_5  and  C_9
REMARK    4  A    between atoms: C_9  and  C_10
REMARK                            x       y       z     vdW  Elec       q    Type
REMARK                         _______ _______ _______ _____ _____    ______ ____
ROOT
ATOM      1  C   UNL     1      -3.329   3.554   1.328  0.00  0.00    +0.047 C 
ATOM      2  C   UNL     1      -2.553   3.871   0.048  0.00  0.00    +0.136 C 
ATOM      3  C   UNL     1      -3.376   3.520  -1.175  0.00  0.00    +0.251 C 
ATOM      4  O   UNL     1      -3.793   2.425  -1.488  0.00  0.00    -0.272 OA
ATOM      5  N   UNL     1      -3.549   4.678  -1.843  0.00  0.00    -0.215 N 
ATOM      6  C   UNL     1      -2.954   5.701  -1.219  0.00  0.00    +0.310 C 
ATOM      7  O   UNL     1      -2.971   6.844  -1.629  0.00  0.00    -0.252 OA
ATOM      8  N   UNL     1      -2.336   5.322  -0.085  0.00  0.00    -0.281 N 
ATOM      9  H   UNL     1      -1.844   5.893   0.525  0.00  0.00    +0.152 HD
ENDROOT
BRANCH   2  10
ATOM     10  C   UNL     1      -1.238   3.135   0.031  0.00  0.00    +0.003 A 
ATOM     11  C   UNL     1      -0.050   3.842   0.024  0.00  0.00    +0.009 A 
ATOM     12  C   UNL     1       1.156   3.167   0.008  0.00  0.00    +0.020 A 
ATOM     13  C   UNL     1       1.175   1.784   0.000  0.00  0.00    +0.042 A 
ATOM     14  C   UNL     1      -0.013   1.076   0.008  0.00  0.00    +0.040 A 
ATOM     15  C   UNL     1      -1.220   1.752   0.017  0.00  0.00    +0.048 A 
ATOM     16 CL   UNL     1      -2.712   0.864   0.019  0.00  0.00    -0.083 Cl
ATOM     17 CL   UNL     1       2.691   0.937  -0.018  0.00  0.00    -0.083 Cl
ENDBRANCH   2  10
BRANCH   5  18
ATOM     18  C   UNL     1      -4.294   4.800  -3.099  0.00  0.00    +0.214 C 
BRANCH  18  19
ATOM     19  C   UNL     1      -5.742   5.087  -2.797  0.00  0.00    +0.238 C 
ATOM     20  O   UNL     1      -6.115   5.180  -1.647  0.00  0.00    -0.273 OA
ATOM     21  N   UNL     1      -6.623   5.241  -3.806  0.00  0.00    -0.260 N 
ATOM     22  C   UNL     1      -6.196   5.133  -5.209  0.00  0.00    +0.209 C 
ATOM     23  C   UNL     1      -6.865   6.220  -6.011  0.00  0.00    +0.235 C 
ATOM     24  O   UNL     1      -6.314   6.663  -6.996  0.00  0.00    -0.274 OA
ATOM     25  N   UNL     1      -8.068   6.704  -5.648  0.00  0.00    -0.283 N 
ATOM     26  C   UNL     1      -8.703   6.246  -4.488  0.00  0.00    +0.055 A 
ATOM     27  C   UNL     1      -7.978   5.503  -3.550  0.00  0.00    +0.058 A 
ATOM     28  C   UNL     1      -8.590   5.055  -2.397  0.00  0.00    +0.025 A 
ATOM     29  C   UNL     1      -9.928   5.332  -2.176  0.00  0.00    +0.002 A 
ATOM     30  C   UNL     1     -10.650   6.058  -3.105  0.00  0.00    +0.002 A 
ATOM     31  C   UNL     1     -10.042   6.516  -4.260  0.00  0.00    +0.025 A 
ATOM     32  H   UNL     1      -8.499   7.378  -6.196  0.00  0.00    +0.155 HD
ENDBRANCH  18  19
ENDBRANCH   5  18
TORSDOF 3
