REMARK  Name = ZINC41600105
REMARK  2 active torsions:
REMARK  status: ('A' for Active; 'I' for Inactive)
REMARK    1  A    between atoms: C_3  and  C_6
REMARK    2  A    between atoms: N_13  and  C_14
REMARK                            x       y       z     vdW  Elec       q    Type
REMARK                         _______ _______ _______ _____ _____    ______ ____
ROOT
ATOM      1  C   UNL     1       3.737   1.823  -0.024  0.00  0.00    +0.164 A 
ATOM      2  C   UNL     1       4.871   0.881  -0.046  0.00  0.00    +0.301 A 
ATOM      3  O   UNL     1       4.672  -0.323  -0.056  0.00  0.00    -0.263 OA
ATOM      4  N   UNL     1       6.119   1.360  -0.056  0.00  0.00    -0.174 NA
ATOM      5  C   UNL     1       6.342   2.659  -0.047  0.00  0.00    +0.213 A 
ATOM      6  N   UNL     1       5.322   3.552  -0.026  0.00  0.00    -0.248 N 
ATOM      7  N   UNL     1       3.990   3.115  -0.020  0.00  0.00    -0.165 NA
ATOM      8  N   UNL     1       7.633   3.118  -0.057  0.00  0.00    -0.311 N 
ATOM      9  H   UNL     1       7.809   4.072  -0.051  0.00  0.00    +0.149 HD
ATOM     10  H   UNL     1       5.516   4.503  -0.019  0.00  0.00    +0.192 HD
ENDROOT
BRANCH   8  11
ATOM     11  C   UNL     1       8.748   2.167  -0.079  0.00  0.00    +0.073 C 
ATOM     12  C   UNL     1       9.038   1.754  -1.524  0.00  0.00    +0.022 C 
ATOM     13  C   UNL     1      10.202   0.762  -1.546  0.00  0.00    +0.002 C 
ATOM     14  C   UNL     1      11.445   1.420  -0.945  0.00  0.00    +0.000 C 
ATOM     15  C   UNL     1      11.155   1.833   0.499  0.00  0.00    +0.002 C 
ATOM     16  C   UNL     1       9.991   2.826   0.522  0.00  0.00    +0.022 C 
ENDBRANCH   8  11
BRANCH   1  19
ATOM     17  C   UNL     1      -0.016   1.354   0.009  0.00  0.00    +0.008 A 
ATOM     18  C   UNL     1       1.177   2.042   0.002  0.00  0.00    +0.018 A 
ATOM     19  C   UNL     1       2.347   1.329  -0.013  0.00  0.00    +0.045 A 
ATOM     20  S   UNL     1       1.752  -0.355  -0.017  0.00  0.00    -0.095 S 
ATOM     21  C   UNL     1       0.002  -0.004   0.002  0.00  0.00    +0.046 A 
ENDBRANCH   1  19
TORSDOF 2
