REMARK  Name = ZINC04774099
REMARK  6 active torsions:
REMARK  status: ('A' for Active; 'I' for Inactive)
REMARK    1  A    between atoms: C_3  and  S_21
REMARK    2  A    between atoms: C_6  and  N_7
REMARK    3  A    between atoms: N_7  and  C_8
REMARK    4  A    between atoms: C_8  and  N_10
REMARK    5  A    between atoms: N_10  and  C_11
REMARK    6  A    between atoms: S_21  and  N_24
REMARK                            x       y       z     vdW  Elec       q    Type
REMARK                         _______ _______ _______ _____ _____    ______ ____
ROOT
ATOM      1  N   UNL     1      -1.204   2.458  -0.041  0.00  0.00    -0.297 N 
ATOM      2  H   UNL     1      -1.060   3.392  -0.261  0.00  0.00    +0.154 HD
ENDROOT
BRANCH   1   8
ATOM      3  C   UNL     1      -3.407   2.288  -1.016  0.00  0.00    +0.025 A 
ATOM      4  C   UNL     1      -4.686   1.767  -0.999  0.00  0.00    +0.030 A 
ATOM      5  C   UNL     1      -5.068   0.903   0.011  0.00  0.00    +0.106 A 
ATOM      6  C   UNL     1      -4.171   0.554   1.003  0.00  0.00    +0.030 A 
ATOM      7  C   UNL     1      -2.889   1.067   0.989  0.00  0.00    +0.025 A 
ATOM      8  C   UNL     1      -2.502   1.935  -0.024  0.00  0.00    +0.033 A 
BRANCH   5   9
ATOM      9  S   UNL     1      -6.703   0.246   0.033  0.00  0.00    +0.061 S 
ATOM     10  O   UNL     1      -7.179   0.297  -1.305  0.00  0.00    -0.153 OA
ATOM     11  O   UNL     1      -6.644  -0.964   0.775  0.00  0.00    -0.153 OA
BRANCH   9  12
ATOM     12  N   UNL     1      -7.640   1.294   0.909  0.00  0.00    -0.177 NA
ATOM     13  C   UNL     1      -7.797   1.124   2.360  0.00  0.00    +0.109 C 
ATOM     14  C   UNL     1      -7.427   2.446   3.049  0.00  0.00    +0.017 C 
ATOM     15  C   UNL     1      -8.269   3.578   2.454  0.00  0.00    +0.003 C 
ATOM     16  C   UNL     1      -7.964   3.712   0.961  0.00  0.00    +0.017 C 
ATOM     17  C   UNL     1      -8.335   2.408   0.248  0.00  0.00    +0.109 C 
ENDBRANCH   9  12
ENDBRANCH   5   9
ENDBRANCH   1   8
BRANCH   1  18
ATOM     18  C   UNL     1      -0.154   1.663   0.247  0.00  0.00    +0.135 C 
ATOM     19  S   UNL     1      -0.392  -0.013   0.496  0.00  0.00    -0.019 S 
BRANCH  18  20
ATOM     20  N   UNL     1       1.085   2.188   0.333  0.00  0.00    -0.321 N 
ATOM     21  H   UNL     1       1.231   3.123   0.119  0.00  0.00    +0.148 HD
BRANCH  20  22
ATOM     22  C   UNL     1       2.209   1.347   0.750  0.00  0.00    +0.034 C 
ATOM     23  C   UNL     1       3.479   2.197   0.833  0.00  0.00    +0.029 C 
ATOM     24  C   UNL     1       4.653   1.319   1.268  0.00  0.00    -0.008 C 
ATOM     25  C   UNL     1       4.857   0.197   0.248  0.00  0.00    +0.007 C 
ATOM     26  C   UNL     1       3.587  -0.653   0.165  0.00  0.00    -0.008 C 
ATOM     27  C   UNL     1       2.413   0.225  -0.270  0.00  0.00    +0.029 C 
ATOM     28  C   UNL     1       3.289  -1.260   1.538  0.00  0.00    +0.007 C 
ATOM     29  C   UNL     1       3.086  -0.138   2.558  0.00  0.00    -0.008 C 
ATOM     30  C   UNL     1       4.355   0.712   2.641  0.00  0.00    +0.007 C 
ATOM     31  C   UNL     1       1.911   0.741   2.123  0.00  0.00    +0.029 C 
ENDBRANCH  20  22
ENDBRANCH  18  20
ENDBRANCH   1  18
TORSDOF 6
