REMARK  Name = ZINC13865516
REMARK  4 active torsions:
REMARK  status: ('A' for Active; 'I' for Inactive)
REMARK    1  A    between atoms: C_7  and  N_25
REMARK    2  A    between atoms: C_10  and  N_11
REMARK    3  A    between atoms: N_12  and  C_13
REMARK    4  A    between atoms: C_15  and  C_18
REMARK                            x       y       z     vdW  Elec       q    Type
REMARK                         _______ _______ _______ _____ _____    ______ ____
ROOT
ATOM      1  N   UNL     1       4.822  -0.541  -0.048  0.00  0.00    -0.128 NA
ATOM      2  N   UNL     1       5.691  -1.494  -0.062  0.00  0.00    -0.120 NA
ENDROOT
BRANCH   1  12
ATOM      3  C   UNL     1      -0.016   1.358   0.009  0.00  0.00    +0.001 A 
ATOM      4  C   UNL     1       1.159   2.104   0.002  0.00  0.00    +0.001 A 
ATOM      5  C   UNL     1       2.384   1.507  -0.013  0.00  0.00    +0.012 A 
ATOM      6  C   UNL     1       2.471   0.109  -0.021  0.00  0.00    +0.029 A 
ATOM      7  C   UNL     1       1.232  -0.679  -0.013  0.00  0.00    +0.023 A 
ATOM      8  C   UNL     1       0.002  -0.004   0.002  0.00  0.00    +0.012 A 
ATOM      9  C   UNL     1       1.623  -2.025  -0.025  0.00  0.00    +0.103 A 
ATOM     10  N   UNL     1       2.968  -2.094  -0.038  0.00  0.00    -0.326 N 
ATOM     11  H   UNL     1       3.478  -2.919  -0.048  0.00  0.00    +0.169 HD
ATOM     12  C   UNL     1       3.523  -0.826  -0.036  0.00  0.00    +0.162 A 
BRANCH   9  13
ATOM     13  N   UNL     1       0.770  -3.101  -0.022  0.00  0.00    -0.344 N 
ATOM     14  H   UNL     1      -0.190  -2.960  -0.011  0.00  0.00    +0.144 HD
ATOM     15  H   UNL     1       1.127  -4.003  -0.031  0.00  0.00    +0.144 HD
ENDBRANCH   9  13
ENDBRANCH   1  12
BRANCH   2  16
ATOM     16  C   UNL     1       7.009  -1.205  -0.074  0.00  0.00    +0.214 A 
ATOM     17  N   UNL     1       8.051  -2.030  -0.094  0.00  0.00    -0.220 NA
ATOM     18  C   UNL     1       9.287  -1.567  -0.104  0.00  0.00    +0.081 A 
ATOM     19  C   UNL     1       9.500  -0.213  -0.093  0.00  0.00    +0.077 A 
ATOM     20  S   UNL     1       7.817   0.390  -0.074  0.00  0.00    -0.054 S 
BRANCH  18  21
ATOM     21  C   UNL     1      10.437  -2.504  -0.126  0.00  0.00    +0.001 A 
ATOM     22  C   UNL     1      11.741  -2.012  -0.130  0.00  0.00    +0.011 A 
ATOM     23  C   UNL     1      12.806  -2.888  -0.150  0.00  0.00    +0.016 A 
ATOM     24  C   UNL     1      12.582  -4.254  -0.168  0.00  0.00    +0.018 A 
ATOM     25  C   UNL     1      11.289  -4.748  -0.164  0.00  0.00    +0.016 A 
ATOM     26  C   UNL     1      10.216  -3.880  -0.137  0.00  0.00    +0.011 A 
ATOM     27 BR   UNL     1      14.047  -5.449  -0.198  0.00  0.00    -0.050 Br
ENDBRANCH  18  21
ENDBRANCH   2  16
TORSDOF 4
