REMARK  Name = ZINC58126553
REMARK  13 active torsions:
REMARK  status: ('A' for Active; 'I' for Inactive)
REMARK    1  A    between atoms: C_1  and  C_2
REMARK    2  A    between atoms: C_2  and  C_3
REMARK    3  A    between atoms: C_3  and  N_4
REMARK    4  A    between atoms: N_7  and  C_8
REMARK    5  A    between atoms: C_8  and  C_9
REMARK    6  A    between atoms: C_8  and  C_10
REMARK    7  A    between atoms: C_8  and  C_11
REMARK    8  A    between atoms: N_13  and  C_14
REMARK    9  A    between atoms: C_14  and  C_15
REMARK   10  A    between atoms: C_14  and  C_16
REMARK   11  A    between atoms: C_19  and  N_22
REMARK   12  A    between atoms: C_23  and  C_25
REMARK   13  A    between atoms: C_25  and  C_26
REMARK                            x       y       z     vdW  Elec       q    Type
REMARK                         _______ _______ _______ _____ _____    ______ ____
ROOT
ATOM      1  C   UNL     1       2.061  -6.271  -3.297  0.00  0.00    +0.236 C 
ATOM      2  O   UNL     1       1.780  -7.052  -4.181  0.00  0.00    -0.273 OA
ATOM      3  N   UNL     1       2.112  -6.691  -2.017  0.00  0.00    -0.307 N 
ATOM      4  H   UNL     1       2.337  -6.066  -1.310  0.00  0.00    +0.149 HD
ENDROOT
BRANCH   1   5
ATOM      5  C   UNL     1       2.355  -4.831  -3.629  0.00  0.00    +0.106 C 
ATOM      6  C   UNL     1       1.660  -4.458  -4.941  0.00  0.00    +0.041 C 
ATOM      7  C   UNL     1       3.865  -4.640  -3.780  0.00  0.00    +0.041 C 
BRANCH   5  11
ATOM      8  N   UNL     1       1.556  -1.842  -1.643  0.00  0.00    -0.299 N 
ATOM      9  C   UNL     1       2.012  -2.634  -2.634  0.00  0.00    +0.300 C 
ATOM     10  O   UNL     1       2.561  -2.142  -3.600  0.00  0.00    -0.253 OA
ATOM     11  N   UNL     1       1.859  -3.970  -2.553  0.00  0.00    -0.286 N 
ATOM     12  H   UNL     1       1.117  -2.234  -0.872  0.00  0.00    +0.150 HD
ATOM     13  H   UNL     1       1.421  -4.362  -1.781  0.00  0.00    +0.151 HD
BRANCH   8  14
ATOM     14  C   UNL     1       1.722  -0.389  -1.731  0.00  0.00    +0.105 C 
BRANCH  14  16
ATOM     15  C   UNL     1       1.294   1.787  -0.580  0.00  0.00    +0.005 C 
ATOM     16  C   UNL     1       1.121   0.270  -0.487  0.00  0.00    +0.015 C 
ENDBRANCH  14  16
ENDBRANCH   8  14
ENDBRANCH   5  11
ENDBRANCH   1   5
BRANCH   3  17
ATOM     17  C   UNL     1       1.826  -8.091  -1.694  0.00  0.00    +0.100 C 
ATOM     18  C   UNL     1       0.316  -8.282  -1.543  0.00  0.00    +0.033 C 
BRANCH  17  19
ATOM     19  C   UNL     1       2.510  -8.458  -0.402  0.00  0.00    -0.027 A 
ATOM     20  C   UNL     1       2.530  -7.558   0.648  0.00  0.00    +0.007 A 
ATOM     21  C   UNL     1       3.156  -7.892   1.833  0.00  0.00    +0.023 A 
ATOM     22  C   UNL     1       3.766  -9.132   1.970  0.00  0.00    +0.033 A 
ATOM     23  C   UNL     1       3.744 -10.033   0.913  0.00  0.00    +0.023 A 
ATOM     24  C   UNL     1       3.112  -9.696  -0.268  0.00  0.00    +0.007 A 
BRANCH  22  25
ATOM     25  N   UNL     1       4.402  -9.472   3.169  0.00  0.00    -0.286 N 
ATOM     26  C   UNL     1       3.920  -9.012   4.341  0.00  0.00    +0.217 C 
ATOM     27  O   UNL     1       2.884  -8.383   4.365  0.00  0.00    -0.275 OA
ATOM     28  H   UNL     1       5.188 -10.039   3.156  0.00  0.00    +0.155 HD
BRANCH  26  29
ATOM     29  C   UNL     1       4.671  -9.279   5.620  0.00  0.00    +0.093 C 
ATOM     30  C   UNL     1       3.915  -8.653   6.794  0.00  0.00    +0.013 C 
ENDBRANCH  26  29
ENDBRANCH  22  25
ENDBRANCH  17  19
ENDBRANCH   3  17
TORSDOF 8
