REMARK  Name = ZINC60157886
REMARK  11 active torsions:
REMARK  status: ('A' for Active; 'I' for Inactive)
REMARK    1  A    between atoms: C_1  and  C_2
REMARK    2  A    between atoms: C_3  and  C_9
REMARK    3  A    between atoms: C_4  and  C_8
REMARK    4  A    between atoms: N_5  and  C_7
REMARK    5  A    between atoms: C_9  and  C_11
REMARK    6  A    between atoms: C_9  and  N_12
REMARK    7  A    between atoms: C_13  and  C_15
REMARK    8  A    between atoms: C_15  and  N_16
REMARK    9  A    between atoms: C_21  and  C_28
REMARK   10  A    between atoms: C_24  and  C_26
REMARK   11  A    between atoms: C_24  and  C_27
REMARK                            x       y       z     vdW  Elec       q    Type
REMARK                         _______ _______ _______ _____ _____    ______ ____
ROOT
ATOM      1  N   UNL     1       2.632   1.752  -5.831  0.00  0.00    -0.215 N 
ATOM      2  C   UNL     1       3.750   1.160  -6.299  0.00  0.00    +0.247 C 
ATOM      3  O   UNL     1       4.464   0.374  -5.715  0.00  0.00    -0.273 OA
ATOM      4  C   UNL     1       3.925   1.684  -7.706  0.00  0.00    +0.113 C 
ATOM      5  C   UNL     1       3.865   0.539  -8.711  0.00  0.00    +0.038 C 
ATOM      6  C   UNL     1       4.014   1.095 -10.130  0.00  0.00    -0.011 C 
ATOM      7  C   UNL     1       5.350   1.832 -10.251  0.00  0.00    +0.009 C 
ATOM      8  C   UNL     1       5.385   2.991  -9.253  0.00  0.00    -0.032 C 
ATOM      9  C   UNL     1       5.242   2.443  -7.830  0.00  0.00    +0.041 C 
ATOM     10  C   UNL     1       4.233   3.954  -9.547  0.00  0.00    +0.011 C 
ATOM     11  C   UNL     1       6.717   3.734  -9.382  0.00  0.00    +0.011 C 
ATOM     12  C   UNL     1       3.975  -0.058 -11.136  0.00  0.00    +0.007 C 
ATOM     13  N   UNL     1       2.787   2.594  -7.893  0.00  0.00    -0.285 N 
ATOM     14  C   UNL     1       2.084   2.564  -6.744  0.00  0.00    +0.310 C 
ATOM     15  O   UNL     1       1.069   3.204  -6.557  0.00  0.00    -0.252 OA
ATOM     16  H   UNL     1       2.581   3.110  -8.687  0.00  0.00    +0.151 HD
ENDROOT
BRANCH   1  17
ATOM     17  C   UNL     1       2.082   1.530  -4.492  0.00  0.00    +0.213 C 
BRANCH  17  19
ATOM     18  N   UNL     1       0.486  -0.017  -3.405  0.00  0.00    -0.307 N 
ATOM     19  C   UNL     1       1.118   0.372  -4.530  0.00  0.00    +0.231 C 
ATOM     20  O   UNL     1       0.912  -0.211  -5.574  0.00  0.00    -0.274 OA
ATOM     21  H   UNL     1       0.652   0.449  -2.570  0.00  0.00    +0.149 HD
BRANCH  18  22
ATOM     22  C   UNL     1      -0.450  -1.143  -3.442  0.00  0.00    +0.104 C 
ATOM     23  C   UNL     1      -1.831  -0.643  -3.870  0.00  0.00    +0.033 C 
BRANCH  22  26
ATOM     24  C   UNL     1      -0.739   0.422  -0.702  0.00  0.00    +0.068 C 
ATOM     25  C   UNL     1      -0.671  -1.075  -0.863  0.00  0.00    +0.065 A 
ATOM     26  C   UNL     1      -0.543  -1.764  -2.073  0.00  0.00    +0.016 A 
ATOM     27  C   UNL     1      -0.518  -3.089  -1.796  0.00  0.00    +0.041 A 
ATOM     28  N   UNL     1      -0.627  -3.232  -0.459  0.00  0.00    -0.271 N 
ATOM     29  N   UNL     1      -0.716  -1.953   0.106  0.00  0.00    -0.176 NA
ATOM     30  C   UNL     1      -0.643  -4.500   0.274  0.00  0.00    +0.172 C 
ATOM     31  C   UNL     1      -0.393  -4.204  -2.802  0.00  0.00    +0.065 C 
ENDBRANCH  22  26
ENDBRANCH  18  22
ENDBRANCH  17  19
ENDBRANCH   1  17
TORSDOF 4
