REMARK  Name = ZINC19926250
REMARK  11 active torsions:
REMARK  status: ('A' for Active; 'I' for Inactive)
REMARK    1  A    between atoms: C_1  and  C_2
REMARK    2  A    between atoms: C_2  and  O_4
REMARK    3  A    between atoms: O_4  and  C_5
REMARK    4  A    between atoms: C_9  and  C_35
REMARK    5  A    between atoms: C_14  and  C_34
REMARK    6  A    between atoms: C_15  and  C_28
REMARK    7  A    between atoms: C_19  and  O_27
REMARK    8  A    between atoms: C_24  and  O_26
REMARK    9  A    between atoms: C_35  and  O_36
REMARK   10  A    between atoms: O_36  and  S_37
REMARK   11  A    between atoms: S_37  and  C_40
REMARK                            x       y       z     vdW  Elec       q    Type
REMARK                         _______ _______ _______ _____ _____    ______ ____
ROOT
ATOM      1  C   UNL     1      -3.667   7.755   5.227  0.00  0.00    +0.179 C 
ATOM      2  C   UNL     1      -4.289   7.725   3.830  0.00  0.00    +0.045 C 
ATOM      3  C   UNL     1      -3.359   6.979   2.872  0.00  0.00    +0.016 C 
ATOM      4  C   UNL     1      -2.007   7.693   2.813  0.00  0.00    +0.028 C 
ATOM      5  C   UNL     1      -1.079   6.960   1.848  0.00  0.00    +0.006 C 
ATOM      6  C   UNL     1      -0.866   5.519   2.322  0.00  0.00    +0.005 C 
ATOM      7  C   UNL     1      -0.028   4.789   1.291  0.00  0.00    +0.010 C 
ATOM      8  C   UNL     1       1.347   5.438   1.120  0.00  0.00    +0.004 C 
ATOM      9  C   UNL     1       1.935   4.888  -0.207  0.00  0.00    +0.027 C 
ATOM     10  C   UNL     1       1.495   5.867  -1.312  0.00  0.00    +0.011 C 
ATOM     11  C   UNL     1       0.701   6.994  -0.613  0.00  0.00    +0.036 C 
ATOM     12  C   UNL     1       1.214   6.945   0.839  0.00  0.00    +0.075 C 
ATOM     13  C   UNL     1       0.281   7.652   1.795  0.00  0.00    +0.025 C 
ATOM     14  C   UNL     1       0.896   7.687   3.196  0.00  0.00    +0.009 C 
ATOM     15  C   UNL     1      -0.035   8.440   4.148  0.00  0.00    +0.036 C 
ATOM     16  C   UNL     1      -1.385   7.722   4.210  0.00  0.00    +0.077 C 
ATOM     17  C   UNL     1      -2.315   8.469   5.168  0.00  0.00    +0.080 C 
ATOM     18  C   UNL     1       2.273   5.164   2.308  0.00  0.00    +0.014 C 
ENDROOT
BRANCH   9  19
ATOM     19  C   UNL     1       1.385   3.512  -0.486  0.00  0.00    -0.022 C 
ATOM     20  C   UNL     1       0.441   3.201  -1.369  0.00  0.00    +0.094 C 
ATOM     21  C   UNL     1       0.193   1.757  -1.332  0.00  0.00    +0.332 C 
ATOM     22  O   UNL     1      -0.616   1.170  -2.025  0.00  0.00    -0.246 OA
ATOM     23  O   UNL     1       0.988   1.178  -0.414  0.00  0.00    -0.457 OA
ATOM     24  C   UNL     1       1.802   2.224   0.185  0.00  0.00    +0.264 C 
ENDBRANCH   9  19
BRANCH  16  25
ATOM     25  O   UNL     1      -1.192   6.384   4.674  0.00  0.00    -0.388 OA
ATOM     26  H   UNL     1      -0.752   6.204   5.666  0.00  0.00    +0.210 HD
ENDBRANCH  16  25
BRANCH  12  27
ATOM     27  O   UNL     1       2.506   7.552   0.902  0.00  0.00    -0.388 OA
ATOM     28  H   UNL     1       2.614   8.633   0.727  0.00  0.00    +0.210 HD
ENDBRANCH  12  27
BRANCH   1  29
ATOM     29  O   UNL     1      -3.475   6.395   5.700  0.00  0.00    -0.461 OA
BRANCH  29  31
ATOM     30  C   UNL     1      -4.362   4.433   6.908  0.00  0.00    +0.136 C 
ATOM     31  C   UNL     1      -4.488   5.840   6.386  0.00  0.00    +0.304 C 
ATOM     32  O   UNL     1      -5.500   6.470   6.583  0.00  0.00    -0.251 OA
ENDBRANCH  29  31
ENDBRANCH   1  29
BRANCH   4  33
ATOM     33  C   UNL     1      -2.212   9.127   2.320  0.00  0.00    +0.203 C 
BRANCH  33  34
ATOM     34  O   UNL     1      -2.870   9.104   1.051  0.00  0.00    -0.238 OA
BRANCH  34  35
ATOM     35  S   UNL     1      -3.125  10.484   0.462  0.00  0.00    +0.079 S 
ATOM     36  O   UNL     1      -3.998  10.254  -0.636  0.00  0.00    -0.147 OA
ATOM     37  O   UNL     1      -3.542  11.278   1.564  0.00  0.00    -0.147 OA
ATOM     38  C   UNL     1      -1.506  11.044  -0.134  0.00  0.00    +0.228 C 
ENDBRANCH  34  35
ENDBRANCH  33  34
ENDBRANCH   4  33
TORSDOF 8
