REMARK  Name = ZINC13476993
REMARK  6 active torsions:
REMARK  status: ('A' for Active; 'I' for Inactive)
REMARK    1  A    between atoms: C_1  and  N_2
REMARK    2  A    between atoms: N_2  and  C_3
REMARK    3  A    between atoms: N_2  and  C_4
REMARK    4  A    between atoms: C_7  and  C_10
REMARK    5  A    between atoms: C_11  and  C_12
REMARK    6  A    between atoms: N_18  and  C_19
REMARK                            x       y       z     vdW  Elec       q    Type
REMARK                         _______ _______ _______ _____ _____    ______ ____
ROOT
ATOM      1  C   UNL     1      -0.025  -2.807  -7.285  0.00  0.00    +0.020 C 
ATOM      2  C   UNL     1      -0.040  -2.118  -8.463  0.00  0.00    +0.077 C 
ATOM      3  C   UNL     1      -0.050  -0.665  -8.695  0.00  0.00    +0.256 C 
ATOM      4  O   UNL     1      -0.044   0.127  -7.770  0.00  0.00    -0.269 OA
ATOM      5  N   UNL     1      -0.064  -0.256  -9.953  0.00  0.00    -0.260 N 
ATOM      6  C   UNL     1      -0.069  -1.167 -10.986  0.00  0.00    +0.166 C 
ATOM      7  N   UNL     1      -0.083  -0.935 -12.280  0.00  0.00    -0.226 NA
ATOM      8  S   UNL     1      -0.045  -2.739 -10.139  0.00  0.00    -0.049 S 
ATOM      9  H   UNL     1      -0.071   0.694 -10.149  0.00  0.00    +0.157 HD
ENDROOT
BRANCH   7  10
ATOM     10  C   UNL     1      -0.094   0.351 -12.745  0.00  0.00    +0.067 A 
ATOM     11  C   UNL     1      -0.943   1.298 -12.168  0.00  0.00    +0.028 A 
ATOM     12  C   UNL     1      -0.949   2.594 -12.642  0.00  0.00    +0.002 A 
ATOM     13  C   UNL     1      -0.117   2.956 -13.686  0.00  0.00    +0.000 A 
ATOM     14  C   UNL     1       0.727   2.023 -14.262  0.00  0.00    +0.002 A 
ATOM     15  C   UNL     1       0.748   0.726 -13.795  0.00  0.00    +0.028 A 
ENDBRANCH   7  10
BRANCH   1  17
ATOM     16  C   UNL     1      -0.007  -2.794  -4.892  0.00  0.00    +0.008 C 
ATOM     17  C   UNL     1      -0.022  -2.110  -6.062  0.00  0.00    +0.002 C 
BRANCH  16  21
ATOM     18  C   UNL     1       0.000  -0.694  -1.208  0.00  0.00    +0.029 A 
ATOM     19  C   UNL     1       0.013  -2.086  -1.213  0.00  0.00    +0.023 A 
ATOM     20  C   UNL     1       0.011  -2.772  -2.406  0.00  0.00    +0.010 A 
ATOM     21  C   UNL     1      -0.005  -2.067  -3.616  0.00  0.00    -0.025 A 
ATOM     22  C   UNL     1      -0.018  -0.666  -3.606  0.00  0.00    +0.010 A 
ATOM     23  C   UNL     1      -0.021   0.011  -2.408  0.00  0.00    +0.023 A 
BRANCH  18  25
ATOM     24  C   UNL     1      -0.018   1.461   0.010  0.00  0.00    +0.129 C 
ATOM     25  N   UNL     1       0.002  -0.004   0.002  0.00  0.00    -0.336 N 
ATOM     26  C   UNL     1       0.024  -0.743   1.267  0.00  0.00    +0.129 C 
ENDBRANCH  18  25
ENDBRANCH  16  21
ENDBRANCH   1  17
TORSDOF 4
