REMARK  Name = ZINC25457709
REMARK  8 active torsions:
REMARK  status: ('A' for Active; 'I' for Inactive)
REMARK    1  A    between atoms: C_1  and  O_2
REMARK    2  A    between atoms: O_2  and  C_3
REMARK    3  A    between atoms: C_6  and  S_9
REMARK    4  A    between atoms: S_9  and  N_12
REMARK    5  A    between atoms: C_15  and  N_18
REMARK    6  A    between atoms: C_19  and  C_21
REMARK    7  A    between atoms: C_21  and  O_22
REMARK    8  A    between atoms: O_22  and  C_23
REMARK                            x       y       z     vdW  Elec       q    Type
REMARK                         _______ _______ _______ _____ _____    ______ ____
ROOT
ATOM      1  N   UNL     1       3.162  10.396  -0.557  0.00  0.00    -0.310 N 
ATOM      2  C   UNL     1       2.155   9.567  -0.217  0.00  0.00    +0.251 C 
ATOM      3  O   UNL     1       1.098  10.023   0.165  0.00  0.00    -0.272 OA
ATOM      4  H   UNL     1       4.121   9.983  -0.903  0.00  0.00    +0.149 HD
ENDROOT
BRANCH   1   8
ATOM      5  N   UNL     1       3.381  14.513  -1.320  0.00  0.00    -0.176 NA
ATOM      6  C   UNL     1       4.144  14.035  -0.159  0.00  0.00    +0.111 C 
ATOM      7  C   UNL     1       4.342  12.521  -0.288  0.00  0.00    +0.039 C 
ATOM      8  C   UNL     1       2.980  11.847  -0.467  0.00  0.00    +0.076 C 
ATOM      9  C   UNL     1       2.319  12.358  -1.748  0.00  0.00    +0.039 C 
ATOM     10  C   UNL     1       2.098  13.870  -1.636  0.00  0.00    +0.111 C 
BRANCH   5  11
ATOM     11  S   UNL     1       3.956  15.753  -2.255  0.00  0.00    +0.061 S 
ATOM     12  O   UNL     1       2.828  16.339  -2.891  0.00  0.00    -0.153 OA
ATOM     13  O   UNL     1       4.843  16.502  -1.436  0.00  0.00    -0.153 OA
BRANCH  11  17
ATOM     14  C   UNL     1       6.472  13.903  -5.534  0.00  0.00    +0.120 A 
ATOM     15  C   UNL     1       5.114  14.109  -5.732  0.00  0.00    +0.047 A 
ATOM     16  C   UNL     1       4.349  14.673  -4.731  0.00  0.00    +0.032 A 
ATOM     17  C   UNL     1       4.935  15.033  -3.531  0.00  0.00    +0.106 A 
ATOM     18  C   UNL     1       6.289  14.835  -3.333  0.00  0.00    +0.032 A 
ATOM     19  C   UNL     1       7.058  14.266  -4.330  0.00  0.00    +0.047 A 
BRANCH  14  21
ATOM     20  C   UNL     1       8.618  13.166  -6.244  0.00  0.00    +0.277 C 
ATOM     21  O   UNL     1       7.227  13.348  -6.518  0.00  0.00    -0.495 OA
ENDBRANCH  14  21
ENDBRANCH  11  17
ENDBRANCH   5  11
ENDBRANCH   1   8
BRANCH   2  22
ATOM     22  C   UNL     1       2.343   8.075  -0.310  0.00  0.00    +0.324 C 
BRANCH  22  23
ATOM     23  O   UNL     1       1.143   7.417   0.102  0.00  0.00    -0.483 OA
BRANCH  23  24
ATOM     24  C   UNL     1       1.144   6.058   0.077  0.00  0.00    +0.122 A 
ATOM     25  C   UNL     1       2.278   5.373  -0.335  0.00  0.00    +0.047 A 
ATOM     26  C   UNL     1       2.280   3.993  -0.362  0.00  0.00    +0.027 A 
ATOM     27  C   UNL     1       1.147   3.290   0.026  0.00  0.00    +0.037 A 
ATOM     28  C   UNL     1       0.013   3.976   0.439  0.00  0.00    -0.022 A 
ATOM     29  C   UNL     1       0.012   5.356   0.464  0.00  0.00    +0.051 A 
ATOM     30  C   UNL     1      -1.214   3.210   0.859  0.00  0.00    +0.046 C 
ATOM     31  C   UNL     1      -1.333   1.935   0.019  0.00  0.00    +0.101 C 
ATOM     32  C   UNL     1      -0.014   1.209   0.009  0.00  0.00    +0.218 C 
ATOM     33  O   UNL     1       0.002  -0.004   0.002  0.00  0.00    -0.275 OA
ATOM     34  N   UNL     1       1.146   1.890   0.001  0.00  0.00    -0.285 N 
ATOM     35  H   UNL     1       2.098   1.339  -0.024  0.00  0.00    +0.155 HD
ENDBRANCH  23  24
ENDBRANCH  22  23
ENDBRANCH   2  22
TORSDOF 7
