REMARK  Name = ZINC01428742
REMARK  11 active torsions:
REMARK  status: ('A' for Active; 'I' for Inactive)
REMARK    1  A    between atoms: C_1  and  C_2
REMARK    2  A    between atoms: C_2  and  C_26
REMARK    3  A    between atoms: C_3  and  C_24
REMARK    4  A    between atoms: C_3  and  O_25
REMARK    5  A    between atoms: N_4  and  N_8
REMARK    6  A    between atoms: C_12  and  C_16
REMARK    7  A    between atoms: C_12  and  C_17
REMARK    8  A    between atoms: C_13  and  C_14
REMARK    9  A    between atoms: C_13  and  O_15
REMARK   10  A    between atoms: C_17  and  C_18
REMARK   11  A    between atoms: C_26  and  C_27
REMARK                            x       y       z     vdW  Elec       q    Type
REMARK                         _______ _______ _______ _____ _____    ______ ____
ROOT
ATOM      1  C   UNL     1      -1.871   2.069   1.456  0.00  0.00    +0.061 C 
ATOM      2  C   UNL     1      -1.094   2.187   0.143  0.00  0.00    +0.163 C 
ATOM      3  C   UNL     1      -0.032   1.075   0.043  0.00  0.00    +0.193 C 
ATOM      4  N   UNL     1       1.240   1.811  -0.029  0.00  0.00    -0.143 N 
ATOM      5  C   UNL     1       0.983   3.126   0.019  0.00  0.00    +0.423 C 
ATOM      6  O   UNL     1       1.853   3.973  -0.022  0.00  0.00    -0.224 OA
ATOM      7  O   UNL     1      -0.318   3.419   0.123  0.00  0.00    -0.438 OA
ATOM      8  C   UNL     1      -0.243   0.242  -1.223  0.00  0.00    +0.069 C 
ENDROOT
BRANCH   4   9
ATOM      9  N   UNL     1       2.512   1.233  -0.131  0.00  0.00    -0.143 N 
ATOM     10  C   UNL     1       3.097   0.833  -1.268  0.00  0.00    +0.423 C 
ATOM     11  O   UNL     1       2.569   0.936  -2.357  0.00  0.00    -0.224 OA
ATOM     12  O   UNL     1       4.317   0.312  -1.094  0.00  0.00    -0.438 OA
ATOM     13  C   UNL     1       4.657   0.333   0.322  0.00  0.00    +0.163 C 
ATOM     14  C   UNL     1       3.424   0.970   0.992  0.00  0.00    +0.193 C 
ATOM     15  C   UNL     1       3.805   2.276   1.692  0.00  0.00    +0.069 C 
ATOM     16  C   UNL     1       5.898   1.195   0.563  0.00  0.00    +0.061 C 
BRANCH  14  17
ATOM     17  O   UNL     1       2.831   0.057   1.918  0.00  0.00    -0.367 OA
ATOM     18  H   UNL     1       2.014   0.381   2.321  0.00  0.00    +0.212 HD
ENDBRANCH  14  17
BRANCH  13  19
ATOM     19  C   UNL     1       4.881  -1.089   0.841  0.00  0.00    +0.087 C 
BRANCH  19  20
ATOM     20  C   UNL     1       6.107  -1.674   0.190  0.00  0.00    -0.043 A 
ATOM     21  C   UNL     1       5.992  -2.378  -0.994  0.00  0.00    +0.004 A 
ATOM     22  C   UNL     1       7.118  -2.911  -1.594  0.00  0.00    +0.000 A 
ATOM     23  C   UNL     1       8.358  -2.748  -1.005  0.00  0.00    +0.000 A 
ATOM     24  C   UNL     1       8.472  -2.048   0.182  0.00  0.00    +0.000 A 
ATOM     25  C   UNL     1       7.347  -1.512   0.779  0.00  0.00    +0.004 A 
ENDBRANCH  19  20
ENDBRANCH  13  19
ENDBRANCH   4   9
BRANCH   3  26
ATOM     26  O   UNL     1      -0.063   0.240   1.203  0.00  0.00    -0.367 OA
ATOM     27  H   UNL     1       0.627  -0.437   1.219  0.00  0.00    +0.212 HD
ENDBRANCH   3  26
BRANCH   2  28
ATOM     28  C   UNL     1      -2.049   2.125  -1.051  0.00  0.00    +0.087 C 
BRANCH  28  29
ATOM     29  C   UNL     1      -3.077   3.221  -0.929  0.00  0.00    -0.043 A 
ATOM     30  C   UNL     1      -4.266   2.982  -0.267  0.00  0.00    +0.004 A 
ATOM     31  C   UNL     1      -5.207   3.988  -0.152  0.00  0.00    +0.000 A 
ATOM     32  C   UNL     1      -4.962   5.230  -0.707  0.00  0.00    +0.000 A 
ATOM     33  C   UNL     1      -3.774   5.468  -1.373  0.00  0.00    +0.000 A 
ATOM     34  C   UNL     1      -2.832   4.463  -1.484  0.00  0.00    +0.004 A 
ENDBRANCH  28  29
ENDBRANCH   2  28
TORSDOF 7
