REMARK  Name = ZINC09330106
REMARK  5 active torsions:
REMARK  status: ('A' for Active; 'I' for Inactive)
REMARK    1  A    between atoms: C_1  and  C_2
REMARK    2  A    between atoms: C_3  and  C_20
REMARK    3  A    between atoms: N_13  and  C_14
REMARK    4  A    between atoms: C_14  and  C_15
REMARK    5  A    between atoms: C_20  and  C_21
REMARK                            x       y       z     vdW  Elec       q    Type
REMARK                         _______ _______ _______ _____ _____    ______ ____
ROOT
ATOM      1  C   UNL     1      -0.018   1.503   0.010  0.00  0.00    +0.064 C 
ATOM      2  C   UNL     1       0.002  -0.004   0.002  0.00  0.00    +0.025 A 
ATOM      3  C   UNL     1      -1.160  -0.696   0.004  0.00  0.00    +0.042 A 
ATOM      4  C   UNL     1      -1.130  -2.107  -0.004  0.00  0.00    +0.280 A 
ATOM      5  O   UNL     1      -2.171  -2.741  -0.004  0.00  0.00    -0.265 OA
ATOM      6  N   UNL     1       0.052  -2.748  -0.014  0.00  0.00    -0.159 N 
ATOM      7  C   UNL     1       1.217  -2.045  -0.016  0.00  0.00    +0.235 A 
ATOM      8  N   UNL     1       1.192  -0.669  -0.013  0.00  0.00    -0.327 N 
ATOM      9  H   UNL     1       2.024  -0.171  -0.018  0.00  0.00    +0.169 HD
ATOM     10  N   UNL     1       2.207  -2.914  -0.025  0.00  0.00    -0.178 NA
ATOM     11  C   UNL     1       1.717  -4.157  -0.030  0.00  0.00    +0.237 A 
ATOM     12  N   UNL     1       0.404  -4.104  -0.023  0.00  0.00    -0.125 NA
ATOM     13  N   UNL     1       2.477  -5.324  -0.040  0.00  0.00    -0.308 N 
ATOM     14  H   UNL     1       2.038  -6.189  -0.043  0.00  0.00    +0.149 HD
ENDROOT
BRANCH  13  15
ATOM     15  C   UNL     1       3.940  -5.245  -0.046  0.00  0.00    +0.147 C 
BRANCH  15  16
ATOM     16  C   UNL     1       4.518  -6.637  -0.056  0.00  0.00    +0.007 A 
ATOM     17  C   UNL     1       4.846  -7.417  -1.115  0.00  0.00    +0.013 A 
ATOM     18  C   UNL     1       5.368  -8.676  -0.884  0.00  0.00    +0.008 A 
ATOM     19  C   UNL     1       5.537  -9.093   0.395  0.00  0.00    +0.045 A 
ATOM     20  S   UNL     1       4.956  -7.683   1.323  0.00  0.00    -0.100 S 
ENDBRANCH  15  16
ENDBRANCH  13  15
BRANCH   3  21
ATOM     21  C   UNL     1      -2.478   0.035   0.015  0.00  0.00    +0.077 C 
BRANCH  21  22
ATOM     22  C   UNL     1      -2.984   0.179  -1.397  0.00  0.00    -0.043 A 
ATOM     23  C   UNL     1      -2.634   1.286  -2.147  0.00  0.00    +0.004 A 
ATOM     24  C   UNL     1      -3.098   1.418  -3.443  0.00  0.00    +0.000 A 
ATOM     25  C   UNL     1      -3.913   0.443  -3.988  0.00  0.00    +0.000 A 
ATOM     26  C   UNL     1      -4.263  -0.664  -3.237  0.00  0.00    +0.000 A 
ATOM     27  C   UNL     1      -3.794  -0.798  -1.944  0.00  0.00    +0.004 A 
ENDBRANCH  21  22
ENDBRANCH   3  21
TORSDOF 4
