REMARK  Name = ZINC12889809
REMARK  5 active torsions:
REMARK  status: ('A' for Active; 'I' for Inactive)
REMARK    1  A    between atoms: C_1  and  C_2
REMARK    2  A    between atoms: C_7  and  C_8
REMARK    3  A    between atoms: C_8  and  N_9
REMARK    4  A    between atoms: C_12  and  C_16
REMARK    5  A    between atoms: C_12  and  C_17
REMARK                            x       y       z     vdW  Elec       q    Type
REMARK                         _______ _______ _______ _____ _____    ______ ____
ROOT
ATOM      1  N   UNL     1      -0.808   1.730  -1.055  0.00  0.00    -0.219 N 
ATOM      2  C   UNL     1      -1.777   1.076  -1.725  0.00  0.00    +0.254 C 
ATOM      3  O   UNL     1      -2.175  -0.051  -1.522  0.00  0.00    -0.272 OA
ATOM      4  C   UNL     1      -2.268   2.043  -2.784  0.00  0.00    +0.168 C 
ATOM      5  N   UNL     1      -1.435   3.240  -2.573  0.00  0.00    -0.279 N 
ATOM      6  C   UNL     1      -0.615   2.961  -1.544  0.00  0.00    +0.310 C 
ATOM      7  O   UNL     1       0.209   3.740  -1.106  0.00  0.00    -0.252 OA
ATOM      8  C   UNL     1      -2.039   1.469  -4.184  0.00  0.00    +0.050 C 
ATOM      9  H   UNL     1      -1.471   4.067  -3.078  0.00  0.00    +0.152 HD
ENDROOT
BRANCH   4  10
ATOM     10  C   UNL     1      -3.725   2.368  -2.577  0.00  0.00    +0.137 A 
ATOM     11  C   UNL     1      -4.309   3.554  -2.825  0.00  0.00    +0.047 A 
ATOM     12  C   UNL     1      -5.677   3.413  -2.494  0.00  0.00    +0.041 A 
ATOM     13  C   UNL     1      -5.844   2.153  -2.056  0.00  0.00    +0.195 A 
ATOM     14  O   UNL     1      -4.659   1.524  -2.108  0.00  0.00    -0.465 OA
ENDBRANCH   4  10
BRANCH   1  15
ATOM     15  C   UNL     1      -0.054   1.162   0.065  0.00  0.00    +0.153 C 
BRANCH  15  22
ATOM     16  C   UNL     1       1.206   0.496   2.578  0.00  0.00    +0.044 C 
ATOM     17  C   UNL     1      -0.099   1.249   2.566  0.00  0.00    -0.046 A 
ATOM     18  C   UNL     1      -0.691   1.626   3.757  0.00  0.00    +0.003 A 
ATOM     19  C   UNL     1      -1.890   2.312   3.746  0.00  0.00    +0.000 A 
ATOM     20  C   UNL     1      -2.496   2.627   2.544  0.00  0.00    +0.000 A 
ATOM     21  C   UNL     1      -1.902   2.255   1.353  0.00  0.00    +0.005 A 
ATOM     22  C   UNL     1      -0.702   1.568   1.364  0.00  0.00    -0.027 A 
ENDBRANCH  15  22
ENDBRANCH   1  15
TORSDOF 3
