REMARK  Name = ZINC27372087
REMARK  6 active torsions:
REMARK  status: ('A' for Active; 'I' for Inactive)
REMARK    1  A    between atoms: C_1  and  C_2
REMARK    2  A    between atoms: C_7  and  S_30
REMARK    3  A    between atoms: C_12  and  C_14
REMARK    4  A    between atoms: C_14  and  N_15
REMARK    5  A    between atoms: C_23  and  C_25
REMARK    6  A    between atoms: S_30  and  N_33
REMARK                            x       y       z     vdW  Elec       q    Type
REMARK                         _______ _______ _______ _____ _____    ______ ____
ROOT
ATOM      1  C   UNL     1      -2.040   3.930  -7.056  0.00  0.00    +0.029 C 
ATOM      2  C   UNL     1      -2.823   4.262  -5.784  0.00  0.00    +0.083 C 
ATOM      3  C   UNL     1      -3.116   2.979  -4.989  0.00  0.00    +0.059 C 
ATOM      4  C   UNL     1      -2.426   3.190  -3.660  0.00  0.00    -0.022 A 
ATOM      5  C   UNL     1      -2.341   2.378  -2.544  0.00  0.00    +0.034 A 
ATOM      6  C   UNL     1      -1.640   2.800  -1.431  0.00  0.00    +0.105 A 
ATOM      7  C   UNL     1      -1.026   4.039  -1.433  0.00  0.00    +0.030 A 
ATOM      8  C   UNL     1      -1.103   4.849  -2.545  0.00  0.00    +0.026 A 
ATOM      9  C   UNL     1      -1.810   4.431  -3.674  0.00  0.00    +0.040 A 
ATOM     10  N   UNL     1      -2.013   5.092  -4.889  0.00  0.00    -0.270 N 
ATOM     11  C   UNL     1      -1.533   6.315  -5.192  0.00  0.00    +0.204 C 
ATOM     12  O   UNL     1      -1.764   6.805  -6.277  0.00  0.00    -0.277 OA
ENDROOT
BRANCH   6  13
ATOM     13  S   UNL     1      -1.534   1.764  -0.009  0.00  0.00    +0.056 S 
ATOM     14  O   UNL     1      -2.655   0.892  -0.057  0.00  0.00    -0.153 OA
ATOM     15  O   UNL     1      -1.281   2.619   1.098  0.00  0.00    -0.153 OA
BRANCH  13  16
ATOM     16  N   UNL     1      -0.189   0.816  -0.193  0.00  0.00    -0.204 NA
ATOM     17  H   UNL     1      -0.087   0.152   0.678  0.00  0.00    +0.144 HD
ATOM     18  H   UNL     1       0.702   1.456  -0.273  0.00  0.00    +0.144 HD
ENDBRANCH  13  16
ENDBRANCH   6  13
BRANCH  11  19
ATOM     19  C   UNL     1      -0.709   7.073  -4.183  0.00  0.00    +0.020 C 
BRANCH  19  20
ATOM     20  N   UNL     1      -0.271   8.348  -4.767  0.00  0.00    +0.393 N 
ATOM     21  C   UNL     1       0.536   8.124  -5.975  0.00  0.00    -0.072 C 
ATOM     22  C   UNL     1       1.300   9.417  -6.307  0.00  0.00    +0.024 C 
ATOM     23  C   UNL     1       0.334  10.553  -6.215  0.00  0.00    -0.010 A 
ATOM     24  C   UNL     1      -0.905  10.524  -5.649  0.00  0.00    -0.046 A 
ATOM     25  C   UNL     1      -1.633  11.711  -5.683  0.00  0.00    +0.010 A 
ATOM     26  C   UNL     1      -1.101  12.815  -6.258  0.00  0.00    +0.045 A 
ATOM     27  S   UNL     1       0.496  12.218  -6.794  0.00  0.00    -0.101 S 
ATOM     28  C   UNL     1      -1.417   9.230  -5.023  0.00  0.00    +0.002 C 
ATOM     29  H   UNL     1       0.373   8.858  -4.036  0.00  0.00    -0.080 HD
BRANCH  28  30
ATOM     30  C   UNL     1      -2.120   9.535  -3.726  0.00  0.00    -0.019 A 
ATOM     31  C   UNL     1      -3.450   9.623  -3.476  0.00  0.00    +0.010 A 
ATOM     32  C   UNL     1      -3.873   9.917  -2.194  0.00  0.00    +0.008 A 
ATOM     33  C   UNL     1      -2.946  10.108  -1.224  0.00  0.00    +0.045 A 
ATOM     34  S   UNL     1      -1.420   9.866  -2.118  0.00  0.00    -0.103 S 
ENDBRANCH  28  30
ENDBRANCH  19  20
ENDBRANCH  11  19
TORSDOF 5
