REMARK  Name = ZINC13626699
REMARK  6 active torsions:
REMARK  status: ('A' for Active; 'I' for Inactive)
REMARK    1  A    between atoms: C_1  and  C_2
REMARK    2  A    between atoms: C_8  and  C_9
REMARK    3  A    between atoms: C_8  and  N_10
REMARK    4  A    between atoms: N_10  and  C_11
REMARK    5  A    between atoms: C_11  and  C_12
REMARK    6  A    between atoms: C_12  and  C_13
REMARK                            x       y       z     vdW  Elec       q    Type
REMARK                         _______ _______ _______ _____ _____    ______ ____
ROOT
ATOM      1  C   UNL     1       2.122  -0.336  -3.707  0.00  0.00    +0.068 C 
ATOM      2  C   UNL     1       1.383   0.276  -4.870  0.00  0.00    +0.071 C 
ATOM      3  N   UNL     1       1.804   0.342  -6.096  0.00  0.00    -0.175 NA
ATOM      4  N   UNL     1       0.874   0.978  -6.918  0.00  0.00    -0.132 N 
ATOM      5  C   UNL     1      -0.208   1.341  -6.199  0.00  0.00    +0.275 C 
ATOM      6  O   UNL     1      -1.202   1.915  -6.610  0.00  0.00    -0.268 OA
ATOM      7  C   UNL     1       0.054   0.903  -4.823  0.00  0.00    +0.078 C 
ATOM      8  C   UNL     1      -0.768   1.054  -3.719  0.00  0.00    +0.015 C 
ATOM      9  C   UNL     1      -2.031   1.869  -3.826  0.00  0.00    +0.061 C 
ATOM     10  C   UNL     1       1.039   1.206  -8.277  0.00  0.00    +0.189 A 
ATOM     11  N   UNL     1       0.218   1.788  -9.119  0.00  0.00    -0.223 NA
ATOM     12  C   UNL     1       0.512   1.947 -10.428  0.00  0.00    +0.080 A 
ATOM     13  C   UNL     1      -0.276   2.555 -11.432  0.00  0.00    +0.029 A 
ATOM     14  C   UNL     1       0.173   2.629 -12.725  0.00  0.00    +0.002 A 
ATOM     15  C   UNL     1       1.408   2.114 -13.094  0.00  0.00    +0.001 A 
ATOM     16  C   UNL     1       2.204   1.512 -12.138  0.00  0.00    +0.017 A 
ATOM     17  C   UNL     1       1.763   1.433 -10.840  0.00  0.00    +0.041 A 
ATOM     18  S   UNL     1       2.419   0.773  -9.327  0.00  0.00    -0.050 S 
ENDROOT
BRANCH   8  19
ATOM     19  N   UNL     1      -0.440   0.471  -2.549  0.00  0.00    -0.346 N 
ATOM     20  H   UNL     1       0.429  -0.203  -2.494  0.00  0.00    +0.146 HD
BRANCH  19  21
ATOM     21  C   UNL     1      -1.239   0.734  -1.349  0.00  0.00    +0.106 C 
BRANCH  21  22
ATOM     22  C   UNL     1      -0.656  -0.045  -0.168  0.00  0.00    +0.056 C 
BRANCH  22  23
ATOM     23  C   UNL     1      -1.479   0.226   1.066  0.00  0.00    -0.021 A 
ATOM     24  C   UNL     1      -1.222   1.144   2.011  0.00  0.00    +0.087 A 
ATOM     25  N   UNL     1      -2.189   1.102   2.978  0.00  0.00    -0.360 N 
ATOM     26  H   UNL     1      -2.144   1.793   3.832  0.00  0.00    +0.165 HD
ATOM     27  C   UNL     1      -3.111   0.123   2.675  0.00  0.00    +0.047 A 
ATOM     28  C   UNL     1      -2.706  -0.468   1.464  0.00  0.00    +0.006 A 
ATOM     29  C   UNL     1      -3.459  -1.503   0.907  0.00  0.00    +0.048 A 
ATOM     30  C   UNL     1      -4.597  -1.940   1.550  0.00  0.00    +0.124 A 
ATOM     31  C   UNL     1      -4.996  -1.355   2.746  0.00  0.00    +0.040 A 
ATOM     32  C   UNL     1      -4.263  -0.333   3.307  0.00  0.00    +0.029 A 
ATOM     33  F   UNL     1      -5.329  -2.942   1.014  0.00  0.00    -0.205 F 
ENDBRANCH  22  23
ENDBRANCH  21  22
ENDBRANCH  19  21
ENDBRANCH   8  19
TORSDOF 4
