REMARK  Name = ZINC39969457
REMARK  8 active torsions:
REMARK  status: ('A' for Active; 'I' for Inactive)
REMARK    1  A    between atoms: C_2  and  C_3
REMARK    2  A    between atoms: C_3  and  N_4
REMARK    3  A    between atoms: C_5  and  C_25
REMARK    4  A    between atoms: C_9  and  S_11
REMARK    5  A    between atoms: S_11  and  C_12
REMARK    6  A    between atoms: C_12  and  C_13
REMARK    7  A    between atoms: C_25  and  N_26
REMARK    8  A    between atoms: C_27  and  C_29
REMARK                            x       y       z     vdW  Elec       q    Type
REMARK                         _______ _______ _______ _____ _____    ______ ____
ROOT
ATOM      1  N   UNL     1      -1.149  -1.962  -1.078  0.00  0.00    -0.256 NA
ATOM      2  C   UNL     1      -2.328  -2.839  -0.920  0.00  0.00    +0.158 C 
ATOM      3  N   UNL     1      -3.199  -2.589  -2.091  0.00  0.00    -0.236 NA
ATOM      4  N   UNL     1      -2.288  -2.066  -3.122  0.00  0.00    -0.229 NA
ATOM      5  C   UNL     1      -1.351  -1.216  -2.342  0.00  0.00    +0.200 C 
ATOM      6  H   UNL     1      -3.643  -3.441  -2.399  0.00  0.00    +0.142 HD
ATOM      7  H   UNL     1      -1.796  -2.817  -3.584  0.00  0.00    +0.143 HD
ENDROOT
BRANCH   1   8
ATOM      8  C   UNL     1      -1.019  -1.043   0.061  0.00  0.00    +0.115 C 
BRANCH   8  10
ATOM      9  C   UNL     1       0.306   1.006  -0.022  0.00  0.00    +0.005 C 
ATOM     10  C   UNL     1       0.291  -0.304  -0.037  0.00  0.00    -0.019 C 
ENDBRANCH   8  10
ENDBRANCH   1   8
BRANCH   5  11
ATOM     11  S   UNL     1       0.221  -1.028  -3.227  0.00  0.00    -0.117 S 
BRANCH  11  12
ATOM     12  C   UNL     1       0.702  -2.729  -3.635  0.00  0.00    +0.146 C 
BRANCH  12  13
ATOM     13  C   UNL     1       2.072  -2.727  -4.262  0.00  0.00    +0.120 A 
ATOM     14  N   UNL     1       2.607  -3.916  -4.645  0.00  0.00    -0.310 N 
ATOM     15  H   UNL     1       2.105  -4.735  -4.509  0.00  0.00    +0.170 HD
ATOM     16  C   UNL     1       3.834  -3.968  -5.213  0.00  0.00    +0.259 A 
ATOM     17  O   UNL     1       4.325  -5.026  -5.561  0.00  0.00    -0.267 OA
ATOM     18  C   UNL     1       4.550  -2.697  -5.395  0.00  0.00    +0.065 A 
ATOM     19  C   UNL     1       5.819  -2.641  -5.970  0.00  0.00    +0.015 A 
ATOM     20  C   UNL     1       6.445  -1.422  -6.115  0.00  0.00    +0.001 A 
ATOM     21  C   UNL     1       5.823  -0.254  -5.695  0.00  0.00    +0.002 A 
ATOM     22  C   UNL     1       4.570  -0.287  -5.124  0.00  0.00    +0.028 A 
ATOM     23  C   UNL     1       3.915  -1.510  -4.966  0.00  0.00    +0.078 A 
ATOM     24  N   UNL     1       2.678  -1.589  -4.414  0.00  0.00    -0.233 NA
ENDBRANCH  12  13
ENDBRANCH  11  12
ENDBRANCH   5  11
BRANCH   2  25
ATOM     25  C   UNL     1      -1.891  -4.305  -0.893  0.00  0.00    +0.140 C 
BRANCH  25  26
ATOM     26  N   UNL     1      -3.050  -5.154  -0.609  0.00  0.00    -0.309 N 
ATOM     27  C   UNL     1      -2.925  -6.496  -0.636  0.00  0.00    +0.244 C 
ATOM     28  O   UNL     1      -1.833  -7.001  -0.807  0.00  0.00    -0.270 OA
ATOM     29  H   UNL     1      -3.908  -4.751  -0.401  0.00  0.00    +0.149 HD
BRANCH  27  30
ATOM     30  C   UNL     1      -4.116  -7.353  -0.457  0.00  0.00    +0.037 A 
ATOM     31  C   UNL     1      -5.387  -6.780  -0.384  0.00  0.00    +0.014 A 
ATOM     32  C   UNL     1      -6.495  -7.584  -0.217  0.00  0.00    +0.021 A 
ATOM     33  C   UNL     1      -6.348  -8.958  -0.123  0.00  0.00    +0.041 A 
ATOM     34  C   UNL     1      -5.090  -9.533  -0.196  0.00  0.00    +0.021 A 
ATOM     35  C   UNL     1      -3.975  -8.739  -0.367  0.00  0.00    +0.014 A 
ATOM     36 CL   UNL     1      -7.747  -9.965   0.087  0.00  0.00    -0.084 Cl
ENDBRANCH  27  30
ENDBRANCH  25  26
ENDBRANCH   2  25
TORSDOF 8
