REMARK  Name = ZINC17092864
REMARK  7 active torsions:
REMARK  status: ('A' for Active; 'I' for Inactive)
REMARK    1  A    between atoms: C_1  and  C_2
REMARK    2  A    between atoms: C_5  and  C_9
REMARK    3  A    between atoms: N_11  and  C_12
REMARK    4  A    between atoms: C_12  and  N_14
REMARK    5  A    between atoms: N_14  and  C_15
REMARK    6  A    between atoms: C_16  and  C_26
REMARK    7  A    between atoms: C_21  and  C_25
REMARK                            x       y       z     vdW  Elec       q    Type
REMARK                         _______ _______ _______ _____ _____    ______ ____
ROOT
ATOM      1  N   UNL     1       5.959   2.470  -0.041  0.00  0.00    -0.291 N 
ATOM      2  H   UNL     1       5.941   3.440  -0.036  0.00  0.00    +0.154 HD
ENDROOT
BRANCH   1   3
ATOM      3  C   UNL     1       7.171   1.799  -0.056  0.00  0.00    +0.084 A 
ATOM      4  C   UNL     1       8.452   2.333  -0.065  0.00  0.00    +0.068 A 
ATOM      5  C   UNL     1       9.567   1.402  -0.079  0.00  0.00    -0.023 A 
ATOM      6  C   UNL     1       9.226   0.095  -0.082  0.00  0.00    -0.004 A 
ATOM      7  S   UNL     1       7.455   0.090  -0.059  0.00  0.00    -0.077 S 
ATOM      8  C   UNL     1      10.153  -1.081  -0.095  0.00  0.00    +0.046 C 
ATOM      9  C   UNL     1      11.561  -0.591   0.273  0.00  0.00    -0.009 C 
ATOM     10  C   UNL     1      11.884   0.652  -0.561  0.00  0.00    +0.008 C 
ATOM     11  C   UNL     1      11.030   1.830  -0.092  0.00  0.00    +0.037 C 
ATOM     12  C   UNL     1      12.581  -1.692  -0.025  0.00  0.00    +0.008 C 
BRANCH   4  13
ATOM     13  C   UNL     1       8.672   3.782  -0.060  0.00  0.00    +0.244 C 
ATOM     14  O   UNL     1       8.773   4.379   0.997  0.00  0.00    -0.270 OA
ATOM     15  N   UNL     1       8.763   4.454  -1.224  0.00  0.00    -0.325 N 
ATOM     16  H   UNL     1       8.682   3.979  -2.066  0.00  0.00    +0.145 HD
ATOM     17  H   UNL     1       8.908   5.413  -1.221  0.00  0.00    +0.145 HD
ENDBRANCH   4  13
ENDBRANCH   1   3
BRANCH   1  18
ATOM     18  C   UNL     1       4.804   1.776  -0.033  0.00  0.00    +0.141 C 
ATOM     19  S   UNL     1       4.835   0.064  -0.042  0.00  0.00    -0.018 S 
BRANCH  18  22
ATOM     20  C   UNL     1       2.470   1.734  -0.012  0.00  0.00    +0.251 C 
ATOM     21  O   UNL     1       2.492   0.518  -0.018  0.00  0.00    -0.270 OA
ATOM     22  N   UNL     1       3.625   2.428  -0.019  0.00  0.00    -0.264 N 
ATOM     23  H   UNL     1       3.607   3.398  -0.014  0.00  0.00    +0.157 HD
BRANCH  20  28
ATOM     24  C   UNL     1      -2.563   4.522   0.051  0.00  0.00    +0.044 C 
ATOM     25  C   UNL     1      -1.246   3.791   0.034  0.00  0.00    -0.049 A 
ATOM     26  C   UNL     1      -0.061   4.507   0.027  0.00  0.00    +0.004 A 
ATOM     27  C   UNL     1       1.149   3.845   0.012  0.00  0.00    +0.015 A 
ATOM     28  C   UNL     1       1.178   2.449   0.004  0.00  0.00    +0.055 A 
ATOM     29  C   UNL     1      -0.021   1.732   0.012  0.00  0.00    +0.053 A 
ATOM     30  C   UNL     1      -1.226   2.408   0.021  0.00  0.00    +0.024 A 
ATOM     31 CL   UNL     1       0.002  -0.004   0.002  0.00  0.00    -0.083 Cl
ENDBRANCH  20  28
ENDBRANCH  18  22
ENDBRANCH   1  18
TORSDOF 5
