REMARK  Name = ZINC64775571
REMARK  5 active torsions:
REMARK  status: ('A' for Active; 'I' for Inactive)
REMARK    1  A    between atoms: C_1  and  N_2
REMARK    2  A    between atoms: C_9  and  C_21
REMARK    3  A    between atoms: C_12  and  C_14
REMARK    4  A    between atoms: C_19  and  O_20
REMARK    5  A    between atoms: C_26  and  O_27
REMARK                            x       y       z     vdW  Elec       q    Type
REMARK                         _______ _______ _______ _____ _____    ______ ____
ROOT
ATOM      1  C   UNL     1      -0.018   1.465   0.010  0.00  0.00    -0.096 C 
ATOM      2  N   UNL     1       0.002  -0.004   0.002  0.00  0.00    +0.378 N 
ATOM      3  C   UNL     1      -1.375  -0.510   0.003  0.00  0.00    -0.076 C 
ATOM      4  C   UNL     1      -1.362  -2.038  -0.085  0.00  0.00    +0.027 C 
ATOM      5  C   UNL     1      -0.609  -2.606   1.123  0.00  0.00    +0.109 C 
ATOM      6  C   UNL     1       0.805  -2.015   1.149  0.00  0.00    +0.027 C 
ATOM      7  C   UNL     1       0.712  -0.489   1.192  0.00  0.00    -0.076 C 
ATOM      8  N   UNL     1      -0.521  -4.066   0.996  0.00  0.00    -0.286 NA
ATOM      9  C   UNL     1       0.027  -4.652   2.232  0.00  0.00    +0.095 C 
ATOM     10  C   UNL     1      -1.000  -4.456   3.351  0.00  0.00    +0.079 C 
ATOM     11  C   UNL     1      -1.489  -3.034   3.338  0.00  0.00    +0.050 C 
ATOM     12  N   UNL     1      -1.311  -2.241   2.349  0.00  0.00    -0.266 NA
ATOM     13  H   UNL     1      -1.422  -4.465   0.776  0.00  0.00    +0.125 HD
ATOM     14  H   UNL     1       0.477  -0.328  -0.827  0.00  0.00    -0.082 HD
ENDROOT
BRANCH  11  15
ATOM     15  C   UNL     1      -2.209  -2.530   4.522  0.00  0.00    +0.037 A 
ATOM     16  C   UNL     1      -2.419  -3.362   5.624  0.00  0.00    +0.013 A 
ATOM     17  C   UNL     1      -3.092  -2.884   6.728  0.00  0.00    +0.001 A 
ATOM     18  C   UNL     1      -3.562  -1.581   6.749  0.00  0.00    +0.004 A 
ATOM     19  C   UNL     1      -3.361  -0.748   5.666  0.00  0.00    +0.046 A 
ATOM     20  C   UNL     1      -2.681  -1.210   4.550  0.00  0.00    +0.126 A 
BRANCH  20  21
ATOM     21  O   UNL     1      -2.478  -0.391   3.487  0.00  0.00    -0.506 OA
ATOM     22  H   UNL     1      -3.185  -0.420   2.828  0.00  0.00    +0.292 HD
ENDBRANCH  20  21
ENDBRANCH  11  15
BRANCH   9  23
ATOM     23  C   UNL     1       0.284  -6.122   2.027  0.00  0.00    +0.011 A 
ATOM     24  C   UNL     1      -0.349  -6.799   1.002  0.00  0.00    +0.009 A 
ATOM     25  C   UNL     1      -0.115  -8.148   0.814  0.00  0.00    +0.001 A 
ATOM     26  C   UNL     1       0.754  -8.824   1.651  0.00  0.00    +0.004 A 
ATOM     27  C   UNL     1       1.390  -8.152   2.676  0.00  0.00    +0.046 A 
ATOM     28  C   UNL     1       1.161  -6.797   2.864  0.00  0.00    +0.122 A 
BRANCH  28  29
ATOM     29  O   UNL     1       1.790  -6.133   3.869  0.00  0.00    -0.506 OA
ATOM     30  H   UNL     1       1.303  -6.132   4.705  0.00  0.00    +0.292 HD
ENDBRANCH  28  29
ENDBRANCH   9  23
TORSDOF 4
