REMARK  Name = ZINC21157910
REMARK  2 active torsions:
REMARK  status: ('A' for Active; 'I' for Inactive)
REMARK    1  A    between atoms: C_6  and  C_7
REMARK    2  A    between atoms: C_16  and  C_18
REMARK                            x       y       z     vdW  Elec       q    Type
REMARK                         _______ _______ _______ _____ _____    ______ ____
ROOT
ATOM      1  C   UNL     1      -6.489   6.844   0.235  0.00  0.00    +0.011 A 
ATOM      2  C   UNL     1      -7.243   6.048  -0.580  0.00  0.00    +0.055 A 
ATOM      3  S   UNL     1      -6.018   5.333  -1.665  0.00  0.00    -0.098 S 
ATOM      4  C   UNL     1      -4.581   6.109  -0.990  0.00  0.00    +0.019 A 
ATOM      5  C   UNL     1      -5.062   6.893   0.018  0.00  0.00    +0.052 A 
ATOM      6  N   UNL     1      -4.138   7.669   0.773  0.00  0.00    -0.284 N 
ATOM      7  C   UNL     1      -2.870   7.769   0.338  0.00  0.00    +0.218 C 
ATOM      8  O   UNL     1      -2.045   8.272   1.071  0.00  0.00    -0.275 OA
ATOM      9  C   UNL     1      -2.428   7.287  -1.014  0.00  0.00    +0.109 C 
ATOM     10  C   UNL     1      -3.145   5.981  -1.383  0.00  0.00    +0.066 C 
ATOM     11  H   UNL     1      -4.467   8.174   1.693  0.00  0.00    +0.155 HD
ENDROOT
BRANCH  10  12
ATOM     12  C   UNL     1      -2.517   4.829  -0.643  0.00  0.00    -0.035 A 
ATOM     13  C   UNL     1      -2.505   4.822   0.740  0.00  0.00    +0.008 A 
ATOM     14  C   UNL     1      -1.929   3.768   1.424  0.00  0.00    +0.050 A 
ATOM     15  C   UNL     1      -1.361   2.715   0.724  0.00  0.00    +0.166 A 
ATOM     16  C   UNL     1      -1.373   2.722  -0.668  0.00  0.00    +0.167 A 
ATOM     17  C   UNL     1      -1.951   3.783  -1.347  0.00  0.00    +0.053 A 
ATOM     18  O   UNL     1      -0.760   1.588  -1.116  0.00  0.00    -0.453 OA
ATOM     19  C   UNL     1      -0.013   1.086   0.008  0.00  0.00    +0.466 C 
ATOM     20  O   UNL     1      -0.738   1.576   1.151  0.00  0.00    -0.453 OA
ENDBRANCH  10  12
BRANCH   1  26
ATOM     21  C   UNL     1      -6.615   7.580   2.614  0.00  0.00    +0.010 A 
ATOM     22  C   UNL     1      -7.203   8.325   3.615  0.00  0.00    +0.020 A 
ATOM     23  C   UNL     1      -8.301   9.120   3.336  0.00  0.00    +0.041 A 
ATOM     24  C   UNL     1      -8.811   9.177   2.050  0.00  0.00    +0.020 A 
ATOM     25  C   UNL     1      -8.227   8.440   1.040  0.00  0.00    +0.010 A 
ATOM     26  C   UNL     1      -7.121   7.638   1.316  0.00  0.00    -0.016 A 
ATOM     27 CL   UNL     1      -9.040  10.050   4.602  0.00  0.00    -0.084 Cl
ENDBRANCH   1  26
TORSDOF 2
