REMARK  Name = ZINC05304751
REMARK  6 active torsions:
REMARK  status: ('A' for Active; 'I' for Inactive)
REMARK    1  A    between atoms: C_1  and  C_2
REMARK    2  A    between atoms: C_2  and  C_28
REMARK    3  A    between atoms: CA_3  and  C_26
REMARK    4  A    between atoms: CA_9  and  N_13
REMARK    5  A    between atoms: C_14  and  C_15
REMARK    6  A    between atoms: C_24  and  O_25
REMARK                            x       y       z     vdW  Elec       q    Type
REMARK                         _______ _______ _______ _____ _____    ______ ____
ROOT
ATOM      1  N   UNL     1       1.976   2.192  -1.108  0.00  0.00    -0.275 NA
ATOM      2  C   UNL     1       3.236   2.428  -0.911  0.00  0.00    +0.118 C 
ENDROOT
BRANCH   1   9
ATOM      3  C   UNL     1      -3.195   4.350   0.840  0.00  0.00    +0.025 C 
ATOM      4  C   UNL     1      -2.052   3.733   1.648  0.00  0.00    +0.042 C 
ATOM      5  CA  UNL     1      -1.793   2.257   1.236  0.00  0.00    +0.206 C 
ATOM      6  N   UNL     1      -0.983   2.167   0.017  0.00  0.00    -0.270 N 
ATOM      7  C   UNL     1      -0.085   3.310  -0.244  0.00  0.00    +0.169 C 
ATOM      8  S   UNL     1      -0.394   4.458   1.158  0.00  0.00    -0.127 S 
ATOM      9  CA  UNL     1       1.029   2.299   0.005  0.00  0.00    +0.221 C 
ATOM     10  C   UNL     1      -0.014   1.209   0.009  0.00  0.00    +0.244 C 
ATOM     11  O   UNL     1       0.002  -0.004   0.002  0.00  0.00    -0.273 OA
ATOM     12  C   UNL     1      -2.300   3.862   3.152  0.00  0.00    +0.025 C 
BRANCH   5  13
ATOM     13  C   UNL     1      -3.116   1.576   0.999  0.00  0.00    +0.377 C 
ATOM     14  O   UNL     1      -3.497   1.372  -0.130  0.00  0.00    -0.244 OA
ATOM     15  OXT UNL     1      -3.873   1.197   2.041  0.00  0.00    -0.244 OA
ENDBRANCH   5  13
ENDBRANCH   1   9
BRANCH   2  16
ATOM     16  C   UNL     1       4.186   2.322  -2.026  0.00  0.00    +0.042 A 
ATOM     17  C   UNL     1       5.609   2.590  -1.824  0.00  0.00    -0.006 A 
ATOM     18  C   UNL     1       6.112   2.956  -0.570  0.00  0.00    +0.009 A 
ATOM     19  C   UNL     1       7.446   3.198  -0.423  0.00  0.00    +0.001 A 
ATOM     20  C   UNL     1       8.316   3.087  -1.504  0.00  0.00    +0.001 A 
ATOM     21  C   UNL     1       7.861   2.722  -2.736  0.00  0.00    +0.008 A 
ATOM     22  C   UNL     1       6.492   2.470  -2.924  0.00  0.00    -0.017 A 
ATOM     23  C   UNL     1       5.984   2.108  -4.185  0.00  0.00    +0.012 A 
ATOM     24  C   UNL     1       4.658   1.868  -4.358  0.00  0.00    +0.046 A 
ATOM     25  C   UNL     1       3.749   1.967  -3.303  0.00  0.00    +0.126 A 
BRANCH  25  26
ATOM     26  O   UNL     1       2.434   1.717  -3.521  0.00  0.00    -0.506 OA
ATOM     27  H   UNL     1       1.923   2.497  -3.776  0.00  0.00    +0.292 HD
ENDBRANCH  25  26
ENDBRANCH   2  16
TORSDOF 4
