REMARK  Name = ZINC04237009
REMARK  13 active torsions:
REMARK  status: ('A' for Active; 'I' for Inactive)
REMARK    1  A    between atoms: C_1  and  C_2
REMARK    2  A    between atoms: C_5  and  O_36
REMARK    3  A    between atoms: C_7  and  C_33
REMARK    4  A    between atoms: C_7  and  C_34
REMARK    5  A    between atoms: C_17  and  O_19
REMARK    6  A    between atoms: O_19  and  C_20
REMARK    7  A    between atoms: C_20  and  C_21
REMARK    8  A    between atoms: C_23  and  C_25
REMARK    9  A    between atoms: C_25  and  C_26
REMARK   10  A    between atoms: N_28  and  C_29
REMARK   11  A    between atoms: N_28  and  C_30
REMARK   12  A    between atoms: C_30  and  C_31
REMARK   13  A    between atoms: C_34  and  O_35
REMARK                            x       y       z     vdW  Elec       q    Type
REMARK                         _______ _______ _______ _____ _____    ______ ____
ROOT
ATOM      1  C   UNL     1       2.059   1.288  -1.250  0.00  0.00    +0.012 C 
ATOM      2  C   UNL     1       1.403   1.939  -0.031  0.00  0.00    -0.019 C 
ATOM      3  C   UNL     1      -0.082   1.566   0.013  0.00  0.00    +0.010 C 
ATOM      4  C   UNL     1      -0.247   0.057   0.175  0.00  0.00    +0.032 C 
ATOM      5  C   UNL     1       0.407  -0.371   1.492  0.00  0.00    +0.123 C 
ATOM      6  C   UNL     1       1.898  -0.043   1.430  0.00  0.00    +0.021 C 
ATOM      7  C   UNL     1       2.104   1.464   1.244  0.00  0.00    +0.011 C 
ATOM      8  C   UNL     1       3.620   1.701   1.100  0.00  0.00    +0.049 C 
ATOM      9  C   UNL     1       3.848   3.074   0.573  0.00  0.00    +0.015 A 
ATOM     10  C   UNL     1       2.939   3.906   0.004  0.00  0.00    +0.058 A 
ATOM     11  N   UNL     1       3.400   5.091  -0.392  0.00  0.00    -0.229 NA
ATOM     12  C   UNL     1       4.661   5.440  -0.239  0.00  0.00    +0.167 A 
ATOM     13  S   UNL     1       5.339   4.032   0.522  0.00  0.00    -0.057 S 
ATOM     14  N   UNL     1       5.288   6.628  -0.595  0.00  0.00    -0.230 N 
ATOM     15  C   UNL     1       6.603   6.796  -0.352  0.00  0.00    +0.406 C 
ATOM     16  O   UNL     1       7.240   5.907   0.178  0.00  0.00    -0.226 OA
ATOM     17  C   UNL     1       1.491   3.467  -0.146  0.00  0.00    +0.054 C 
ATOM     18  C   UNL     1       2.570  -0.489   2.730  0.00  0.00    +0.016 C 
ATOM     19  H   UNL     1       4.779   7.338  -1.018  0.00  0.00    +0.160 HD
ENDROOT
BRANCH   5  20
ATOM     20  O   UNL     1       0.234  -1.778   1.679  0.00  0.00    -0.391 OA
ATOM     21  H   UNL     1      -0.690  -2.058   1.716  0.00  0.00    +0.210 HD
ENDBRANCH   5  20
BRANCH  15  22
ATOM     22  O   UNL     1       7.210   7.947  -0.696  0.00  0.00    -0.446 OA
BRANCH  22  23
ATOM     23  C   UNL     1       8.628   8.057  -0.404  0.00  0.00    +0.261 C 
BRANCH  23  24
ATOM     24  C   UNL     1       9.131   9.404  -0.857  0.00  0.00    +0.006 C 
ATOM     25  C   UNL     1       9.914  10.107  -0.076  0.00  0.00    +0.007 C 
ENDBRANCH  23  24
ENDBRANCH  22  23
ENDBRANCH  15  22
BRANCH  17  26
ATOM     26  C   UNL     1       0.963   3.907  -1.513  0.00  0.00    +0.106 C 
BRANCH  26  27
ATOM     27  C   UNL     1       0.863   5.410  -1.552  0.00  0.00    +0.217 C 
ATOM     28  O   UNL     1       1.182   6.065  -0.583  0.00  0.00    -0.276 OA
ATOM     29  N   UNL     1       0.419   6.027  -2.666  0.00  0.00    -0.293 N 
ATOM     30  C   UNL     1       0.034   5.236  -3.837  0.00  0.00    +0.133 C 
BRANCH  29  31
ATOM     31  C   UNL     1       0.321   7.488  -2.704  0.00  0.00    +0.196 C 
BRANCH  31  32
ATOM     32  C   UNL     1       1.589   8.052  -3.195  0.00  0.00    -0.086 C 
ATOM     33  C   UNL     1       2.601   8.501  -3.587  0.00  0.00    +0.005 C 
ENDBRANCH  31  32
ENDBRANCH  29  31
ENDBRANCH  26  27
ENDBRANCH  17  26
BRANCH   6  34
ATOM     34  C   UNL     1       2.532  -0.790   0.255  0.00  0.00    +0.165 C 
BRANCH  34  35
ATOM     35  O   UNL     1       2.502  -2.195   0.511  0.00  0.00    -0.394 OA
ATOM     36  H   UNL     1       2.889  -2.732  -0.194  0.00  0.00    +0.209 HD
ENDBRANCH  34  35
ENDBRANCH   6  34
TORSDOF 10
