REMARK  Name = ZINC39630927
REMARK  15 active torsions:
REMARK  status: ('A' for Active; 'I' for Inactive)
REMARK    1  A    between atoms: C_1  and  C_2
REMARK    2  A    between atoms: C_4  and  C_11
REMARK    3  A    between atoms: N_5  and  C_7
REMARK    4  A    between atoms: C_7  and  C_8
REMARK    5  A    between atoms: C_7  and  C_9
REMARK    6  A    between atoms: C_7  and  C_10
REMARK    7  A    between atoms: C_15  and  C_24
REMARK    8  A    between atoms: N_26  and  C_27
REMARK    9  A    between atoms: C_27  and  C_28
REMARK   10  A    between atoms: C_28  and  C_29
REMARK   11  A    between atoms: C_28  and  C_30
REMARK   12  A    between atoms: C_28  and  C_31
REMARK   13  A    between atoms: C_31  and  N_32
REMARK   14  A    between atoms: N_32  and  C_33
REMARK   15  A    between atoms: N_32  and  C_34
REMARK                            x       y       z     vdW  Elec       q    Type
REMARK                         _______ _______ _______ _____ _____    ______ ____
ROOT
ATOM      1  C   UNL     1       0.084  -4.151  -2.383  0.00  0.00    +0.265 C 
ATOM      2  O   UNL     1      -0.071  -4.036  -3.584  0.00  0.00    -0.268 OA
ATOM      3  N   UNL     1      -0.314  -5.276  -1.757  0.00  0.00    -0.295 N 
ATOM      4  C   UNL     1      -0.331  -5.548  -0.300  0.00  0.00    +0.121 C 
ATOM      5  C   UNL     1      -1.640  -6.335  -0.066  0.00  0.00    +0.100 C 
ATOM      6  C   UNL     1      -1.963  -6.974  -1.427  0.00  0.00    -0.004 C 
ATOM      7  C   UNL     1      -0.839  -6.520  -2.370  0.00  0.00    +0.115 C 
ATOM      8  C   UNL     1      -3.309  -6.472  -1.940  0.00  0.00    -0.010 C 
ATOM      9  C   UNL     1      -3.635  -7.164  -3.267  0.00  0.00    -0.082 C 
ATOM     10  N   UNL     1      -3.676  -8.617  -3.065  0.00  0.00    +0.379 N 
ATOM     11  C   UNL     1      -2.352  -9.105  -2.661  0.00  0.00    -0.082 C 
ATOM     12  C   UNL     1      -1.972  -8.495  -1.309  0.00  0.00    -0.010 C 
ATOM     13  H   UNL     1      -4.348  -8.837  -2.345  0.00  0.00    -0.086 HD
ATOM     14  H   UNL     1      -3.950  -9.067  -3.926  0.00  0.00    -0.086 HD
ENDROOT
BRANCH   1  18
ATOM     15  C   UNL     1       2.199  -1.373   1.295  0.00  0.00    +0.067 C 
ATOM     16  C   UNL     1       1.631  -1.837  -0.021  0.00  0.00    +0.061 A 
ATOM     17  C   UNL     1       1.100  -3.101  -0.287  0.00  0.00    +0.057 A 
ATOM     18  C   UNL     1       0.707  -3.062  -1.614  0.00  0.00    +0.124 A 
ATOM     19  N   UNL     1       1.013  -1.810  -2.066  0.00  0.00    -0.254 N 
ATOM     20  N   UNL     1       1.542  -1.126  -1.116  0.00  0.00    -0.175 NA
BRANCH  19  21
ATOM     21  C   UNL     1       0.770  -1.320  -3.425  0.00  0.00    +0.056 C 
ATOM     22  C   UNL     1      -0.711  -1.489  -3.771  0.00  0.00    +0.036 C 
ATOM     23  C   UNL     1       1.147   0.160  -3.509  0.00  0.00    +0.036 C 
ATOM     24  C   UNL     1       1.619  -2.120  -4.415  0.00  0.00    +0.036 C 
ENDBRANCH  19  21
ENDBRANCH   1  18
BRANCH   5  25
ATOM     25  C   UNL     1      -2.746  -5.402   0.355  0.00  0.00    +0.218 C 
ATOM     26  O   UNL     1      -2.785  -4.272  -0.084  0.00  0.00    -0.275 OA
ATOM     27  N   UNL     1      -3.691  -5.824   1.218  0.00  0.00    -0.315 N 
ATOM     28  H   UNL     1      -3.620  -6.701   1.625  0.00  0.00    +0.149 HD
BRANCH  27  29
ATOM     29  C   UNL     1      -4.826  -4.956   1.542  0.00  0.00    +0.108 C 
BRANCH  29  30
ATOM     30  C   UNL     1      -5.683  -5.619   2.623  0.00  0.00    -0.034 C 
ATOM     31  C   UNL     1      -6.127  -7.003   2.143  0.00  0.00    +0.010 C 
ATOM     32  C   UNL     1      -4.864  -5.763   3.907  0.00  0.00    +0.010 C 
BRANCH  30  33
ATOM     33  C   UNL     1      -6.915  -4.755   2.898  0.00  0.00    -0.072 C 
BRANCH  33  34
ATOM     34  N   UNL     1      -7.740  -5.394   3.932  0.00  0.00    +0.376 N 
ATOM     35  C   UNL     1      -7.230  -5.027   5.260  0.00  0.00    -0.097 C 
ATOM     36  C   UNL     1      -9.130  -4.940   3.800  0.00  0.00    -0.097 C 
ATOM     37  H   UNL     1      -7.701  -6.396   3.822  0.00  0.00    -0.083 HD
ENDBRANCH  33  34
ENDBRANCH  30  33
ENDBRANCH  29  30
ENDBRANCH  27  29
ENDBRANCH   5  25
TORSDOF 7
