REMARK  Name = ZINC23115006
REMARK  6 active torsions:
REMARK  status: ('A' for Active; 'I' for Inactive)
REMARK    1  A    between atoms: C_1  and  C_2
REMARK    2  A    between atoms: C_2  and  C_3
REMARK    3  A    between atoms: C_3  and  N_4
REMARK    4  A    between atoms: N_4  and  C_5
REMARK    5  A    between atoms: C_7  and  C_20
REMARK    6  A    between atoms: C_13  and  C_14
REMARK                            x       y       z     vdW  Elec       q    Type
REMARK                         _______ _______ _______ _____ _____    ______ ____
ROOT
ATOM      1  C   UNL     1       0.830  -1.829  -1.430  0.00  0.00    +0.125 A 
ATOM      2  C   UNL     1       0.335  -2.737  -0.537  0.00  0.00    +0.072 A 
ATOM      3  C   UNL     1       0.494  -4.110  -0.794  0.00  0.00    +0.077 A 
ATOM      4  N   UNL     1       1.118  -4.512  -1.892  0.00  0.00    -0.227 NA
ATOM      5  C   UNL     1       1.603  -3.629  -2.768  0.00  0.00    +0.166 A 
ATOM      6  N   UNL     1       1.465  -2.282  -2.558  0.00  0.00    -0.200 N 
ATOM      7  N   UNL     1       2.060  -1.615  -3.635  0.00  0.00    -0.171 NA
ATOM      8  C   UNL     1       2.540  -2.496  -4.478  0.00  0.00    +0.145 A 
ATOM      9  C   UNL     1       2.289  -3.781  -3.981  0.00  0.00    +0.046 A 
ENDROOT
BRANCH   9  10
ATOM     10  C   UNL     1       2.666  -5.061  -4.624  0.00  0.00    -0.013 A 
ATOM     11  C   UNL     1       3.327  -6.045  -3.890  0.00  0.00    +0.008 A 
ATOM     12  C   UNL     1       3.669  -7.238  -4.494  0.00  0.00    +0.001 A 
ATOM     13  C   UNL     1       3.368  -7.454  -5.827  0.00  0.00    +0.000 A 
ATOM     14  C   UNL     1       2.718  -6.478  -6.561  0.00  0.00    +0.001 A 
ATOM     15  C   UNL     1       2.365  -5.284  -5.968  0.00  0.00    +0.008 A 
ENDBRANCH   9  10
BRANCH   3  16
ATOM     16  C   UNL     1      -0.037  -5.108   0.163  0.00  0.00    +0.001 A 
ATOM     17  C   UNL     1      -0.689  -4.689   1.322  0.00  0.00    +0.010 A 
ATOM     18  C   UNL     1      -1.186  -5.624   2.207  0.00  0.00    +0.001 A 
ATOM     19  C   UNL     1      -1.029  -6.974   1.952  0.00  0.00    +0.000 A 
ATOM     20  C   UNL     1      -0.378  -7.396   0.807  0.00  0.00    +0.001 A 
ATOM     21  C   UNL     1       0.119  -6.471  -0.088  0.00  0.00    +0.010 A 
ENDBRANCH   3  16
BRANCH   1  22
ATOM     22  N   UNL     1       0.688  -0.476  -1.203  0.00  0.00    -0.329 N 
ATOM     23  H   UNL     1       1.089   0.248  -1.927  0.00  0.00    +0.147 HD
BRANCH  22  24
ATOM     24  C   UNL     1       0.002  -0.004   0.002  0.00  0.00    +0.102 C 
BRANCH  24  26
ATOM     25  C   UNL     1      -0.735   2.019   1.269  0.00  0.00    +0.005 C 
ATOM     26  C   UNL     1      -0.019   1.526   0.010  0.00  0.00    +0.015 C 
ENDBRANCH  24  26
ENDBRANCH  22  24
ENDBRANCH   1  22
TORSDOF 5
