REMARK  Name = ZINC13315633
REMARK  6 active torsions:
REMARK  status: ('A' for Active; 'I' for Inactive)
REMARK    1  A    between atoms: C_1  and  O_2
REMARK    2  A    between atoms: O_2  and  C_3
REMARK    3  A    between atoms: C_6  and  C_26
REMARK    4  A    between atoms: C_8  and  S_9
REMARK    5  A    between atoms: S_9  and  N_12
REMARK    6  A    between atoms: N_12  and  C_13
REMARK                            x       y       z     vdW  Elec       q    Type
REMARK                         _______ _______ _______ _____ _____    ______ ____
ROOT
ATOM      1  S   UNL     1      -5.307   0.969  -0.002  0.00  0.00    +0.062 S 
ATOM      2  O   UNL     1      -6.293   1.451  -0.905  0.00  0.00    -0.153 OA
ATOM      3  O   UNL     1      -4.821  -0.366  -0.046  0.00  0.00    -0.153 OA
ENDROOT
BRANCH   1   9
ATOM      4  C   UNL     1      -2.782   1.819   0.616  0.00  0.00    +0.146 A 
ATOM      5  C   UNL     1      -1.673   2.647   0.483  0.00  0.00    +0.048 A 
ATOM      6  C   UNL     1      -1.684   3.672  -0.436  0.00  0.00    +0.019 A 
ATOM      7  C   UNL     1      -2.812   3.879  -1.236  0.00  0.00    +0.065 A 
ATOM      8  C   UNL     1      -3.927   3.048  -1.094  0.00  0.00    +0.047 A 
ATOM      9  C   UNL     1      -3.905   2.022  -0.176  0.00  0.00    +0.147 A 
BRANCH   7  10
ATOM     10  C   UNL     1      -2.828   4.975  -2.222  0.00  0.00    +0.387 C 
ATOM     11  O   UNL     1      -3.809   5.154  -2.917  0.00  0.00    -0.241 OA
ATOM     12  O   UNL     1      -1.756   5.782  -2.350  0.00  0.00    -0.241 OA
ENDBRANCH   7  10
BRANCH   4  14
ATOM     13  C   UNL     1      -1.581   0.658   2.306  0.00  0.00    +0.277 C 
ATOM     14  O   UNL     1      -2.767   0.810   1.524  0.00  0.00    -0.493 OA
ENDBRANCH   4  14
ENDBRANCH   1   9
BRANCH   1  15
ATOM     15  N   UNL     1      -5.909   1.203   1.524  0.00  0.00    -0.187 NA
ATOM     16  H   UNL     1      -5.901   0.475   2.165  0.00  0.00    +0.148 HD
BRANCH  15  17
ATOM     17  C   UNL     1      -6.452   2.509   1.904  0.00  0.00    +0.077 C 
ATOM     18  C   UNL     1      -7.971   2.501   1.727  0.00  0.00    +0.020 C 
ATOM     19  C   UNL     1      -8.583   1.416   2.615  0.00  0.00    +0.005 C 
ATOM     20  C   UNL     1      -8.242   1.704   4.079  0.00  0.00    -0.008 C 
ATOM     21  C   UNL     1      -8.853   0.619   4.967  0.00  0.00    +0.004 C 
ATOM     22  C   UNL     1      -8.512   0.906   6.431  0.00  0.00    +0.000 C 
ATOM     23  C   UNL     1      -6.993   0.914   6.609  0.00  0.00    +0.000 C 
ATOM     24  C   UNL     1      -6.381   1.999   5.720  0.00  0.00    +0.004 C 
ATOM     25  C   UNL     1      -6.722   1.712   4.256  0.00  0.00    -0.006 C 
ATOM     26  C   UNL     1      -6.111   2.797   3.368  0.00  0.00    +0.024 C 
ENDBRANCH  15  17
ENDBRANCH   1  15
TORSDOF 5
