REMARK  Name = ZINC16911676
REMARK  7 active torsions:
REMARK  status: ('A' for Active; 'I' for Inactive)
REMARK    1  A    between atoms: C_4  and  O_22
REMARK    2  A    between atoms: C_5  and  C_7
REMARK    3  A    between atoms: N_11  and  C_15
REMARK    4  A    between atoms: C_18  and  O_21
REMARK    5  A    between atoms: O_22  and  C_23
REMARK    6  A    between atoms: C_23  and  C_24
REMARK    7  A    between atoms: C_24  and  C_25
REMARK                            x       y       z     vdW  Elec       q    Type
REMARK                         _______ _______ _______ _____ _____    ______ ____
ROOT
ATOM      1  C   UNL     1       7.640   4.647   2.010  0.00  0.00    +0.032 C 
ATOM      2  C   UNL     1       7.554   3.612   1.136  0.00  0.00    +0.080 C 
ATOM      3  C   UNL     1       7.246   2.190   1.389  0.00  0.00    +0.265 C 
ATOM      4  O   UNL     1       7.021   1.775   2.510  0.00  0.00    -0.269 OA
ATOM      5  N   UNL     1       7.229   1.391   0.336  0.00  0.00    -0.197 N 
ATOM      6  C   UNL     1       7.485   1.855  -0.905  0.00  0.00    +0.290 C 
ATOM      7  O   UNL     1       7.508   1.237  -1.952  0.00  0.00    -0.262 OA
ATOM      8  S   UNL     1       7.781   3.595  -0.637  0.00  0.00    -0.025 S 
ENDROOT
BRANCH   1  13
ATOM      9  C   UNL     1       5.721   3.555   5.039  0.00  0.00    +0.001 A 
ATOM     10  C   UNL     1       6.482   4.109   6.056  0.00  0.00    +0.004 A 
ATOM     11  C   UNL     1       7.619   4.838   5.762  0.00  0.00    +0.046 A 
ATOM     12  C   UNL     1       8.010   5.016   4.445  0.00  0.00    +0.128 A 
ATOM     13  C   UNL     1       7.240   4.461   3.410  0.00  0.00    +0.018 A 
ATOM     14  C   UNL     1       6.091   3.725   3.722  0.00  0.00    +0.011 A 
BRANCH  12  15
ATOM     15  O   UNL     1       9.129   5.727   4.157  0.00  0.00    -0.491 OA
BRANCH  15  16
ATOM     16  C   UNL     1       9.861   6.261   5.261  0.00  0.00    +0.240 C 
BRANCH  16  17
ATOM     17  C   UNL     1      11.081   7.025   4.743  0.00  0.00    +0.166 C 
BRANCH  17  18
ATOM     18  C   UNL     1      11.854   7.589   5.908  0.00  0.00    +0.359 C 
ATOM     19  O   UNL     1      11.468   7.398   7.037  0.00  0.00    -0.246 OA
ATOM     20  O   UNL     1      12.970   8.302   5.691  0.00  0.00    -0.246 OA
ENDBRANCH  17  18
ENDBRANCH  16  17
ENDBRANCH  15  16
ENDBRANCH  12  15
ENDBRANCH   1  13
BRANCH   5  21
ATOM     21  C   UNL     1       6.943   0.029   0.513  0.00  0.00    +0.045 A 
ATOM     22  C   UNL     1       5.775  -0.509  -0.011  0.00  0.00    +0.027 A 
ATOM     23  C   UNL     1       5.494  -1.850   0.164  0.00  0.00    +0.047 A 
ATOM     24  C   UNL     1       6.378  -2.659   0.863  0.00  0.00    +0.117 A 
ATOM     25  C   UNL     1       7.542  -2.120   1.392  0.00  0.00    +0.047 A 
ATOM     26  C   UNL     1       7.827  -0.781   1.212  0.00  0.00    +0.027 A 
BRANCH  24  27
ATOM     27  O   UNL     1       6.101  -3.979   1.035  0.00  0.00    -0.507 OA
ATOM     28  H   UNL     1       6.444  -4.547   0.332  0.00  0.00    +0.292 HD
ENDBRANCH  24  27
ENDBRANCH   5  21
TORSDOF 7
