REMARK  Name = ZINC19538269
REMARK  13 active torsions:
REMARK  status: ('A' for Active; 'I' for Inactive)
REMARK    1  A    between atoms: C_1  and  C_2
REMARK    2  A    between atoms: C_2  and  C_3
REMARK    3  A    between atoms: C_3  and  N_4
REMARK    4  A    between atoms: C_5  and  C_7
REMARK    5  A    between atoms: C_7  and  N_8
REMARK    6  A    between atoms: N_11  and  C_14
REMARK    7  A    between atoms: C_14  and  C_15
REMARK    8  A    between atoms: N_17  and  C_18
REMARK    9  A    between atoms: C_19  and  C_29
REMARK   10  A    between atoms: C_24  and  C_28
REMARK   11  A    between atoms: C_29  and  O_31
REMARK   12  A    between atoms: O_31  and  C_32
REMARK   13  A    between atoms: C_32  and  C_33
REMARK                            x       y       z     vdW  Elec       q    Type
REMARK                         _______ _______ _______ _____ _____    ______ ____
ROOT
ATOM      1  C   UNL     1      -2.177  -1.638  -3.393  0.00  0.00    +0.232 C 
ATOM      2  O   UNL     1      -3.084  -2.421  -3.203  0.00  0.00    -0.274 OA
ATOM      3  N   UNL     1      -1.414  -1.228  -2.361  0.00  0.00    -0.278 N 
ATOM      4  H   UNL     1      -0.591  -0.518  -2.533  0.00  0.00    +0.155 HD
ENDROOT
BRANCH   3   5
ATOM      5  C   UNL     1      -1.666  -1.700  -1.082  0.00  0.00    +0.086 A 
ATOM      6  C   UNL     1      -0.998  -1.397   0.097  0.00  0.00    +0.091 A 
ATOM      7  C   UNL     1      -1.470  -2.029   1.318  0.00  0.00    -0.021 A 
ATOM      8  C   UNL     1      -2.523  -2.860   1.165  0.00  0.00    -0.004 A 
ATOM      9  S   UNL     1      -2.890  -2.812  -0.567  0.00  0.00    -0.077 S 
ATOM     10  C   UNL     1      -3.218  -3.645   2.235  0.00  0.00    +0.046 C 
ATOM     11  C   UNL     1      -2.323  -3.658   3.482  0.00  0.00    -0.009 C 
ATOM     12  C   UNL     1      -1.846  -2.230   3.763  0.00  0.00    +0.008 C 
ATOM     13  C   UNL     1      -0.848  -1.794   2.689  0.00  0.00    +0.037 C 
ATOM     14  C   UNL     1      -3.119  -4.181   4.680  0.00  0.00    +0.008 C 
BRANCH   6  15
ATOM     15  C   UNL     1       0.137  -0.471   0.111  0.00  0.00    +0.342 C 
ATOM     16  O   UNL     1       1.268  -0.893  -0.045  0.00  0.00    -0.245 OA
BRANCH  15  17
ATOM     17  O   UNL     1      -0.071   0.848   0.296  0.00  0.00    -0.461 OA
BRANCH  17  18
ATOM     18  C   UNL     1       1.100   1.706   0.298  0.00  0.00    +0.229 C 
ATOM     19  C   UNL     1       0.669   3.157   0.521  0.00  0.00    +0.048 C 
ENDBRANCH  17  18
ENDBRANCH  15  17
ENDBRANCH   6  15
ENDBRANCH   3   5
BRANCH   1  20
ATOM     20  C   UNL     1      -1.903  -1.125  -4.783  0.00  0.00    +0.180 C 
BRANCH  20  24
ATOM     21  N   UNL     1      -3.649  -3.108  -8.080  0.00  0.00    +0.387 N 
ATOM     22  C   UNL     1      -3.855  -1.657  -7.961  0.00  0.00    -0.063 C 
ATOM     23  C   UNL     1      -2.786  -1.068  -7.038  0.00  0.00    +0.066 C 
ATOM     24  N   UNL     1      -2.865  -1.718  -5.722  0.00  0.00    -0.298 NA
ATOM     25  C   UNL     1      -2.660  -3.168  -5.841  0.00  0.00    +0.066 C 
ATOM     26  C   UNL     1      -3.729  -3.758  -6.764  0.00  0.00    -0.063 C 
ATOM     27  H   UNL     1      -2.639  -3.276  -8.482  0.00  0.00    -0.081 HD
BRANCH  21  28
ATOM     28  C   UNL     1      -4.611  -3.700  -9.019  0.00  0.00    +0.019 C 
BRANCH  28  30
ATOM     29  N   UNL     1      -5.171  -3.500 -11.420  0.00  0.00    -0.317 N 
ATOM     30  C   UNL     1      -4.334  -3.190 -10.410  0.00  0.00    +0.196 C 
ATOM     31  O   UNL     1      -3.359  -2.502 -10.620  0.00  0.00    -0.278 OA
ATOM     32  H   UNL     1      -6.056  -4.125 -11.229  0.00  0.00    +0.149 HD
BRANCH  29  33
ATOM     33  C   UNL     1      -4.902  -3.004 -12.772  0.00  0.00    +0.104 C 
BRANCH  33  35
ATOM     34  C   UNL     1      -5.715  -2.978 -15.134  0.00  0.00    +0.005 C 
ATOM     35  C   UNL     1      -5.996  -3.496 -13.722  0.00  0.00    +0.015 C 
ENDBRANCH  33  35
ENDBRANCH  29  33
ENDBRANCH  28  30
ENDBRANCH  21  28
ENDBRANCH  20  24
ENDBRANCH   1  20
TORSDOF 10
