REMARK  Name = ZINC35520138
REMARK  5 active torsions:
REMARK  status: ('A' for Active; 'I' for Inactive)
REMARK    1  A    between atoms: C_1  and  N_2
REMARK    2  A    between atoms: C_5  and  C_10
REMARK    3  A    between atoms: C_14  and  O_16
REMARK    4  A    between atoms: O_16  and  C_17
REMARK    5  A    between atoms: N_20  and  C_22
REMARK                            x       y       z     vdW  Elec       q    Type
REMARK                         _______ _______ _______ _____ _____    ______ ____
ROOT
ATOM      1  C   UNL     1      -0.018   1.461   0.010  0.00  0.00    +0.139 C 
ATOM      2  N   UNL     1       0.002  -0.004   0.002  0.00  0.00    -0.260 N 
ATOM      3  C   UNL     1      -1.193  -0.666   0.004  0.00  0.00    +0.042 C 
ATOM      4  C   UNL     1      -1.245  -2.014  -0.003  0.00  0.00    +0.058 C 
ATOM      5  C   UNL     1       0.068  -2.770  -0.013  0.00  0.00    +0.142 C 
ATOM      6  N   UNL     1       1.301  -1.964  -0.015  0.00  0.00    -0.288 N 
ATOM      7  C   UNL     1       1.191  -0.621  -0.013  0.00  0.00    +0.307 C 
ATOM      8  O   UNL     1       2.203   0.052  -0.019  0.00  0.00    -0.252 OA
ATOM      9  C   UNL     1      -2.585  -2.452   0.002  0.00  0.00    +0.251 C 
ATOM     10  O   UNL     1      -2.926  -3.621  -0.002  0.00  0.00    -0.270 OA
ATOM     11  N   UNL     1      -3.437  -1.411   0.012  0.00  0.00    -0.262 N 
ATOM     12  C   UNL     1      -2.626  -0.184   0.015  0.00  0.00    +0.165 C 
ATOM     13  H   UNL     1       2.172  -2.391  -0.022  0.00  0.00    +0.151 HD
ENDROOT
BRANCH  11  14
ATOM     14  C   UNL     1      -4.835  -1.482   0.018  0.00  0.00    +0.037 A 
ATOM     15  C   UNL     1      -5.590  -0.318   0.023  0.00  0.00    +0.026 A 
ATOM     16  C   UNL     1      -6.970  -0.390   0.028  0.00  0.00    +0.040 A 
ATOM     17  C   UNL     1      -7.599  -1.624   0.030  0.00  0.00    +0.124 A 
ATOM     18  C   UNL     1      -6.847  -2.787   0.027  0.00  0.00    +0.040 A 
ATOM     19  C   UNL     1      -5.468  -2.719   0.015  0.00  0.00    +0.026 A 
ATOM     20  F   UNL     1      -8.948  -1.692   0.036  0.00  0.00    -0.205 F 
ENDBRANCH  11  14
BRANCH   5  21
ATOM     21  C   UNL     1       0.087  -3.650  -1.236  0.00  0.00    -0.019 A 
ATOM     22  C   UNL     1       0.410  -3.114  -2.469  0.00  0.00    +0.006 A 
ATOM     23  C   UNL     1       0.429  -3.919  -3.593  0.00  0.00    +0.004 A 
ATOM     24  C   UNL     1       0.124  -5.262  -3.486  0.00  0.00    +0.045 A 
ATOM     25  C   UNL     1      -0.200  -5.803  -2.251  0.00  0.00    +0.120 A 
ATOM     26  C   UNL     1      -0.212  -4.994  -1.123  0.00  0.00    +0.051 A 
BRANCH  25  27
ATOM     27  O   UNL     1      -0.499  -7.124  -2.144  0.00  0.00    -0.495 OA
ATOM     28  C   UNL     1      -0.461  -7.898  -3.345  0.00  0.00    +0.277 C 
ENDBRANCH  25  27
ENDBRANCH   5  21
TORSDOF 3
