REMARK  Name = ZINC39675402
REMARK  12 active torsions:
REMARK  status: ('A' for Active; 'I' for Inactive)
REMARK    1  A    between atoms: C_1  and  C_2
REMARK    2  A    between atoms: C_2  and  C_4
REMARK    3  A    between atoms: C_2  and  N_14
REMARK    4  A    between atoms: C_4  and  C_5
REMARK    5  A    between atoms: C_5  and  C_6
REMARK    6  A    between atoms: C_9  and  O_12
REMARK    7  A    between atoms: O_12  and  C_13
REMARK    8  A    between atoms: C_15  and  C_17
REMARK    9  A    between atoms: C_28  and  C_30
REMARK   10  A    between atoms: C_30  and  C_31
REMARK   11  A    between atoms: C_31  and  C_32
REMARK   12  A    between atoms: C_32  and  C_33
REMARK                            x       y       z     vdW  Elec       q    Type
REMARK                         _______ _______ _______ _____ _____    ______ ____
ROOT
ATOM      1  C   UNL     1       0.780  -1.133   3.576  0.00  0.00    +0.100 C 
ATOM      2  C   UNL     1       1.189  -2.611   3.392  0.00  0.00    +0.121 C 
ATOM      3  N   UNL     1       1.007  -3.220   4.731  0.00  0.00    -0.300 N 
ATOM      4  C   UNL     1      -0.237  -2.602   5.250  0.00  0.00    +0.115 C 
ATOM      5  C   UNL     1      -0.156  -1.131   4.797  0.00  0.00    -0.004 C 
ATOM      6  C   UNL     1       0.429  -0.267   5.910  0.00  0.00    -0.010 C 
ATOM      7  C   UNL     1      -0.546  -0.235   7.090  0.00  0.00    -0.082 C 
ATOM      8  N   UNL     1      -1.836   0.308   6.647  0.00  0.00    +0.379 N 
ATOM      9  C   UNL     1      -2.435  -0.578   5.643  0.00  0.00    -0.082 C 
ATOM     10  C   UNL     1      -1.540  -0.625   4.401  0.00  0.00    -0.010 C 
ATOM     11  C   UNL     1       1.794  -4.130   5.338  0.00  0.00    +0.216 C 
ATOM     12  O   UNL     1       1.508  -4.536   6.445  0.00  0.00    -0.276 OA
ATOM     13  H   UNL     1      -2.457   0.385   7.439  0.00  0.00    -0.086 HD
ATOM     14  H   UNL     1      -1.694   1.223   6.245  0.00  0.00    -0.086 HD
ENDROOT
BRANCH   1  16
ATOM     15  N   UNL     1       0.108   0.671   2.023  0.00  0.00    -0.312 N 
ATOM     16  C   UNL     1       0.051  -0.633   2.355  0.00  0.00    +0.218 C 
ATOM     17  O   UNL     1      -0.587  -1.406   1.672  0.00  0.00    -0.275 OA
ATOM     18  H   UNL     1       0.619   1.289   2.570  0.00  0.00    +0.149 HD
BRANCH  15  20
ATOM     19  C   UNL     1      -2.054   1.464   1.200  0.00  0.00    +0.028 C 
ATOM     20  C   UNL     1      -0.600   1.157   0.836  0.00  0.00    +0.070 C 
BRANCH  20  21
ATOM     21  C   UNL     1       0.077   2.429   0.323  0.00  0.00    +0.026 C 
BRANCH  21  22
ATOM     22  C   UNL     1       1.491   2.096  -0.158  0.00  0.00    +0.037 C 
BRANCH  22  23
ATOM     23  C   UNL     1       2.158   3.349  -0.664  0.00  0.00    -0.047 A 
ATOM     24  C   UNL     1       2.034   3.709  -1.993  0.00  0.00    +0.007 A 
ATOM     25  C   UNL     1       2.644   4.857  -2.459  0.00  0.00    +0.046 A 
ATOM     26  C   UNL     1       3.382   5.649  -1.592  0.00  0.00    +0.120 A 
ATOM     27  C   UNL     1       3.505   5.287  -0.259  0.00  0.00    +0.046 A 
ATOM     28  C   UNL     1       2.888   4.141   0.204  0.00  0.00    +0.007 A 
BRANCH  26  29
ATOM     29  O   UNL     1       3.984   6.779  -2.049  0.00  0.00    -0.495 OA
ATOM     30  C   UNL     1       4.728   7.547  -1.100  0.00  0.00    +0.277 C 
ENDBRANCH  26  29
ENDBRANCH  22  23
ENDBRANCH  21  22
ENDBRANCH  20  21
ENDBRANCH  15  20
ENDBRANCH   1  16
BRANCH  11  31
ATOM     31  C   UNL     1       3.028  -4.643   4.643  0.00  0.00    +0.096 C 
BRANCH  31  32
ATOM     32  C   UNL     1       3.736  -5.658   5.543  0.00  0.00    +0.014 C 
BRANCH  32  33
ATOM     33  C   UNL     1       4.989  -6.179   4.836  0.00  0.00    +0.035 C 
BRANCH  33  34
ATOM     34  C   UNL     1       5.687  -7.178   5.723  0.00  0.00    -0.047 A 
ATOM     35  C   UNL     1       6.646  -6.752   6.623  0.00  0.00    +0.003 A 
ATOM     36  C   UNL     1       7.285  -7.669   7.436  0.00  0.00    +0.000 A 
ATOM     37  C   UNL     1       6.966  -9.011   7.350  0.00  0.00    +0.000 A 
ATOM     38  C   UNL     1       6.006  -9.437   6.450  0.00  0.00    +0.000 A 
ATOM     39  C   UNL     1       5.364  -8.519   5.640  0.00  0.00    +0.003 A 
ENDBRANCH  33  34
ENDBRANCH  32  33
ENDBRANCH  31  32
ENDBRANCH  11  31
TORSDOF 10
