REMARK  Name = ZINC05275478
REMARK  10 active torsions:
REMARK  status: ('A' for Active; 'I' for Inactive)
REMARK    1  A    between atoms: C_1  and  C_2
REMARK    2  A    between atoms: C_4  and  C_19
REMARK    3  A    between atoms: C_13  and  C_14
REMARK    4  A    between atoms: C_13  and  O_15
REMARK    5  A    between atoms: C_21  and  O_29
REMARK    6  A    between atoms: C_22  and  O_27
REMARK    7  A    between atoms: C_23  and  O_25
REMARK    8  A    between atoms: O_25  and  C_26
REMARK    9  A    between atoms: O_27  and  C_28
REMARK   10  A    between atoms: O_29  and  C_30
REMARK                            x       y       z     vdW  Elec       q    Type
REMARK                         _______ _______ _______ _____ _____    ______ ____
ROOT
ATOM      1  C   UNL     1      -4.564   0.346  -1.588  0.00  0.00    +0.015 C 
ATOM      2  C   UNL     1      -4.567   0.735  -0.108  0.00  0.00    +0.069 C 
ATOM      3  C   UNL     1      -3.739   2.006   0.093  0.00  0.00    +0.062 C 
ATOM      4  C   UNL     1      -2.275   1.691  -0.083  0.00  0.00    +0.006 A 
ATOM      5  C   UNL     1      -1.392   2.737  -0.305  0.00  0.00    +0.057 A 
ATOM      6  C   UNL     1      -0.041   2.489  -0.471  0.00  0.00    +0.167 A 
ATOM      7  C   UNL     1       0.436   1.182  -0.405  0.00  0.00    +0.170 A 
ATOM      8  C   UNL     1      -0.445   0.140  -0.180  0.00  0.00    +0.095 A 
ATOM      9  C   UNL     1      -1.804   0.392  -0.019  0.00  0.00    +0.132 A 
ATOM     10  O   UNL     1      -2.636  -0.661   0.196  0.00  0.00    -0.461 OA
ATOM     11  C   UNL     1      -3.935  -0.389   0.723  0.00  0.00    +0.211 C 
ATOM     12  C   UNL     1      -4.802  -1.647   0.632  0.00  0.00    +0.089 C 
ATOM     13  O   UNL     1       1.788   1.201  -0.593  0.00  0.00    -0.452 OA
ATOM     14  C   UNL     1       2.189   2.565  -0.366  0.00  0.00    +0.466 C 
ATOM     15  O   UNL     1       1.013   3.327  -0.700  0.00  0.00    -0.453 OA
ENDROOT
BRANCH   3  16
ATOM     16  C   UNL     1      -3.972   2.541   1.482  0.00  0.00    -0.032 A 
ATOM     17  C   UNL     1      -3.016   2.356   2.462  0.00  0.00    +0.054 A 
ATOM     18  C   UNL     1      -3.224   2.852   3.740  0.00  0.00    +0.165 A 
ATOM     19  C   UNL     1      -4.402   3.526   4.038  0.00  0.00    +0.204 A 
ATOM     20  C   UNL     1      -5.364   3.706   3.051  0.00  0.00    +0.165 A 
ATOM     21  C   UNL     1      -5.145   3.212   1.774  0.00  0.00    +0.054 A 
BRANCH  20  22
ATOM     22  O   UNL     1      -6.519   4.365   3.338  0.00  0.00    -0.491 OA
ATOM     23  C   UNL     1      -7.463   4.512   2.275  0.00  0.00    +0.277 C 
ENDBRANCH  20  22
BRANCH  19  24
ATOM     24  O   UNL     1      -4.613   4.009   5.293  0.00  0.00    -0.488 OA
ATOM     25  C   UNL     1      -5.260   3.138   6.223  0.00  0.00    +0.277 C 
ENDBRANCH  19  24
BRANCH  18  26
ATOM     26  O   UNL     1      -2.280   2.674   4.702  0.00  0.00    -0.491 OA
ATOM     27  C   UNL     1      -1.049   2.069   4.300  0.00  0.00    +0.277 C 
ENDBRANCH  18  26
ENDBRANCH   3  16
BRANCH  11  28
ATOM     28  O   UNL     1      -3.825   0.024   2.086  0.00  0.00    -0.355 OA
ATOM     29  H   UNL     1      -3.474  -0.657   2.676  0.00  0.00    +0.214 HD
ENDBRANCH  11  28
TORSDOF 5
