REMARK  Name = ZINC39515556
REMARK  7 active torsions:
REMARK  status: ('A' for Active; 'I' for Inactive)
REMARK    1  A    between atoms: C_1  and  C_2
REMARK    2  A    between atoms: C_5  and  N_8
REMARK    3  A    between atoms: C_12  and  C_32
REMARK    4  A    between atoms: C_12  and  C_33
REMARK    5  A    between atoms: C_14  and  N_19
REMARK    6  A    between atoms: C_20  and  C_22
REMARK    7  A    between atoms: C_24  and  C_31
REMARK                            x       y       z     vdW  Elec       q    Type
REMARK                         _______ _______ _______ _____ _____    ______ ____
ROOT
ATOM      1  N   UNL     1      -0.022  -4.172  -0.054  0.00  0.00    -0.246 N 
ATOM      2  C   UNL     1       0.127  -5.055   1.108  0.00  0.00    +0.124 C 
ATOM      3  C   UNL     1       1.371  -4.706   1.929  0.00  0.00    +0.035 C 
ATOM      4  C   UNL     1       1.643  -5.848   2.912  0.00  0.00    -0.031 C 
ATOM      5  C   UNL     1       2.011  -7.133   2.171  0.00  0.00    +0.033 C 
ATOM      6  C   UNL     1       0.820  -7.609   1.323  0.00  0.00    +0.103 C 
ATOM      7  C   UNL     1       0.352  -6.429   0.498  0.00  0.00    -0.013 C 
ATOM      8  C   UNL     1       0.165  -6.331  -0.790  0.00  0.00    +0.091 C 
ATOM      9  N   UNL     1      -0.123  -5.028  -1.165  0.00  0.00    -0.271 N 
ATOM     10  C   UNL     1       2.798  -5.452   3.835  0.00  0.00    +0.011 C 
ATOM     11  C   UNL     1       0.390  -6.096   3.755  0.00  0.00    +0.011 C 
ATOM     12  H   UNL     1      -0.357  -4.746  -2.063  0.00  0.00    +0.169 HD
ENDROOT
BRANCH   1  17
ATOM     13  C   UNL     1      -0.182   1.496  -0.061  0.00  0.00    +0.044 C 
ATOM     14  C   UNL     1      -0.140  -0.010  -0.059  0.00  0.00    -0.050 A 
ATOM     15  C   UNL     1      -0.084  -0.700  -1.256  0.00  0.00    +0.005 A 
ATOM     16  C   UNL     1      -0.045  -2.081  -1.258  0.00  0.00    +0.025 A 
ATOM     17  C   UNL     1      -0.061  -2.776  -0.056  0.00  0.00    +0.048 A 
ATOM     18  C   UNL     1      -0.116  -2.080   1.145  0.00  0.00    +0.025 A 
ATOM     19  C   UNL     1      -0.150  -0.699   1.140  0.00  0.00    +0.005 A 
ENDBRANCH   1  17
BRANCH   6  20
ATOM     20  N   UNL     1       1.238  -8.705   0.445  0.00  0.00    -0.308 N 
ATOM     21  C   UNL     1       0.329  -9.596   0.001  0.00  0.00    +0.230 C 
ATOM     22  O   UNL     1      -0.834  -9.490   0.328  0.00  0.00    -0.275 OA
ATOM     23  H   UNL     1       2.168  -8.789   0.183  0.00  0.00    +0.149 HD
BRANCH  21  24
ATOM     24  C   UNL     1       0.758 -10.723  -0.903  0.00  0.00    +0.186 C 
ATOM     25  C   UNL     1      -0.297 -10.940  -1.945  0.00  0.00    -0.050 C 
ATOM     26  C   UNL     1      -0.694 -12.149  -2.306  0.00  0.00    +0.023 C 
ATOM     27  C   UNL     1      -0.096 -13.338  -1.665  0.00  0.00    +0.026 C 
ATOM     28  N   UNL     1       0.602 -13.172  -0.463  0.00  0.00    -0.285 N 
ATOM     29  C   UNL     1       0.991 -11.949  -0.074  0.00  0.00    +0.233 C 
ATOM     30  O   UNL     1       1.556 -11.831   0.993  0.00  0.00    -0.274 OA
ATOM     31  C   UNL     1      -0.219 -14.546  -2.221  0.00  0.00    +0.033 C 
ATOM     32  C   UNL     1      -0.926  -9.740  -2.605  0.00  0.00    +0.040 C 
ATOM     33  H   UNL     1       0.804 -13.943   0.090  0.00  0.00    +0.155 HD
ENDBRANCH  21  24
ENDBRANCH   6  20
TORSDOF 3
