REMARK  Name = ZINC37212431
REMARK  7 active torsions:
REMARK  status: ('A' for Active; 'I' for Inactive)
REMARK    1  A    between atoms: C_1  and  C_2
REMARK    2  A    between atoms: C_4  and  C_20
REMARK    3  A    between atoms: C_6  and  N_8
REMARK    4  A    between atoms: N_8  and  C_9
REMARK    5  A    between atoms: C_9  and  C_10
REMARK    6  A    between atoms: C_11  and  C_19
REMARK    7  A    between atoms: C_15  and  C_18
REMARK                            x       y       z     vdW  Elec       q    Type
REMARK                         _______ _______ _______ _____ _____    ______ ____
ROOT
ATOM      1  C   UNL     1       0.048  -2.073   3.665  0.00  0.00    +0.157 C 
ENDROOT
BRANCH   1   2
ATOM      2  C   UNL     1       0.067  -3.061   4.803  0.00  0.00    +0.064 A 
ATOM      3  C   UNL     1      -1.008  -3.599   5.402  0.00  0.00    +0.062 A 
ATOM      4  N   UNL     1      -0.584  -4.430   6.367  0.00  0.00    -0.226 NA
ATOM      5  C   UNL     1       0.718  -4.425   6.386  0.00  0.00    +0.178 A 
ATOM      6  N   UNL     1       1.201  -3.584   5.417  0.00  0.00    -0.293 N 
ATOM      7  C   UNL     1       2.571  -3.478   5.310  0.00  0.00    +0.029 A 
ATOM      8  C   UNL     1       3.374  -4.171   6.116  0.00  0.00    +0.070 A 
ATOM      9  S   UNL     1       2.202  -5.052   7.136  0.00  0.00    -0.057 S 
ATOM     10  C   UNL     1       3.167  -2.568   4.267  0.00  0.00    +0.064 C 
ATOM     11  C   UNL     1      -2.446  -3.317   5.052  0.00  0.00    +0.067 C 
ENDBRANCH   1   2
BRANCH   1  12
ATOM     12  N   UNL     1       0.051  -2.796   2.390  0.00  0.00    -0.338 N 
ATOM     13  H   UNL     1       0.064  -3.766   2.383  0.00  0.00    +0.146 HD
BRANCH  12  19
ATOM     14  C   UNL     1      -0.018   1.503   0.010  0.00  0.00    +0.044 C 
ATOM     15  C   UNL     1       0.002  -0.004   0.002  0.00  0.00    -0.048 A 
ATOM     16  C   UNL     1       0.006  -0.688  -1.200  0.00  0.00    +0.006 A 
ATOM     17  C   UNL     1       0.024  -2.071  -1.212  0.00  0.00    -0.048 A 
ATOM     18  C   UNL     1       0.039  -2.773  -0.023  0.00  0.00    +0.026 A 
ATOM     19  C   UNL     1       0.036  -2.089   1.186  0.00  0.00    +0.028 A 
ATOM     20  C   UNL     1       0.023  -0.700   1.195  0.00  0.00    +0.026 A 
ATOM     21  C   UNL     1       0.027  -2.812  -2.524  0.00  0.00    +0.044 C 
ENDBRANCH  12  19
ENDBRANCH   1  12
TORSDOF 3
