REMARK  Name = ZINC09217821
REMARK  5 active torsions:
REMARK  status: ('A' for Active; 'I' for Inactive)
REMARK    1  A    between atoms: C_8  and  C_26
REMARK    2  A    between atoms: C_11  and  C_12
REMARK    3  A    between atoms: C_11  and  N_50
REMARK    4  A    between atoms: N_14  and  C_15
REMARK    5  A    between atoms: C_16  and  C_23
REMARK                            x       y       z     vdW  Elec       q    Type
REMARK                         _______ _______ _______ _____ _____    ______ ____
ROOT
ATOM      1  C   UNL     1       1.460   0.981   0.694  0.00  0.00    +0.020 C 
ENDROOT
BRANCH   1  11
ATOM      2  C   UNL     1      -3.008   4.694   3.444  0.00  0.00    +0.000 A 
ATOM      3  C   UNL     1      -2.014   5.503   2.925  0.00  0.00    +0.000 A 
ATOM      4  C   UNL     1      -0.905   4.934   2.332  0.00  0.00    +0.002 A 
ATOM      5  C   UNL     1      -0.781   3.555   2.253  0.00  0.00    -0.061 A 
ATOM      6  C   UNL     1      -1.773   2.749   2.768  0.00  0.00    -0.047 A 
ATOM      7  C   UNL     1      -2.887   3.321   3.365  0.00  0.00    +0.004 A 
ATOM      8  C   UNL     1      -1.686   1.246   2.701  0.00  0.00    +0.029 C 
ATOM      9  C   UNL     1      -0.248   0.819   2.405  0.00  0.00    +0.024 C 
ATOM     10  C   UNL     1       0.452   2.982   1.605  0.00  0.00    -0.041 C 
ATOM     11  N   UNL     1       0.215   1.579   1.227  0.00  0.00    +0.396 N 
ATOM     12  H   UNL     1      -0.509   1.545   0.500  0.00  0.00    -0.080 HD
BRANCH   9  13
ATOM     13  C   UNL     1      -0.211  -0.656   2.099  0.00  0.00    +0.197 C 
ATOM     14  O   UNL     1      -0.441  -1.048   0.974  0.00  0.00    -0.278 OA
ATOM     15  N   UNL     1       0.079  -1.540   3.074  0.00  0.00    -0.331 N 
ATOM     16  H   UNL     1       0.263  -1.227   3.974  0.00  0.00    +0.145 HD
ATOM     17  H   UNL     1       0.103  -2.489   2.877  0.00  0.00    +0.145 HD
ENDBRANCH   9  13
ENDBRANCH   1  11
BRANCH   1  18
ATOM     18  C   UNL     1       1.705   1.516  -0.693  0.00  0.00    +0.201 C 
ATOM     19  O   UNL     1       0.934   2.316  -1.179  0.00  0.00    -0.278 OA
ATOM     20  N   UNL     1       2.780   1.105  -1.395  0.00  0.00    -0.281 N 
ATOM     21  H   UNL     1       3.396   0.465  -1.006  0.00  0.00    +0.155 HD
BRANCH  20  22
ATOM     22  C   UNL     1       3.005   1.597  -2.671  0.00  0.00    +0.084 A 
ATOM     23  C   UNL     1       4.044   1.303  -3.536  0.00  0.00    +0.068 A 
ATOM     24  C   UNL     1       4.047   1.962  -4.842  0.00  0.00    -0.023 A 
ATOM     25  C   UNL     1       3.022   2.806  -5.057  0.00  0.00    -0.004 A 
ATOM     26  S   UNL     1       2.057   2.735  -3.567  0.00  0.00    -0.077 S 
ATOM     27  C   UNL     1       3.094   3.446  -6.417  0.00  0.00    +0.043 C 
ATOM     28  C   UNL     1       4.081   2.562  -7.211  0.00  0.00    +0.010 C 
ATOM     29  C   UNL     1       4.941   1.959  -6.082  0.00  0.00    +0.037 C 
BRANCH  23  30
ATOM     30  C   UNL     1       5.103   0.361  -3.159  0.00  0.00    +0.244 C 
ATOM     31  O   UNL     1       4.981  -0.824  -3.408  0.00  0.00    -0.270 OA
ATOM     32  N   UNL     1       6.212   0.808  -2.536  0.00  0.00    -0.325 N 
ATOM     33  H   UNL     1       6.309   1.752  -2.337  0.00  0.00    +0.145 HD
ATOM     34  H   UNL     1       6.912   0.185  -2.286  0.00  0.00    +0.145 HD
ENDBRANCH  23  30
ENDBRANCH  20  22
ENDBRANCH   1  18
TORSDOF 5
