REMARK  Name = ZINC09493038
REMARK  6 active torsions:
REMARK  status: ('A' for Active; 'I' for Inactive)
REMARK    1  A    between atoms: C_4  and  C_7
REMARK    2  A    between atoms: C_7  and  C_8
REMARK    3  A    between atoms: C_7  and  C_14
REMARK    4  A    between atoms: C_7  and  O_35
REMARK    5  A    between atoms: C_19  and  N_20
REMARK    6  A    between atoms: C_21  and  C_23
REMARK                            x       y       z     vdW  Elec       q    Type
REMARK                         _______ _______ _______ _____ _____    ______ ____
ROOT
ATOM      1  C   UNL     1       2.436  -3.371  -0.119  0.00  0.00    +0.014 A 
ATOM      2  C   UNL     1       2.491  -4.731  -0.357  0.00  0.00    +0.009 A 
ATOM      3  C   UNL     1       3.576  -5.467   0.082  0.00  0.00    +0.000 A 
ATOM      4  C   UNL     1       4.609  -4.845   0.760  0.00  0.00    +0.002 A 
ATOM      5  C   UNL     1       4.559  -3.486   1.000  0.00  0.00    +0.024 A 
ATOM      6  C   UNL     1       3.471  -2.744   0.561  0.00  0.00    +0.040 A 
ENDROOT
BRANCH   6   7
ATOM      7  N   UNL     1       3.418  -1.367   0.803  0.00  0.00    -0.282 N 
ATOM      8  C   UNL     1       4.549  -0.634   0.781  0.00  0.00    +0.258 C 
ATOM      9  O   UNL     1       5.603  -1.156   0.485  0.00  0.00    -0.271 OA
ATOM     10  H   UNL     1       2.567  -0.939   0.987  0.00  0.00    +0.155 HD
BRANCH   8  11
ATOM     11  C   UNL     1       4.504   0.833   1.123  0.00  0.00    +0.266 C 
ATOM     12  C   UNL     1       3.679   1.577   0.073  0.00  0.00    +0.090 C 
ATOM     13  C   UNL     1       3.825   3.065   0.252  0.00  0.00    -0.029 A 
ATOM     14  C   UNL     1       2.871   3.918  -0.268  0.00  0.00    +0.004 A 
ATOM     15  C   UNL     1       3.005   5.286  -0.114  0.00  0.00    +0.000 A 
ATOM     16  C   UNL     1       4.092   5.813   0.561  0.00  0.00    +0.001 A 
ATOM     17  C   UNL     1       5.052   4.973   1.087  0.00  0.00    +0.015 A 
ATOM     18  C   UNL     1       4.920   3.594   0.935  0.00  0.00    +0.062 A 
ATOM     19  C   UNL     1       5.939   2.677   1.497  0.00  0.00    +0.340 C 
ATOM     20  O   UNL     1       6.810   3.078   2.243  0.00  0.00    -0.245 OA
ATOM     21  O   UNL     1       5.858   1.370   1.142  0.00  0.00    -0.448 OA
ENDBRANCH   8  11
ENDBRANCH   6   7
BRANCH   1  22
ATOM     22  C   UNL     1       1.253  -2.570  -0.598  0.00  0.00    +0.143 C 
BRANCH  22  26
ATOM     23  C   UNL     1      -0.303  -4.322  -4.170  0.00  0.00    +0.000 A 
ATOM     24  C   UNL     1      -0.672  -4.824  -2.936  0.00  0.00    +0.000 A 
ATOM     25  C   UNL     1      -0.169  -4.257  -1.780  0.00  0.00    +0.007 A 
ATOM     26  C   UNL     1       0.704  -3.188  -1.858  0.00  0.00    -0.007 A 
ATOM     27  C   UNL     1       1.069  -2.682  -3.092  0.00  0.00    +0.007 A 
ATOM     28  C   UNL     1       0.569  -3.252  -4.248  0.00  0.00    +0.000 A 
ENDBRANCH  22  26
BRANCH  22  29
ATOM     29  C   UNL     1       0.185  -2.565   0.465  0.00  0.00    -0.007 A 
ATOM     30  C   UNL     1       0.245  -3.470   1.508  0.00  0.00    +0.007 A 
ATOM     31  C   UNL     1      -0.732  -3.463   2.487  0.00  0.00    +0.000 A 
ATOM     32  C   UNL     1      -1.774  -2.557   2.416  0.00  0.00    +0.000 A 
ATOM     33  C   UNL     1      -1.836  -1.655   1.371  0.00  0.00    +0.000 A 
ATOM     34  C   UNL     1      -0.857  -1.659   0.395  0.00  0.00    +0.007 A 
ENDBRANCH  22  29
BRANCH  22  35
ATOM     35  O   UNL     1       1.664  -1.227  -0.866  0.00  0.00    -0.375 OA
ATOM     36  H   UNL     1       2.509  -1.160  -1.331  0.00  0.00    +0.211 HD
ENDBRANCH  22  35
ENDBRANCH   1  22
TORSDOF 6
