REMARK  Name = ZINC38999309
REMARK  5 active torsions:
REMARK  status: ('A' for Active; 'I' for Inactive)
REMARK    1  A    between atoms: C_1  and  C_2
REMARK    2  A    between atoms: C_5  and  C_8
REMARK    3  A    between atoms: N_14  and  N_15
REMARK    4  A    between atoms: C_16  and  C_17
REMARK    5  A    between atoms: C_22  and  O_23
REMARK                            x       y       z     vdW  Elec       q    Type
REMARK                         _______ _______ _______ _____ _____    ______ ____
ROOT
ATOM      1  C   UNL     1       0.137  -4.414  -0.023  0.00  0.00    +0.264 C 
ATOM      2  N   UNL     1      -0.706  -4.784  -1.170  0.00  0.00    -0.189 NA
ATOM      3  N   UNL     1      -1.767  -5.240  -0.735  0.00  0.00    -0.219 N 
ATOM      4  C   UNL     1      -1.829  -5.260   0.624  0.00  0.00    +0.174 C 
ATOM      5  S   UNL     1      -3.161  -5.830   1.536  0.00  0.00    -0.015 S 
ATOM      6  N   UNL     1      -0.684  -4.765   1.151  0.00  0.00    -0.172 N 
ATOM      7  H   UNL     1      -2.486  -5.553  -1.306  0.00  0.00    +0.176 HD
ENDROOT
BRANCH   1  12
ATOM      8  C   UNL     1       1.269   1.252  -0.085  0.00  0.00    +0.044 C 
ATOM      9  C   UNL     1       0.974  -0.226  -0.069  0.00  0.00    -0.050 A 
ATOM     10  C   UNL     1       0.842  -0.917  -1.258  0.00  0.00    +0.004 A 
ATOM     11  C   UNL     1       0.571  -2.272  -1.243  0.00  0.00    +0.008 A 
ATOM     12  C   UNL     1       0.433  -2.937  -0.039  0.00  0.00    -0.002 A 
ATOM     13  C   UNL     1       0.566  -2.245   1.151  0.00  0.00    +0.008 A 
ATOM     14  C   UNL     1       0.841  -0.891   1.136  0.00  0.00    +0.004 A 
ENDBRANCH   1  12
BRANCH   6  15
ATOM     15  N   UNL     1      -0.353  -4.617   2.504  0.00  0.00    -0.183 NA
ATOM     16  C   UNL     1      -1.148  -5.080   3.422  0.00  0.00    +0.142 C 
BRANCH  16  17
ATOM     17  C   UNL     1      -0.886  -4.784   4.841  0.00  0.00    +0.038 A 
ATOM     18  C   UNL     1      -1.736  -5.284   5.831  0.00  0.00    +0.028 A 
ATOM     19  C   UNL     1      -1.485  -5.004   7.159  0.00  0.00    +0.020 A 
ATOM     20  C   UNL     1      -0.394  -4.229   7.514  0.00  0.00    +0.034 A 
ATOM     21  C   UNL     1       0.454  -3.727   6.543  0.00  0.00    +0.061 A 
ATOM     22  C   UNL     1       0.219  -4.004   5.206  0.00  0.00    +0.139 A 
ATOM     23 BR   UNL     1       1.940  -2.669   7.042  0.00  0.00    -0.046 Br
ATOM     24 BR   UNL     1      -2.635  -5.682   8.498  0.00  0.00    -0.050 Br
BRANCH  22  25
ATOM     25  O   UNL     1       1.055  -3.517   4.252  0.00  0.00    -0.505 OA
ATOM     26  H   UNL     1       0.802  -2.646   3.915  0.00  0.00    +0.292 HD
ENDBRANCH  22  25
ENDBRANCH  16  17
ENDBRANCH   6  15
TORSDOF 4
