REMARK  Name = ZINC20713481
REMARK  5 active torsions:
REMARK  status: ('A' for Active; 'I' for Inactive)
REMARK    1  A    between atoms: C_1  and  C_2
REMARK    2  A    between atoms: C_2  and  C_3
REMARK    3  A    between atoms: C_2  and  C_4
REMARK    4  A    between atoms: C_11  and  C_20
REMARK    5  A    between atoms: C_25  and  N_26
REMARK                            x       y       z     vdW  Elec       q    Type
REMARK                         _______ _______ _______ _____ _____    ______ ____
ROOT
ATOM      1  C   UNL     1       2.206   0.967   0.885  0.00  0.00    -0.024 A 
ATOM      2  C   UNL     1       3.498   1.440   0.945  0.00  0.00    +0.006 A 
ATOM      3  C   UNL     1       3.899   2.476   0.122  0.00  0.00    +0.001 A 
ATOM      4  C   UNL     1       2.998   3.031  -0.767  0.00  0.00    +0.006 A 
ATOM      5  C   UNL     1       1.705   2.558  -0.840  0.00  0.00    -0.019 A 
ATOM      6  C   UNL     1       1.282   1.522  -0.002  0.00  0.00    +0.035 A 
ATOM      7  N   UNL     1      -0.012   1.005   0.008  0.00  0.00    -0.336 N 
ATOM      8  C   UNL     1      -0.941   1.525  -1.008  0.00  0.00    +0.107 C 
ATOM      9  C   UNL     1      -0.673   3.011  -1.137  0.00  0.00    +0.029 C 
ATOM     10  C   UNL     1       0.731   3.101  -1.811  0.00  0.00    +0.049 C 
ATOM     11  C   UNL     1       0.781   4.501  -2.299  0.00  0.00    -0.023 C 
ATOM     12  C   UNL     1      -0.460   4.904  -2.550  0.00  0.00    -0.030 C 
ATOM     13  C   UNL     1      -1.451   3.790  -2.204  0.00  0.00    +0.033 C 
ATOM     14  H   UNL     1      -0.352   0.245   0.726  0.00  0.00    +0.147 HD
ENDROOT
BRANCH   8  15
ATOM     15  C   UNL     1      -0.693   0.842  -2.329  0.00  0.00    +0.003 A 
ATOM     16  C   UNL     1       0.516   0.216  -2.567  0.00  0.00    +0.008 A 
ATOM     17  C   UNL     1       0.741  -0.415  -3.776  0.00  0.00    +0.000 A 
ATOM     18  C   UNL     1      -0.239  -0.410  -4.751  0.00  0.00    +0.002 A 
ATOM     19  C   UNL     1      -1.446   0.220  -4.515  0.00  0.00    +0.033 A 
ATOM     20  C   UNL     1      -1.673   0.847  -3.303  0.00  0.00    +0.131 A 
BRANCH  20  21
ATOM     21  N   UNL     1      -2.965   1.522  -3.050  0.00  0.00    +0.057 N 
ATOM     22  O   UNL     1      -3.829   1.526  -3.909  0.00  0.00    -0.126 OA
ATOM     23  O   UNL     1      -3.165   2.075  -1.983  0.00  0.00    -0.126 OA
ENDBRANCH  20  21
ENDBRANCH   8  15
BRANCH   1  25
ATOM     24  C   UNL     1       2.647  -1.393   1.504  0.00  0.00    +0.012 C 
ATOM     25  C   UNL     1       1.784  -0.162   1.789  0.00  0.00    +0.015 C 
ATOM     26  C   UNL     1       1.963   0.259   3.249  0.00  0.00    +0.012 C 
ENDBRANCH   1  25
TORSDOF 3
