REMARK  Name = ZINC11946248
REMARK  12 active torsions:
REMARK  status: ('A' for Active; 'I' for Inactive)
REMARK    1  A    between atoms: C_1  and  C_2
REMARK    2  A    between atoms: C_3  and  C_8
REMARK    3  A    between atoms: N_5  and  C_7
REMARK    4  A    between atoms: C_8  and  N_55
REMARK    5  A    between atoms: C_9  and  C_10
REMARK    6  A    between atoms: C_9  and  N_55
REMARK    7  A    between atoms: C_15  and  O_16
REMARK    8  A    between atoms: O_16  and  C_17
REMARK    9  A    between atoms: C_17  and  C_18
REMARK   10  A    between atoms: C_18  and  C_20
REMARK   11  A    between atoms: C_18  and  O_26
REMARK   12  A    between atoms: C_20  and  N_58
REMARK                            x       y       z     vdW  Elec       q    Type
REMARK                         _______ _______ _______ _____ _____    ______ ____
ROOT
ATOM      1  C   UNL     1       0.619  -1.991  -1.150  0.00  0.00    -0.023 A 
ATOM      2  C   UNL     1       1.238  -2.603  -2.223  0.00  0.00    +0.005 A 
ATOM      3  C   UNL     1       1.820  -1.836  -3.215  0.00  0.00    +0.000 A 
ATOM      4  C   UNL     1       1.784  -0.456  -3.136  0.00  0.00    +0.004 A 
ATOM      5  C   UNL     1       1.161   0.160  -2.069  0.00  0.00    +0.046 A 
ATOM      6  C   UNL     1       0.581  -0.607  -1.069  0.00  0.00    +0.122 A 
ENDROOT
BRANCH   1   7
ATOM      7  C   UNL     1      -0.017  -2.827  -0.069  0.00  0.00    -0.043 C 
BRANCH   7   8
ATOM      8  N   UNL     1      -1.473  -2.886  -0.296  0.00  0.00    +0.385 N 
ATOM      9  H   UNL     1      -1.858  -1.934  -0.272  0.00  0.00    -0.085 HD
ATOM     10  H   UNL     1      -1.656  -3.306  -1.214  0.00  0.00    -0.085 HD
BRANCH   8  11
ATOM     11  C   UNL     1      -2.122  -3.700   0.750  0.00  0.00    -0.043 C 
BRANCH  11  14
ATOM     12  C   UNL     1      -3.597  -5.561  -1.348  0.00  0.00    +0.068 C 
ATOM     13  C   UNL     1      -4.258  -4.563  -0.433  0.00  0.00    +0.061 A 
ATOM     14  C   UNL     1      -3.606  -3.741   0.493  0.00  0.00    -0.024 A 
ATOM     15  C   UNL     1      -4.544  -2.995   1.121  0.00  0.00    +0.110 A 
ATOM     16  N   UNL     1      -5.746  -3.326   0.604  0.00  0.00    -0.274 N 
ATOM     17  N   UNL     1      -5.541  -4.315  -0.367  0.00  0.00    -0.177 NA
ATOM     18  C   UNL     1      -7.038  -2.757   0.995  0.00  0.00    +0.172 C 
ENDBRANCH  11  14
ENDBRANCH   8  11
ENDBRANCH   7   8
ENDBRANCH   1   7
BRANCH   6  19
ATOM     19  O   UNL     1      -0.028  -0.003  -0.014  0.00  0.00    -0.489 OA
BRANCH  19  20
ATOM     20  C   UNL     1      -0.028   1.426   0.004  0.00  0.00    +0.258 C 
BRANCH  20  21
ATOM     21  C   UNL     1      -0.753   1.920   1.257  0.00  0.00    +0.135 C 
BRANCH  21  22
ATOM     22  O   UNL     1      -2.130   1.543   1.191  0.00  0.00    -0.390 OA
ATOM     23  H   UNL     1      -2.600   1.904   0.427  0.00  0.00    +0.210 HD
ENDBRANCH  21  22
BRANCH  21  24
ATOM     24  C   UNL     1      -0.646   3.444   1.341  0.00  0.00    -0.044 C 
BRANCH  24  30
ATOM     25  C   UNL     1      -1.710   5.327   2.420  0.00  0.00    -0.068 C 
ATOM     26  C   UNL     1      -2.796   5.671   3.446  0.00  0.00    +0.050 C 
ATOM     27  S   UNL     1      -2.116   5.399   5.112  0.00  0.00    -0.164 S 
ATOM     28  C   UNL     1      -1.420   3.722   4.993  0.00  0.00    +0.050 C 
ATOM     29  C   UNL     1      -0.531   3.656   3.746  0.00  0.00    -0.068 C 
ATOM     30  N   UNL     1      -1.365   3.893   2.545  0.00  0.00    +0.382 N 
ATOM     31  H   UNL     1      -2.233   3.353   2.635  0.00  0.00    -0.082 HD
ENDBRANCH  24  30
ENDBRANCH  21  24
ENDBRANCH  20  21
ENDBRANCH  19  20
ENDBRANCH   6  19
TORSDOF 10
