REMARK  Name = ZINC36024507
REMARK  9 active torsions:
REMARK  status: ('A' for Active; 'I' for Inactive)
REMARK    1  A    between atoms: C_1  and  C_2
REMARK    2  A    between atoms: C_2  and  C_3
REMARK    3  A    between atoms: C_3  and  C_5
REMARK    4  A    between atoms: C_3  and  N_6
REMARK    5  A    between atoms: C_9  and  C_29
REMARK    6  A    between atoms: N_15  and  S_18
REMARK    7  A    between atoms: S_18  and  C_21
REMARK    8  A    between atoms: C_29  and  C_30
REMARK    9  A    between atoms: C_29  and  C_31
REMARK                            x       y       z     vdW  Elec       q    Type
REMARK                         _______ _______ _______ _____ _____    ______ ____
ROOT
ATOM      1  N   UNL     1       2.151  -0.113   1.203  0.00  0.00    -0.311 N 
ATOM      2  C   UNL     1       3.009  -0.381   0.196  0.00  0.00    +0.201 C 
ATOM      3  O   UNL     1       2.743  -0.992  -0.817  0.00  0.00    -0.277 OA
ATOM      4  C   UNL     1       4.358   0.209   0.545  0.00  0.00    +0.022 C 
ATOM      5  N   UNL     1       4.078   1.176   1.634  0.00  0.00    +0.401 N 
ATOM      6  C   UNL     1       2.846   0.643   2.248  0.00  0.00    +0.006 C 
ATOM      7  C   UNL     1       1.971   1.796   2.737  0.00  0.00    +0.023 C 
ATOM      8  C   UNL     1       0.680   1.234   3.341  0.00  0.00    +0.109 C 
ATOM      9  N   UNL     1       1.031   0.251   4.375  0.00  0.00    -0.177 NA
ATOM     10  C   UNL     1       1.929  -0.857   4.022  0.00  0.00    +0.109 C 
ATOM     11  C   UNL     1       3.210  -0.277   3.412  0.00  0.00    +0.023 C 
ATOM     12  H   UNL     1       4.835   1.189   2.302  0.00  0.00    -0.082 HD
ATOM     13  H   UNL     1       3.915   2.098   1.259  0.00  0.00    -0.082 HD
ENDROOT
BRANCH   9  14
ATOM     14  S   UNL     1       0.425   0.389   5.910  0.00  0.00    +0.061 S 
ATOM     15  O   UNL     1       1.326  -0.300   6.766  0.00  0.00    -0.153 OA
ATOM     16  O   UNL     1       0.095   1.758   6.095  0.00  0.00    -0.153 OA
BRANCH  14  17
ATOM     17  C   UNL     1      -1.093  -0.505   5.952  0.00  0.00    +0.107 A 
ATOM     18  C   UNL     1      -2.280   0.133   5.641  0.00  0.00    +0.030 A 
ATOM     19  C   UNL     1      -3.471  -0.567   5.675  0.00  0.00    +0.023 A 
ATOM     20  C   UNL     1      -3.477  -1.907   6.019  0.00  0.00    +0.059 A 
ATOM     21  C   UNL     1      -2.289  -2.546   6.331  0.00  0.00    +0.061 A 
ATOM     22  C   UNL     1      -1.097  -1.845   6.292  0.00  0.00    +0.050 A 
ATOM     23 CL   UNL     1      -2.295  -4.226   6.764  0.00  0.00    -0.082 Cl
ATOM     24 CL   UNL     1      -4.973  -2.786   6.062  0.00  0.00    -0.082 Cl
ENDBRANCH  14  17
ENDBRANCH   9  14
BRANCH   4  25
ATOM     25  C   UNL     1       4.956   0.926  -0.667  0.00  0.00    -0.023 C 
ATOM     26  C   UNL     1       5.163  -0.078  -1.803  0.00  0.00    +0.006 C 
ATOM     27  C   UNL     1       4.001   2.029  -1.129  0.00  0.00    +0.006 C 
ENDBRANCH   4  25
BRANCH   1  28
ATOM     28  C   UNL     1       0.742  -0.511   1.242  0.00  0.00    +0.071 C 
ATOM     29  C   UNL     1       0.615  -1.978   0.827  0.00  0.00    +0.028 C 
BRANCH  28  31
ATOM     30  C   UNL     1      -0.037   1.814   0.762  0.00  0.00    +0.005 C 
ATOM     31  C   UNL     1      -0.061   0.363   0.277  0.00  0.00    +0.019 C 
ENDBRANCH  28  31
ENDBRANCH   1  28
TORSDOF 5
