REMARK  Name = ZINC39733804
REMARK  8 active torsions:
REMARK  status: ('A' for Active; 'I' for Inactive)
REMARK    1  A    between atoms: C_1  and  C_2
REMARK    2  A    between atoms: C_4  and  C_29
REMARK    3  A    between atoms: C_8  and  C_12
REMARK    4  A    between atoms: C_12  and  C_14
REMARK    5  A    between atoms: C_12  and  S_15
REMARK    6  A    between atoms: S_15  and  C_16
REMARK    7  A    between atoms: C_22  and  C_27
REMARK    8  A    between atoms: C_24  and  C_26
REMARK                            x       y       z     vdW  Elec       q    Type
REMARK                         _______ _______ _______ _____ _____    ______ ____
ROOT
ATOM      1  C   UNL     1       5.277  -3.531   0.228  0.00  0.00    +0.112 C 
ATOM      2  C   UNL     1       4.839  -4.651   1.175  0.00  0.00    +0.027 C 
ENDROOT
BRANCH   1   9
ATOM      3  C   UNL     1      -0.019   1.526   0.010  0.00  0.00    +0.024 C 
ATOM      4  C   UNL     1       0.002  -0.004   0.002  0.00  0.00    +0.076 C 
ATOM      5  C   UNL     1       0.769  -0.528  -1.190  0.00  0.00    -0.045 C 
ATOM      6  C   UNL     1       1.868  -1.261  -0.953  0.00  0.00    +0.071 C 
ATOM      7  C   UNL     1       2.243  -1.498   0.457  0.00  0.00    +0.111 C 
ATOM      8  N   UNL     1       3.306  -2.207   0.754  0.00  0.00    -0.226 NA
ATOM      9  C   UNL     1       4.072  -2.729  -0.191  0.00  0.00    +0.136 C 
ATOM     10  N   UNL     1       3.837  -2.585  -1.473  0.00  0.00    -0.160 NA
ATOM     11  C   UNL     1       2.796  -1.891  -1.945  0.00  0.00    +0.271 C 
ATOM     12  O   UNL     1       2.607  -1.777  -3.144  0.00  0.00    -0.268 OA
ATOM     13  S   UNL     1       0.997  -0.657   1.404  0.00  0.00    -0.098 S 
ATOM     14  C   UNL     1       0.315  -0.239  -2.598  0.00  0.00    +0.041 C 
ENDBRANCH   1   9
BRANCH   1  15
ATOM     15  S   UNL     1       6.063  -4.253  -1.239  0.00  0.00    -0.107 S 
BRANCH  15  16
ATOM     16  C   UNL     1       7.560  -5.046  -0.589  0.00  0.00    +0.243 C 
ATOM     17  N   UNL     1       7.214  -6.020   0.460  0.00  0.00    -0.236 N 
ATOM     18  N   UNL     1       7.839  -5.575   1.629  0.00  0.00    -0.148 NA
ATOM     19  C   UNL     1       8.509  -4.473   1.429  0.00  0.00    +0.239 C 
ATOM     20  N   UNL     1       8.406  -4.063   0.101  0.00  0.00    -0.243 N 
ATOM     21  C   UNL     1       9.035  -2.929  -0.327  0.00  0.00    +0.015 C 
ATOM     22  C   UNL     1       9.763  -2.207   0.556  0.00  0.00    +0.042 C 
ATOM     23  C   UNL     1       9.856  -2.638   1.892  0.00  0.00    +0.043 C 
ATOM     24  N   UNL     1       9.243  -3.729   2.293  0.00  0.00    -0.218 NA
ATOM     25  C   UNL     1      10.666  -1.836   2.878  0.00  0.00    +0.066 C 
ATOM     26  C   UNL     1       8.920  -2.489  -1.763  0.00  0.00    +0.061 C 
ATOM     27  H   UNL     1       6.662  -6.812   0.360  0.00  0.00    +0.171 HD
ENDBRANCH  15  16
ENDBRANCH   1  15
TORSDOF 3
