REMARK  Name = ZINC58949147
REMARK  6 active torsions:
REMARK  status: ('A' for Active; 'I' for Inactive)
REMARK    1  A    between atoms: C_1  and  C_2
REMARK    2  A    between atoms: C_3  and  C_27
REMARK    3  A    between atoms: C_4  and  C_13
REMARK    4  A    between atoms: C_6  and  C_10
REMARK    5  A    between atoms: C_7  and  N_9
REMARK    6  A    between atoms: C_27  and  C_29
REMARK                            x       y       z     vdW  Elec       q    Type
REMARK                         _______ _______ _______ _____ _____    ______ ____
ROOT
ATOM      1  C   UNL     1       0.667   1.252   0.041  0.00  0.00    +0.086 C 
ATOM      2  C   UNL     1       0.388  -0.228  -0.011  0.00  0.00    +0.112 C 
ATOM      3  C   UNL     1      -0.887  -0.651  -0.065  0.00  0.00    +0.044 C 
ATOM      4  C   UNL     1      -1.219  -2.117  -0.117  0.00  0.00    +0.097 C 
ATOM      5  C   UNL     1       0.005  -2.907  -0.495  0.00  0.00    +0.083 C 
ATOM      6  C   UNL     1       1.241  -2.353  -0.417  0.00  0.00    +0.193 C 
ATOM      7  O   UNL     1       1.419  -1.086  -0.007  0.00  0.00    -0.446 OA
ENDROOT
BRANCH   4   8
ATOM      8  C   UNL     1      -1.706  -2.568   1.236  0.00  0.00    -0.020 A 
ATOM      9  C   UNL     1      -2.939  -3.205   1.361  0.00  0.00    -0.013 A 
ATOM     10  C   UNL     1      -3.755  -3.441   0.234  0.00  0.00    +0.009 A 
ATOM     11  C   UNL     1      -4.951  -4.064   0.391  0.00  0.00    +0.001 A 
ATOM     12  C   UNL     1      -5.401  -4.482   1.644  0.00  0.00    +0.001 A 
ATOM     13  C   UNL     1      -4.666  -4.286   2.768  0.00  0.00    +0.008 A 
ATOM     14  C   UNL     1      -3.412  -3.644   2.678  0.00  0.00    -0.017 A 
ATOM     15  C   UNL     1      -2.632  -3.427   3.812  0.00  0.00    +0.017 A 
ATOM     16  C   UNL     1      -1.399  -2.790   3.687  0.00  0.00    -0.017 A 
ATOM     17  C   UNL     1      -0.922  -2.357   2.369  0.00  0.00    -0.013 A 
ATOM     18  C   UNL     1       0.334  -1.721   2.279  0.00  0.00    +0.009 A 
ATOM     19  C   UNL     1       1.072  -1.530   3.402  0.00  0.00    +0.001 A 
ATOM     20  C   UNL     1       0.621  -1.949   4.655  0.00  0.00    +0.001 A 
ATOM     21  C   UNL     1      -0.584  -2.554   4.815  0.00  0.00    +0.008 A 
ENDBRANCH   4   8
BRANCH   5  22
ATOM     22  C   UNL     1      -0.135  -4.235  -0.934  0.00  0.00    +0.243 C 
ATOM     23  O   UNL     1      -0.483  -4.465  -2.080  0.00  0.00    -0.271 OA
ATOM     24  N   UNL     1       0.116  -5.255  -0.089  0.00  0.00    -0.325 N 
ATOM     25  H   UNL     1       0.393  -5.072   0.823  0.00  0.00    +0.145 HD
ATOM     26  H   UNL     1       0.020  -6.171  -0.392  0.00  0.00    +0.145 HD
ENDBRANCH   5  22
BRANCH   6  27
ATOM     27  N   UNL     1       2.333  -3.102  -0.769  0.00  0.00    -0.329 N 
ATOM     28  H   UNL     1       2.212  -3.989  -1.142  0.00  0.00    +0.145 HD
ATOM     29  H   UNL     1       3.226  -2.745  -0.645  0.00  0.00    +0.145 HD
ENDBRANCH   6  27
BRANCH   3  30
ATOM     30  C   UNL     1      -1.929   0.295  -0.072  0.00  0.00    +0.160 C 
ATOM     31  O   UNL     1      -1.673   1.482  -0.029  0.00  0.00    -0.293 OA
ATOM     32  C   UNL     1      -3.363  -0.164  -0.132  0.00  0.00    +0.091 C 
ENDBRANCH   3  30
TORSDOF 4
