REMARK  Name = ZINC64079412
REMARK  9 active torsions:
REMARK  status: ('A' for Active; 'I' for Inactive)
REMARK    1  A    between atoms: C_1  and  C_2
REMARK    2  A    between atoms: C_4  and  C_33
REMARK    3  A    between atoms: C_5  and  C_14
REMARK    4  A    between atoms: N_11  and  C_13
REMARK    5  A    between atoms: C_14  and  C_15
REMARK    6  A    between atoms: C_15  and  C_16
REMARK    7  A    between atoms: N_18  and  C_19
REMARK    8  A    between atoms: C_19  and  C_21
REMARK    9  A    between atoms: C_19  and  C_22
REMARK                            x       y       z     vdW  Elec       q    Type
REMARK                         _______ _______ _______ _____ _____    ______ ____
ROOT
ATOM      1  C   UNL     1      -6.338  -2.745   2.319  0.00  0.00    +0.213 C 
ATOM      2  O   UNL     1      -6.163  -1.868   3.138  0.00  0.00    -0.276 OA
ATOM      3  N   UNL     1      -7.384  -3.587   2.446  0.00  0.00    -0.309 N 
ATOM      4  H   UNL     1      -7.524  -4.289   1.791  0.00  0.00    +0.149 HD
ENDROOT
BRANCH   3   5
ATOM      5  C   UNL     1      -8.308  -3.442   3.573  0.00  0.00    +0.100 C 
ATOM      6  C   UNL     1      -9.376  -2.402   3.227  0.00  0.00    +0.033 C 
BRANCH   5   7
ATOM      7  C   UNL     1      -8.969  -4.766   3.854  0.00  0.00    -0.024 A 
ATOM      8  C   UNL     1      -9.362  -5.577   2.805  0.00  0.00    +0.009 A 
ATOM      9  C   UNL     1      -9.970  -6.794   3.056  0.00  0.00    +0.050 A 
ATOM     10  C   UNL     1     -10.182  -7.199   4.362  0.00  0.00    +0.162 A 
ATOM     11  C   UNL     1      -9.787  -6.386   5.415  0.00  0.00    +0.162 A 
ATOM     12  C   UNL     1      -9.176  -5.170   5.161  0.00  0.00    +0.055 A 
ATOM     13  O   UNL     1     -10.001  -6.795   6.700  0.00  0.00    -0.488 OA
ATOM     14  C   UNL     1     -11.366  -6.854   7.119  0.00  0.00    +0.232 C 
ATOM     15  C   UNL     1     -11.999  -8.175   6.711  0.00  0.00    +0.082 C 
ATOM     16  C   UNL     1     -12.085  -8.334   5.201  0.00  0.00    +0.232 C 
ATOM     17  O   UNL     1     -10.779  -8.399   4.623  0.00  0.00    -0.488 OA
ENDBRANCH   5   7
ENDBRANCH   3   5
BRANCH   1  18
ATOM     18  C   UNL     1      -5.388  -2.895   1.159  0.00  0.00    +0.097 C 
BRANCH  18  19
ATOM     19  C   UNL     1      -4.300  -1.823   1.250  0.00  0.00    +0.026 C 
BRANCH  19  24
ATOM     20  C   UNL     1      -1.559  -6.311  -0.558  0.00  0.00    +0.068 C 
ATOM     21  C   UNL     1      -2.445  -5.422  -1.391  0.00  0.00    +0.069 A 
ATOM     22  C   UNL     1      -2.907  -4.074  -1.032  0.00  0.00    +0.039 A 
ATOM     23  C   UNL     1      -2.717  -3.273   0.042  0.00  0.00    -0.049 C 
ATOM     24  C   UNL     1      -3.390  -1.914   0.023  0.00  0.00    +0.104 C 
ATOM     25  C   UNL     1      -4.218  -1.568  -1.195  0.00  0.00    +0.245 C 
ATOM     26  O   UNL     1      -4.781  -0.493  -1.267  0.00  0.00    -0.273 OA
ATOM     27  N   UNL     1      -4.325  -2.446  -2.184  0.00  0.00    -0.161 NA
ATOM     28  C   UNL     1      -3.737  -3.630  -2.164  0.00  0.00    +0.151 A 
ATOM     29  N   UNL     1      -3.716  -4.662  -3.056  0.00  0.00    -0.251 N 
ATOM     30  N   UNL     1      -2.933  -5.704  -2.559  0.00  0.00    -0.174 NA
ATOM     31  C   UNL     1      -4.410  -4.673  -4.346  0.00  0.00    +0.174 C 
ATOM     32  C   UNL     1      -1.871  -3.713   1.208  0.00  0.00    +0.040 C 
ENDBRANCH  19  24
ENDBRANCH  18  19
ENDBRANCH   1  18
TORSDOF 5
