REMARK  Name = ZINC65382266
REMARK  7 active torsions:
REMARK  status: ('A' for Active; 'I' for Inactive)
REMARK    1  A    between atoms: C_1  and  C_2
REMARK    2  A    between atoms: C_4  and  C_9
REMARK    3  A    between atoms: C_5  and  C_8
REMARK    4  A    between atoms: C_9  and  C_10
REMARK    5  A    between atoms: C_10  and  C_12
REMARK    6  A    between atoms: C_10  and  N_13
REMARK    7  A    between atoms: C_22  and  C_24
REMARK                            x       y       z     vdW  Elec       q    Type
REMARK                         _______ _______ _______ _____ _____    ______ ____
ROOT
ATOM      1  N   UNL     1      -3.591   1.412   0.671  0.00  0.00    +0.383 N 
ATOM      2  C   UNL     1      -2.450   1.343   1.547  0.00  0.00    -0.077 C 
ATOM      3  C   UNL     1      -2.893   0.768   2.888  0.00  0.00    -0.002 C 
ATOM      4  C   UNL     1      -3.394   1.787   3.836  0.00  0.00    +0.104 C 
ATOM      5  N   UNL     1      -4.555   2.455   3.205  0.00  0.00    -0.224 NA
ATOM      6  C   UNL     1      -4.170   3.322   2.131  0.00  0.00    +0.084 C 
ATOM      7  C   UNL     1      -4.187   2.783   0.709  0.00  0.00    -0.053 C 
ATOM      8  C   UNL     1      -5.095   4.519   2.256  0.00  0.00    +0.021 C 
ATOM      9  C   UNL     1      -5.697   4.383   3.445  0.00  0.00    +0.101 C 
ATOM     10  N   UNL     1      -5.215   3.249   4.110  0.00  0.00    -0.273 N 
ATOM     11  H   UNL     1      -5.328   3.056   5.054  0.00  0.00    +0.167 HD
ATOM     12  H   UNL     1      -4.281   0.739   0.969  0.00  0.00    -0.081 HD
ENDROOT
BRANCH   9  13
ATOM     13  C   UNL     1      -6.724   5.299   3.978  0.00  0.00    +0.261 C 
ATOM     14  O   UNL     1      -7.080   6.260   3.324  0.00  0.00    -0.269 OA
ATOM     15  N   UNL     1      -7.268   5.070   5.190  0.00  0.00    -0.296 N 
ATOM     16  C   UNL     1      -6.927   3.954   6.085  0.00  0.00    +0.108 C 
ATOM     17  C   UNL     1      -7.816   4.086   7.340  0.00  0.00    +0.020 C 
ATOM     18  C   UNL     1      -9.007   4.942   6.834  0.00  0.00    +0.020 C 
ATOM     19  C   UNL     1      -8.298   5.900   5.840  0.00  0.00    +0.108 C 
ENDBRANCH   9  13
BRANCH   1  20
ATOM     20  C   UNL     1      -3.170   1.103  -0.702  0.00  0.00    -0.067 C 
ATOM     21  C   UNL     1      -4.356   1.283  -1.652  0.00  0.00    -0.013 C 
BRANCH  20  22
ATOM     22  C   UNL     1      -2.677  -0.344  -0.771  0.00  0.00    +0.019 C 
BRANCH  22  25
ATOM     23  C   UNL     1      -4.285  -0.945  -3.568  0.00  0.00    +0.039 C 
ATOM     24  C   UNL     1      -2.912  -1.519  -3.212  0.00  0.00    +0.153 C 
ATOM     25  C   UNL     1      -2.221  -0.654  -2.173  0.00  0.00    -0.023 C 
ATOM     26  C   UNL     1      -1.116  -0.231  -2.791  0.00  0.00    +0.061 C 
ATOM     27  N   UNL     1      -1.052  -0.721  -4.049  0.00  0.00    -0.159 NA
ATOM     28  N   UNL     1      -2.002  -1.446  -4.368  0.00  0.00    -0.180 NA
ATOM     29  C   UNL     1      -0.081   0.671  -2.170  0.00  0.00    +0.067 C 
ENDBRANCH  22  25
ENDBRANCH  20  22
ENDBRANCH   1  20
TORSDOF 4
