REMARK  Name = ZINC39370966
REMARK  11 active torsions:
REMARK  status: ('A' for Active; 'I' for Inactive)
REMARK    1  A    between atoms: C_1  and  C_2
REMARK    2  A    between atoms: C_2  and  O_3
REMARK    3  A    between atoms: O_3  and  C_4
REMARK    4  A    between atoms: C_4  and  C_5
REMARK    5  A    between atoms: C_6  and  C_28
REMARK    6  A    between atoms: C_8  and  C_27
REMARK    7  A    between atoms: C_9  and  C_12
REMARK    8  A    between atoms: C_10  and  C_11
REMARK    9  A    between atoms: C_14  and  C_25
REMARK   10  A    between atoms: C_15  and  N_24
REMARK   11  A    between atoms: C_20  and  C_23
REMARK                            x       y       z     vdW  Elec       q    Type
REMARK                         _______ _______ _______ _____ _____    ______ ____
ROOT
ATOM      1  C   UNL     1       0.757  -3.056   6.119  0.00  0.00    +0.098 C 
ATOM      2  C   UNL     1       1.280  -2.124   7.196  0.00  0.00    +0.097 C 
ATOM      3  C   UNL     1       1.664  -2.583   8.406  0.00  0.00    +0.195 C 
ATOM      4  O   UNL     1       1.667  -3.864   8.816  0.00  0.00    -0.448 OA
ATOM      5  C   UNL     1       0.817  -4.779   8.119  0.00  0.00    +0.343 C 
ATOM      6  C   UNL     1       1.001  -4.448   6.635  0.00  0.00    +0.030 C 
ATOM      7  C   UNL     1       1.387  -5.571   6.081  0.00  0.00    +0.066 C 
ATOM      8  N   UNL     1       1.565  -6.527   7.028  0.00  0.00    -0.155 NA
ATOM      9  N   UNL     1       1.295  -6.162   8.197  0.00  0.00    -0.138 NA
ATOM     10  C   UNL     1       1.602  -5.772   4.603  0.00  0.00    +0.067 C 
ENDROOT
BRANCH   1  15
ATOM     11  C   UNL     1       1.515  -2.287   2.501  0.00  0.00    -0.016 A 
ATOM     12  C   UNL     1       2.889  -2.441   2.468  0.00  0.00    -0.045 A 
ATOM     13  C   UNL     1       3.572  -2.794   3.616  0.00  0.00    +0.007 A 
ATOM     14  C   UNL     1       2.882  -2.994   4.798  0.00  0.00    -0.046 A 
ATOM     15  C   UNL     1       1.509  -2.839   4.831  0.00  0.00    -0.029 A 
ATOM     16  C   UNL     1       0.826  -2.481   3.683  0.00  0.00    -0.041 A 
ATOM     17  C   UNL     1      -0.670  -2.307   3.721  0.00  0.00    +0.044 C 
ATOM     18  C   UNL     1       3.627  -3.380   6.049  0.00  0.00    +0.044 C 
ATOM     19  C   UNL     1       3.641  -2.224   1.180  0.00  0.00    +0.044 C 
BRANCH  11  20
ATOM     20  C   UNL     1       0.770  -1.902   1.249  0.00  0.00    +0.195 C 
BRANCH  20  21
ATOM     21  O   UNL     1       0.693  -0.477   1.160  0.00  0.00    -0.375 OA
BRANCH  21  23
ATOM     22  C   UNL     1      -0.019   1.526   0.010  0.00  0.00    +0.034 C 
ATOM     23  C   UNL     1       0.002  -0.004   0.002  0.00  0.00    +0.157 C 
ENDBRANCH  21  23
ENDBRANCH  20  21
ENDBRANCH  11  20
ENDBRANCH   1  15
BRANCH   3  24
ATOM     24  N   UNL     1       2.096  -1.646   9.311  0.00  0.00    -0.329 N 
ATOM     25  H   UNL     1       2.114  -0.707   9.066  0.00  0.00    +0.145 HD
ATOM     26  H   UNL     1       2.383  -1.922  10.195  0.00  0.00    +0.145 HD
ENDBRANCH   3  24
BRANCH   2  27
ATOM     27  C   UNL     1       1.370  -0.721   6.921  0.00  0.00    +0.101 C 
ATOM     28  N   UNL     1       1.440   0.391   6.704  0.00  0.00    -0.191 NA
ENDBRANCH   2  27
TORSDOF 6
