REMARK  Name = ZINC14471167
REMARK  4 active torsions:
REMARK  status: ('A' for Active; 'I' for Inactive)
REMARK    1  A    between atoms: C_1  and  N_2
REMARK    2  A    between atoms: C_3  and  C_5
REMARK    3  A    between atoms: C_12  and  C_21
REMARK    4  A    between atoms: C_25  and  N_27
REMARK                            x       y       z     vdW  Elec       q    Type
REMARK                         _______ _______ _______ _____ _____    ______ ____
ROOT
ATOM      1  C   UNL     1      -5.821   2.798  -1.380  0.00  0.00    +0.058 A 
ATOM      2  C   UNL     1      -7.184   2.982  -1.158  0.00  0.00    +0.015 A 
ATOM      3  C   UNL     1      -7.614   3.767  -0.111  0.00  0.00    +0.001 A 
ATOM      4  C   UNL     1      -6.688   4.379   0.717  0.00  0.00    +0.006 A 
ATOM      5  C   UNL     1      -5.336   4.212   0.510  0.00  0.00    -0.019 A 
ATOM      6  C   UNL     1      -4.871   3.412  -0.538  0.00  0.00    +0.044 A 
ATOM      7  N   UNL     1      -3.533   3.161  -0.792  0.00  0.00    -0.336 N 
ATOM      8  C   UNL     1      -2.553   3.868   0.047  0.00  0.00    +0.105 C 
ATOM      9  C   UNL     1      -3.111   3.897   1.455  0.00  0.00    +0.029 C 
ATOM     10  C   UNL     1      -4.330   4.868   1.375  0.00  0.00    +0.049 C 
ATOM     11  C   UNL     1      -4.591   5.196   2.798  0.00  0.00    -0.023 C 
ATOM     12  C   UNL     1      -3.448   5.102   3.469  0.00  0.00    -0.030 C 
ATOM     13  C   UNL     1      -2.325   4.659   2.528  0.00  0.00    +0.033 C 
ATOM     14  H   UNL     1      -3.323   3.280  -1.772  0.00  0.00    +0.147 HD
ENDROOT
BRANCH   8  15
ATOM     15  C   UNL     1      -1.237   3.133   0.031  0.00  0.00    -0.025 A 
ATOM     16  C   UNL     1      -1.218   1.751   0.017  0.00  0.00    +0.007 A 
ATOM     17  C   UNL     1      -0.013   1.076   0.008  0.00  0.00    +0.022 A 
ATOM     18  C   UNL     1       1.176   1.784   0.000  0.00  0.00    +0.071 A 
ATOM     19  C   UNL     1       1.157   3.167   0.008  0.00  0.00    +0.145 A 
ATOM     20  C   UNL     1      -0.050   3.841   0.023  0.00  0.00    +0.039 A 
ATOM     21 CL   UNL     1       2.691   0.937  -0.019  0.00  0.00    -0.081 Cl
BRANCH  19  22
ATOM     22  N   UNL     1       2.428   3.925  -0.001  0.00  0.00    +0.058 N 
ATOM     23  O   UNL     1       2.410   5.143   0.006  0.00  0.00    -0.126 OA
ATOM     24  O   UNL     1       3.491   3.332  -0.014  0.00  0.00    -0.126 OA
ENDBRANCH  19  22
ENDBRANCH   8  15
BRANCH   1  27
ATOM     25  C   UNL     1      -5.823   0.533  -4.428  0.00  0.00    +0.128 C 
ATOM     26  N   UNL     1      -6.272   1.369  -3.312  0.00  0.00    -0.314 N 
ATOM     27  C   UNL     1      -5.368   1.957  -2.503  0.00  0.00    +0.246 C 
ATOM     28  O   UNL     1      -4.180   1.794  -2.701  0.00  0.00    -0.270 OA
ATOM     29  H   UNL     1      -7.221   1.498  -3.154  0.00  0.00    +0.149 HD
ENDBRANCH   1  27
TORSDOF 3
