REMARK  Name = ZINC12309779
REMARK  11 active torsions:
REMARK  status: ('A' for Active; 'I' for Inactive)
REMARK    1  A    between atoms: C_1  and  C_2
REMARK    2  A    between atoms: C_2  and  C_3
REMARK    3  A    between atoms: C_3  and  C_4
REMARK    4  A    between atoms: C_4  and  C_5
REMARK    5  A    between atoms: C_11  and  N_12
REMARK    6  A    between atoms: N_12  and  O_13
REMARK    7  A    between atoms: O_13  and  C_14
REMARK    8  A    between atoms: C_14  and  C_15
REMARK    9  A    between atoms: N_17  and  C_18
REMARK   10  A    between atoms: N_29  and  C_34
REMARK   11  A    between atoms: N_32  and  C_33
REMARK                            x       y       z     vdW  Elec       q    Type
REMARK                         _______ _______ _______ _____ _____    ______ ____
ROOT
ATOM      1  C   UNL     1       9.730   3.854   0.579  0.00  0.00    -0.005 A 
ATOM      2  C   UNL     1      10.789   3.089   0.894  0.00  0.00    +0.090 A 
ATOM      3  N   UNL     1      10.686   1.729   1.024  0.00  0.00    -0.347 N 
ATOM      4  H   UNL     1      11.498   1.159   1.498  0.00  0.00    +0.167 HD
ATOM      5  C   UNL     1       9.599   1.042   0.582  0.00  0.00    +0.129 A 
ATOM      6  C   UNL     1       8.434   1.728   0.249  0.00  0.00    +0.106 A 
ATOM      7  C   UNL     1       8.423   3.197   0.378  0.00  0.00    +0.082 A 
ATOM      8  C   UNL     1       7.304   1.006  -0.200  0.00  0.00    +0.268 A 
ATOM      9  O   UNL     1       6.274   1.584  -0.493  0.00  0.00    -0.267 OA
ATOM     10  N   UNL     1       7.390  -0.339  -0.297  0.00  0.00    -0.263 N 
ATOM     11  C   UNL     1       8.527  -0.981   0.026  0.00  0.00    +0.333 A 
ATOM     12  O   UNL     1       8.569  -2.191  -0.076  0.00  0.00    -0.246 OA
ATOM     13  N   UNL     1       9.618  -0.323   0.458  0.00  0.00    -0.282 N 
ATOM     14  C   UNL     1      10.833  -1.069   0.797  0.00  0.00    +0.155 C 
ATOM     15  C   UNL     1       6.231  -1.107  -0.759  0.00  0.00    +0.157 C 
ENDROOT
BRANCH   7  16
ATOM     16  N   UNL     1       7.307   3.888   0.312  0.00  0.00    -0.264 N 
ATOM     17  H   UNL     1       7.334   4.952   0.036  0.00  0.00    +0.194 HD
BRANCH  16  18
ATOM     18  O   UNL     1       6.069   3.261   0.596  0.00  0.00    -0.265 OA
BRANCH  18  19
ATOM     19  C   UNL     1       4.939   4.130   0.486  0.00  0.00    +0.288 C 
BRANCH  19  20
ATOM     20  C   UNL     1       3.683   3.362   0.808  0.00  0.00    +0.246 C 
ATOM     21  O   UNL     1       3.748   2.188   1.103  0.00  0.00    -0.273 OA
ATOM     22  N   UNL     1       2.486   3.982   0.768  0.00  0.00    -0.283 N 
ATOM     23  H   UNL     1       2.417   5.021   0.416  0.00  0.00    +0.155 HD
BRANCH  22  24
ATOM     24  C   UNL     1       1.331   3.301   1.175  0.00  0.00    +0.037 A 
ATOM     25  C   UNL     1       1.423   2.271   2.101  0.00  0.00    +0.027 A 
ATOM     26  C   UNL     1       0.285   1.598   2.503  0.00  0.00    +0.051 A 
ATOM     27  C   UNL     1      -0.950   1.945   1.979  0.00  0.00    +0.166 A 
ATOM     28  C   UNL     1      -1.045   2.982   1.054  0.00  0.00    +0.168 A 
ATOM     29  C   UNL     1       0.096   3.656   0.652  0.00  0.00    +0.072 A 
ATOM     30  O   UNL     1      -2.355   3.132   0.699  0.00  0.00    -0.453 OA
ATOM     31  C   UNL     1      -3.110   2.457   1.723  0.00  0.00    +0.466 C 
ATOM     32  O   UNL     1      -2.202   1.451   2.211  0.00  0.00    -0.453 OA
ENDBRANCH  22  24
ENDBRANCH  19  20
ENDBRANCH  18  19
ENDBRANCH  16  18
ENDBRANCH   7  16
BRANCH   1  33
ATOM     33  C   UNL     1       9.871   5.348   0.441  0.00  0.00    +0.039 C 
BRANCH  33  34
ATOM     34  C   UNL     1       9.624   6.011   1.797  0.00  0.00    +0.004 C 
BRANCH  34  36
ATOM     35  C   UNL     1       9.520   8.191   3.013  0.00  0.00    +0.004 C 
ATOM     36  C   UNL     1       9.767   7.528   1.657  0.00  0.00    -0.003 C 
ENDBRANCH  34  36
ENDBRANCH  33  34
ENDBRANCH   1  33
TORSDOF 8
