REMARK  Name = ZINC39682391
REMARK  6 active torsions:
REMARK  status: ('A' for Active; 'I' for Inactive)
REMARK    1  A    between atoms: C_4  and  C_7
REMARK    2  A    between atoms: C_7  and  C_9
REMARK    3  A    between atoms: C_7  and  N_13
REMARK    4  A    between atoms: C_9  and  C_10
REMARK    5  A    between atoms: C_14  and  C_16
REMARK    6  A    between atoms: C_27  and  C_29
REMARK                            x       y       z     vdW  Elec       q    Type
REMARK                         _______ _______ _______ _____ _____    ______ ____
ROOT
ATOM      1  C   UNL     1       4.662  -3.693  -1.992  0.00  0.00    +0.100 C 
ATOM      2  C   UNL     1       3.783  -3.315  -3.205  0.00  0.00    +0.121 C 
ATOM      3  N   UNL     1       4.731  -2.751  -4.193  0.00  0.00    -0.300 N 
ATOM      4  C   UNL     1       5.934  -3.609  -4.082  0.00  0.00    +0.115 C 
ATOM      5  C   UNL     1       6.073  -3.889  -2.572  0.00  0.00    -0.004 C 
ATOM      6  C   UNL     1       6.545  -5.321  -2.341  0.00  0.00    -0.010 C 
ATOM      7  C   UNL     1       7.972  -5.475  -2.874  0.00  0.00    -0.082 C 
ATOM      8  N   UNL     1       8.859  -4.529  -2.186  0.00  0.00    +0.379 N 
ATOM      9  C   UNL     1       8.453  -3.151  -2.489  0.00  0.00    -0.082 C 
ATOM     10  C   UNL     1       7.046  -2.899  -1.940  0.00  0.00    -0.010 C 
ATOM     11  C   UNL     1       4.542  -1.695  -5.010  0.00  0.00    +0.219 C 
ATOM     12  O   UNL     1       5.422  -1.352  -5.771  0.00  0.00    -0.275 OA
ATOM     13  H   UNL     1       8.804  -4.683  -1.190  0.00  0.00    -0.086 HD
ATOM     14  H   UNL     1       9.808  -4.674  -2.495  0.00  0.00    -0.086 HD
ENDROOT
BRANCH   1  16
ATOM     15  N   UNL     1       4.875  -2.854   0.326  0.00  0.00    -0.308 N 
ATOM     16  C   UNL     1       4.662  -2.579  -0.977  0.00  0.00    +0.219 C 
ATOM     17  O   UNL     1       4.471  -1.435  -1.332  0.00  0.00    -0.275 OA
ATOM     18  H   UNL     1       4.953  -3.774   0.620  0.00  0.00    +0.149 HD
BRANCH  15  19
ATOM     19  C   UNL     1       4.986  -1.762   1.296  0.00  0.00    +0.114 C 
BRANCH  19  23
ATOM     20  C   UNL     1       3.849  -3.174   5.164  0.00  0.00    +0.000 A 
ATOM     21  C   UNL     1       3.464  -1.913   4.748  0.00  0.00    +0.000 A 
ATOM     22  C   UNL     1       3.833  -1.456   3.496  0.00  0.00    +0.005 A 
ATOM     23  C   UNL     1       4.585  -2.260   2.661  0.00  0.00    -0.027 A 
ATOM     24  C   UNL     1       4.971  -3.520   3.077  0.00  0.00    +0.005 A 
ATOM     25  C   UNL     1       4.601  -3.978   4.328  0.00  0.00    +0.000 A 
ENDBRANCH  19  23
BRANCH  19  26
ATOM     26  C   UNL     1       6.432  -1.264   1.339  0.00  0.00    +0.152 C 
BRANCH  26  27
ATOM     27  C   UNL     1       6.516  -0.039   2.214  0.00  0.00    +0.358 C 
ATOM     28  O   UNL     1       5.497   0.472   2.646  0.00  0.00    -0.246 OA
ATOM     29  O   UNL     1       7.603   0.440   2.489  0.00  0.00    -0.246 OA
ENDBRANCH  26  27
ENDBRANCH  19  26
ENDBRANCH  15  19
ENDBRANCH   1  16
BRANCH  11  30
ATOM     30  C   UNL     1       3.238  -0.941  -4.977  0.00  0.00    +0.075 C 
ATOM     31  C   UNL     1       2.127  -1.597  -5.814  0.00  0.00    +0.013 C 
ATOM     32  C   UNL     1       1.727  -0.178  -6.251  0.00  0.00    +0.001 C 
ATOM     33  C   UNL     1       3.181   0.234  -5.967  0.00  0.00    +0.013 C 
ENDBRANCH  11  30
TORSDOF 6
