REMARK  Name = ZINC10751076
REMARK  9 active torsions:
REMARK  status: ('A' for Active; 'I' for Inactive)
REMARK    1  A    between atoms: C_1  and  C_2
REMARK    2  A    between atoms: C_2  and  N_59
REMARK    3  A    between atoms: C_8  and  N_14
REMARK    4  A    between atoms: C_9  and  C_10
REMARK    5  A    between atoms: C_10  and  O_12
REMARK    6  A    between atoms: O_12  and  C_13
REMARK    7  A    between atoms: C_15  and  C_17
REMARK    8  A    between atoms: N_22  and  S_24
REMARK    9  A    between atoms: S_24  and  C_27
REMARK                            x       y       z     vdW  Elec       q    Type
REMARK                         _______ _______ _______ _____ _____    ______ ____
ROOT
ATOM      1  N   UNL     1      -3.479   8.513   4.459  0.00  0.00    -0.279 N 
ATOM      2  C   UNL     1      -2.712   7.612   3.814  0.00  0.00    +0.222 C 
ATOM      3  O   UNL     1      -1.505   7.660   3.916  0.00  0.00    -0.275 OA
ATOM      4  H   UNL     1      -4.445   8.475   4.377  0.00  0.00    +0.155 HD
ENDROOT
BRANCH   1  10
ATOM      5  C   UNL     1      -2.012  12.994   8.503  0.00  0.00    -0.074 C 
ATOM      6  C   UNL     1      -3.146  12.569   7.566  0.00  0.00    +0.018 C 
ATOM      7  C   UNL     1      -2.647  11.411   6.710  0.00  0.00    -0.025 A 
ATOM      8  C   UNL     1      -1.320  11.172   6.599  0.00  0.00    -0.021 A 
ATOM      9  S   UNL     1      -1.202   9.765   5.534  0.00  0.00    -0.079 S 
ATOM     10  C   UNL     1      -2.888   9.495   5.238  0.00  0.00    +0.086 A 
ATOM     11  C   UNL     1      -3.504  10.506   5.967  0.00  0.00    +0.091 A 
ATOM     12  C   UNL     1      -0.220  11.951   7.248  0.00  0.00    -0.035 C 
ATOM     13  N   UNL     1      -0.789  13.241   7.711  0.00  0.00    +0.383 N 
ATOM     14  H   UNL     1      -1.030  13.812   6.893  0.00  0.00    -0.081 HD
BRANCH  13  16
ATOM     15  C   UNL     1       0.510  13.193   9.813  0.00  0.00    -0.017 C 
ATOM     16  C   UNL     1       0.205  13.968   8.529  0.00  0.00    -0.082 C 
ENDBRANCH  13  16
BRANCH  11  17
ATOM     17  C   UNL     1      -4.961  10.649   5.988  0.00  0.00    +0.342 C 
ATOM     18  O   UNL     1      -5.617  10.074   6.835  0.00  0.00    -0.245 OA
BRANCH  17  19
ATOM     19  O   UNL     1      -5.576  11.420   5.067  0.00  0.00    -0.464 OA
ATOM     20  C   UNL     1      -7.022  11.516   5.148  0.00  0.00    +0.280 C 
ENDBRANCH  17  19
ENDBRANCH  11  17
ENDBRANCH   1  10
BRANCH   2  21
ATOM     21  C   UNL     1      -3.355   6.545   2.966  0.00  0.00    +0.091 C 
ATOM     22  C   UNL     1      -4.275   5.686   3.837  0.00  0.00    +0.015 C 
ATOM     23  C   UNL     1      -4.954   4.622   2.971  0.00  0.00    +0.018 C 
ATOM     24  C   UNL     1      -3.889   3.717   2.353  0.00  0.00    +0.109 C 
ATOM     25  N   UNL     1      -2.913   4.548   1.635  0.00  0.00    -0.175 NA
ATOM     26  C   UNL     1      -2.268   5.658   2.350  0.00  0.00    +0.122 C 
BRANCH  25  27
ATOM     27  S   UNL     1      -2.551   4.243   0.049  0.00  0.00    +0.067 S 
ATOM     28  O   UNL     1      -2.072   5.463  -0.500  0.00  0.00    -0.152 OA
ATOM     29  O   UNL     1      -3.664   3.547  -0.496  0.00  0.00    -0.152 OA
BRANCH  27  30
ATOM     30  C   UNL     1      -1.196   3.116   0.030  0.00  0.00    +0.143 A 
ATOM     31  C   UNL     1      -1.213   1.761   0.017  0.00  0.00    +0.036 A 
ATOM     32  C   UNL     1      -0.013   1.076   0.008  0.00  0.00    +0.010 A 
ATOM     33  C   UNL     1       1.146   1.780   0.001  0.00  0.00    +0.047 A 
ATOM     34  S   UNL     1       0.555   3.464   0.015  0.00  0.00    -0.077 S 
ENDBRANCH  27  30
ENDBRANCH  25  27
ENDBRANCH   2  21
TORSDOF 7
