REMARK  Name = ZINC32752854
REMARK  10 active torsions:
REMARK  status: ('A' for Active; 'I' for Inactive)
REMARK    1  A    between atoms: C_1  and  C_2
REMARK    2  A    between atoms: C_4  and  N_15
REMARK    3  A    between atoms: N_5  and  C_7
REMARK    4  A    between atoms: C_16  and  C_18
REMARK    5  A    between atoms: C_19  and  C_32
REMARK    6  A    between atoms: C_21  and  C_31
REMARK    7  A    between atoms: C_23  and  C_27
REMARK    8  A    between atoms: C_27  and  C_28
REMARK    9  A    between atoms: C_27  and  C_29
REMARK   10  A    between atoms: C_27  and  C_30
REMARK                            x       y       z     vdW  Elec       q    Type
REMARK                         _______ _______ _______ _____ _____    ______ ____
ROOT
ATOM      1  N   UNL     1       0.592   2.559  -3.537  0.00  0.00    -0.266 N 
ATOM      2  C   UNL     1       1.019   2.920  -4.763  0.00  0.00    +0.256 C 
ATOM      3  O   UNL     1       1.199   2.074  -5.619  0.00  0.00    -0.269 OA
ATOM      4  H   UNL     1       0.430   3.325  -2.764  0.00  0.00    +0.157 HD
ENDROOT
BRANCH   2   5
ATOM      5  C   UNL     1       1.268   4.336  -5.068  0.00  0.00    +0.080 A 
ATOM      6  C   UNL     1       1.702   4.888  -6.232  0.00  0.00    -0.020 A 
ATOM      7  C   UNL     1       1.876   6.279  -6.324  0.00  0.00    +0.032 A 
ATOM      8  C   UNL     1       2.309   7.059  -7.425  0.00  0.00    +0.050 A 
ATOM      9  N   UNL     1       2.408   8.363  -7.291  0.00  0.00    -0.236 NA
ATOM     10  C   UNL     1       2.117   8.984  -6.160  0.00  0.00    +0.136 A 
ATOM     11  N   UNL     1       1.709   8.319  -5.097  0.00  0.00    -0.224 NA
ATOM     12  C   UNL     1       1.582   7.011  -5.143  0.00  0.00    +0.113 A 
ATOM     13  S   UNL     1       1.082   5.752  -3.997  0.00  0.00    -0.064 S 
ATOM     14  C   UNL     1       2.652   6.400  -8.736  0.00  0.00    +0.066 C 
ATOM     15  C   UNL     1       1.991   4.011  -7.423  0.00  0.00    +0.046 C 
BRANCH  10  16
ATOM     16  C   UNL     1       2.256  10.482  -6.085  0.00  0.00    +0.022 C 
ATOM     17  C   UNL     1       1.337  11.132  -7.122  0.00  0.00    +0.019 C 
ATOM     18  C   UNL     1       1.865  10.961  -4.685  0.00  0.00    +0.019 C 
ATOM     19  C   UNL     1       3.706  10.876  -6.371  0.00  0.00    +0.019 C 
ENDBRANCH  10  16
ENDBRANCH   2   5
BRANCH   1  23
ATOM     20  C   UNL     1       0.202  -2.395  -3.987  0.00  0.00    +0.067 C 
ATOM     21  C   UNL     1       0.172  -1.000  -3.419  0.00  0.00    +0.062 A 
ATOM     22  C   UNL     1       0.514   0.169  -4.104  0.00  0.00    +0.068 A 
ATOM     23  C   UNL     1       0.356   1.216  -3.249  0.00  0.00    +0.124 A 
ATOM     24  N   UNL     1      -0.073   0.713  -2.063  0.00  0.00    -0.246 N 
ATOM     25  N   UNL     1      -0.173  -0.678  -2.199  0.00  0.00    -0.175 NA
BRANCH  24  26
ATOM     26  C   UNL     1      -0.373   1.486  -0.855  0.00  0.00    +0.132 C 
ATOM     27  C   UNL     1      -1.834   1.252  -0.437  0.00  0.00    +0.051 C 
ATOM     28  C   UNL     1      -2.068   1.796   0.993  0.00  0.00    +0.168 C 
ATOM     29  S   UNL     1      -0.403   1.644   1.761  0.00  0.00    -0.029 S 
ATOM     30  O   UNL     1      -0.444   0.633   2.759  0.00  0.00    -0.174 OA
ATOM     31  O   UNL     1       0.072   2.940   2.097  0.00  0.00    -0.174 OA
ATOM     32  C   UNL     1       0.544   1.016   0.310  0.00  0.00    +0.192 C 
ENDBRANCH  24  26
ENDBRANCH   1  23
TORSDOF 4
