REMARK  Name = ZINC48412208
REMARK  5 active torsions:
REMARK  status: ('A' for Active; 'I' for Inactive)
REMARK    1  A    between atoms: C_1  and  C_2
REMARK    2  A    between atoms: C_5  and  C_7
REMARK    3  A    between atoms: C_16  and  C_18
REMARK    4  A    between atoms: C_18  and  C_19
REMARK    5  A    between atoms: C_18  and  C_20
REMARK                            x       y       z     vdW  Elec       q    Type
REMARK                         _______ _______ _______ _____ _____    ______ ____
ROOT
ATOM      1  C   UNL     1       1.040  -4.033  -0.026  0.00  0.00    +0.010 A 
ATOM      2  C   UNL     1       0.587  -4.954   0.861  0.00  0.00    +0.057 A 
ATOM      3  S   UNL     1       1.512  -6.420   0.444  0.00  0.00    -0.076 S 
ATOM      4  C   UNL     1       2.475  -5.771  -0.897  0.00  0.00    +0.116 A 
ATOM      5  C   UNL     1       2.055  -4.435  -0.995  0.00  0.00    +0.080 A 
ATOM      6  C   UNL     1       2.682  -3.661  -2.022  0.00  0.00    +0.260 A 
ATOM      7  O   UNL     1       2.385  -2.489  -2.182  0.00  0.00    -0.267 OA
ATOM      8  N   UNL     1       3.603  -4.246  -2.809  0.00  0.00    -0.310 N 
ATOM      9  H   UNL     1       4.032  -3.727  -3.507  0.00  0.00    +0.170 HD
ATOM     10  C   UNL     1       3.946  -5.550  -2.644  0.00  0.00    +0.114 A 
ATOM     11  N   UNL     1       3.398  -6.279  -1.710  0.00  0.00    -0.226 NA
ENDROOT
BRANCH   1  16
ATOM     12  C   UNL     1      -0.018   1.503   0.010  0.00  0.00    +0.051 C 
ATOM     13  C   UNL     1       0.002  -0.004   0.002  0.00  0.00    -0.013 A 
ATOM     14  C   UNL     1      -1.042  -0.871   0.002  0.00  0.00    +0.011 A 
ATOM     15  C   UNL     1      -0.789  -2.227  -0.007  0.00  0.00    +0.016 A 
ATOM     16  C   UNL     1       0.512  -2.653  -0.016  0.00  0.00    +0.021 A 
ATOM     17  S   UNL     1       1.406  -1.107  -0.018  0.00  0.00    -0.093 S 
ENDBRANCH   1  16
BRANCH  10  18
ATOM     18  C   UNL     1       4.984  -6.163  -3.549  0.00  0.00    +0.049 C 
ATOM     19  C   UNL     1       5.644  -7.347  -2.839  0.00  0.00    +0.015 C 
ATOM     20  C   UNL     1       4.316  -6.648  -4.837  0.00  0.00    +0.015 C 
ENDBRANCH  10  18
TORSDOF 2
