REMARK  Name = ZINC03624897
REMARK  19 active torsions:
REMARK  status: ('A' for Active; 'I' for Inactive)
REMARK    1  A    between atoms: C_1  and  C_2
REMARK    2  A    between atoms: C_2  and  C_3
REMARK    3  A    between atoms: C_3  and  C_4
REMARK    4  A    between atoms: C_4  and  O_5
REMARK    5  A    between atoms: O_5  and  C_6
REMARK    6  A    between atoms: C_6  and  C_8
REMARK    7  A    between atoms: C_9  and  N_38
REMARK    8  A    between atoms: C_13  and  C_37
REMARK    9  A    between atoms: C_17  and  C_32
REMARK   10  A    between atoms: C_18  and  C_20
REMARK   11  A    between atoms: C_22  and  O_30
REMARK   12  A    between atoms: C_23  and  O_28
REMARK   13  A    between atoms: C_24  and  O_26
REMARK   14  A    between atoms: O_26  and  C_27
REMARK   15  A    between atoms: O_28  and  C_29
REMARK   16  A    between atoms: O_30  and  C_31
REMARK   17  A    between atoms: C_32  and  O_34
REMARK   18  A    between atoms: O_34  and  C_35
REMARK   19  A    between atoms: C_35  and  C_36
REMARK                            x       y       z     vdW  Elec       q    Type
REMARK                         _______ _______ _______ _____ _____    ______ ____
ROOT
ATOM      1  C   UNL     1      -0.832   1.466   6.069  0.00  0.00    +0.084 C 
ATOM      2  C   UNL     1      -0.275   1.152   7.260  0.00  0.00    +0.106 C 
ATOM      3  N   UNL     1      -0.725   1.650   8.490  0.00  0.00    -0.220 N 
ATOM      4  C   UNL     1      -0.141   1.310   9.658  0.00  0.00    +0.239 C 
ATOM      5  O   UNL     1       0.805   0.553   9.692  0.00  0.00    -0.274 OA
ATOM      6  C   UNL     1      -0.711   1.910  10.923  0.00  0.00    +0.136 C 
ATOM      7  S   UNL     1      -2.070   2.923  10.220  0.00  0.00    -0.096 S 
ATOM      8  C   UNL     1      -1.802   2.517   8.504  0.00  0.00    +0.088 C 
ATOM      9  C   UNL     1      -2.470   2.929   7.394  0.00  0.00    +0.077 C 
ATOM     10  C   UNL     1      -2.011   2.418   6.044  0.00  0.00    +0.099 C 
ATOM     11  C   UNL     1       0.320   2.785  11.638  0.00  0.00    +0.029 C 
ENDROOT
BRANCH  10  12
ATOM     12  C   UNL     1      -3.173   1.714   5.391  0.00  0.00    -0.028 A 
ATOM     13  C   UNL     1      -3.668   0.546   5.940  0.00  0.00    +0.054 A 
ATOM     14  C   UNL     1      -4.740  -0.102   5.346  0.00  0.00    +0.165 A 
ATOM     15  C   UNL     1      -5.310   0.419   4.191  0.00  0.00    +0.204 A 
ATOM     16  C   UNL     1      -4.806   1.590   3.638  0.00  0.00    +0.165 A 
ATOM     17  C   UNL     1      -3.737   2.235   4.242  0.00  0.00    +0.054 A 
BRANCH  16  18
ATOM     18  O   UNL     1      -5.361   2.104   2.508  0.00  0.00    -0.491 OA
ATOM     19  C   UNL     1      -4.792   3.311   1.996  0.00  0.00    +0.277 C 
ENDBRANCH  16  18
BRANCH  15  20
ATOM     20  O   UNL     1      -6.360  -0.216   3.602  0.00  0.00    -0.488 OA
ATOM     21  C   UNL     1      -6.050  -1.201   2.614  0.00  0.00    +0.277 C 
ENDBRANCH  15  20
BRANCH  14  22
ATOM     22  O   UNL     1      -5.229  -1.248   5.890  0.00  0.00    -0.491 OA
ATOM     23  C   UNL     1      -4.594  -1.725   7.078  0.00  0.00    +0.277 C 
ENDBRANCH  14  22
ENDBRANCH  10  12
BRANCH   2  24
ATOM     24  N   UNL     1       0.793   0.294   7.266  0.00  0.00    -0.345 N 
ATOM     25  H   UNL     1       1.494   0.389   6.601  0.00  0.00    +0.143 HD
ATOM     26  H   UNL     1       0.849  -0.407   7.933  0.00  0.00    +0.143 HD
ENDBRANCH   2  24
BRANCH   1  27
ATOM     27  C   UNL     1      -0.325   0.926   4.877  0.00  0.00    +0.339 C 
ATOM     28  O   UNL     1       0.548   0.077   4.917  0.00  0.00    -0.245 OA
BRANCH  27  29
ATOM     29  O   UNL     1      -0.804   1.346   3.687  0.00  0.00    -0.461 OA
BRANCH  29  30
ATOM     30  C   UNL     1      -0.242   0.753   2.514  0.00  0.00    +0.232 C 
BRANCH  30  31
ATOM     31  C   UNL     1      -0.905   1.351   1.272  0.00  0.00    +0.041 C 
BRANCH  31  33
ATOM     32  C   UNL     1      -0.966   1.313  -1.225  0.00  0.00    +0.004 C 
ATOM     33  C   UNL     1      -0.303   0.716   0.017  0.00  0.00    -0.000 C 
ENDBRANCH  31  33
ENDBRANCH  30  31
ENDBRANCH  29  30
ENDBRANCH  27  29
ENDBRANCH   1  27
BRANCH   9  34
ATOM     34  C   UNL     1      -3.555   3.812   7.496  0.00  0.00    +0.338 C 
ATOM     35  O   UNL     1      -3.908   4.219   8.589  0.00  0.00    -0.245 OA
BRANCH  34  36
ATOM     36  O   UNL     1      -4.207   4.212   6.383  0.00  0.00    -0.462 OA
BRANCH  36  37
ATOM     37  C   UNL     1      -5.303   5.112   6.561  0.00  0.00    +0.229 C 
ATOM     38  C   UNL     1      -5.912   5.449   5.199  0.00  0.00    +0.048 C 
ENDBRANCH  36  37
ENDBRANCH  34  36
ENDBRANCH   9  34
TORSDOF 13
