REMARK  Name = ZINC64538275
REMARK  9 active torsions:
REMARK  status: ('A' for Active; 'I' for Inactive)
REMARK    1  A    between atoms: C_1  and  C_2
REMARK    2  A    between atoms: C_2  and  C_4
REMARK    3  A    between atoms: C_2  and  N_20
REMARK    4  A    between atoms: N_6  and  C_7
REMARK    5  A    between atoms: C_7  and  C_8
REMARK    6  A    between atoms: C_8  and  C_9
REMARK    7  A    between atoms: C_12  and  O_18
REMARK    8  A    between atoms: O_18  and  C_19
REMARK    9  A    between atoms: C_28  and  C_32
REMARK                            x       y       z     vdW  Elec       q    Type
REMARK                         _______ _______ _______ _____ _____    ______ ____
ROOT
ATOM      1  C   UNL     1      -0.019   1.526   0.010  0.00  0.00    +0.038 C 
ATOM      2  C   UNL     1       0.002  -0.004   0.002  0.00  0.00    +0.164 C 
ENDROOT
BRANCH   2   3
ATOM      3  N   UNL     1       0.688  -0.476  -1.203  0.00  0.00    -0.256 N 
ATOM      4  C   UNL     1       1.834  -1.271  -1.082  0.00  0.00    +0.058 A 
ATOM      5  C   UNL     1       2.165  -1.857   0.129  0.00  0.00    +0.025 A 
ATOM      6  C   UNL     1       3.304  -2.635   0.230  0.00  0.00    +0.002 A 
ATOM      7  C   UNL     1       4.116  -2.830  -0.873  0.00  0.00    +0.002 A 
ATOM      8  C   UNL     1       3.793  -2.250  -2.086  0.00  0.00    +0.025 A 
ATOM      9  C   UNL     1       2.653  -1.473  -2.194  0.00  0.00    +0.050 A 
ATOM     10  N   UNL     1       2.292  -0.882  -3.413  0.00  0.00    -0.325 N 
ATOM     11  C   UNL     1       0.862  -0.659  -3.673  0.00  0.00    +0.262 C 
ATOM     12  C   UNL     1       0.206  -0.147  -2.417  0.00  0.00    +0.250 C 
ATOM     13  O   UNL     1      -0.766   0.574  -2.500  0.00  0.00    -0.273 OA
ATOM     14  H   UNL     1       2.965  -0.627  -4.064  0.00  0.00    +0.147 HD
BRANCH  11  15
ATOM     15  C   UNL     1       0.206  -1.978  -4.088  0.00  0.00    +0.416 C 
ATOM     16  F   UNL     1       0.352  -2.915  -3.060  0.00  0.00    -0.168 F 
ATOM     17  F   UNL     1      -1.154  -1.764  -4.335  0.00  0.00    -0.168 F 
ATOM     18  F   UNL     1       0.821  -2.459  -5.249  0.00  0.00    -0.168 F 
ENDBRANCH  11  15
ENDBRANCH   2   3
BRANCH   2  19
ATOM     19  C   UNL     1      -1.412  -0.526   0.013  0.00  0.00    +0.234 C 
ATOM     20  O   UNL     1      -1.808  -1.223  -0.897  0.00  0.00    -0.274 OA
ATOM     21  N   UNL     1      -2.236  -0.217   1.033  0.00  0.00    -0.313 N 
ATOM     22  H   UNL     1      -1.920   0.341   1.761  0.00  0.00    +0.149 HD
BRANCH  21  23
ATOM     23  C   UNL     1      -3.611  -0.724   1.044  0.00  0.00    +0.108 C 
BRANCH  23  24
ATOM     24  C   UNL     1      -4.327  -0.231   2.302  0.00  0.00    +0.052 C 
BRANCH  24  25
ATOM     25  C   UNL     1      -5.741  -0.752   2.313  0.00  0.00    -0.040 C 
ATOM     26  C   UNL     1      -6.192  -1.864   2.936  0.00  0.00    +0.002 A 
ATOM     27  C   UNL     1      -5.530  -2.883   3.757  0.00  0.00    +0.055 A 
ATOM     28  C   UNL     1      -6.256  -3.911   4.259  0.00  0.00    +0.121 A 
ATOM     29  C   UNL     1      -7.635  -4.042   4.022  0.00  0.00    +0.047 A 
ATOM     30  C   UNL     1      -8.332  -3.155   3.279  0.00  0.00    +0.029 A 
ATOM     31  C   UNL     1      -7.646  -2.003   2.686  0.00  0.00    +0.043 A 
ATOM     32  N   UNL     1      -8.075  -1.016   1.940  0.00  0.00    -0.380 N 
ATOM     33  C   UNL     1      -6.943  -0.134   1.635  0.00  0.00    +0.144 C 
ATOM     34  H   UNL     1      -8.989  -0.888   1.642  0.00  0.00    +0.160 HD
BRANCH  28  35
ATOM     35  O   UNL     1      -5.629  -4.848   5.018  0.00  0.00    -0.495 OA
ATOM     36  C   UNL     1      -6.433  -5.914   5.527  0.00  0.00    +0.277 C 
ENDBRANCH  28  35
ENDBRANCH  24  25
ENDBRANCH  23  24
ENDBRANCH  21  23
ENDBRANCH   2  19
TORSDOF 7
