REMARK  Name = ZINC58954617
REMARK  15 active torsions:
REMARK  status: ('A' for Active; 'I' for Inactive)
REMARK    1  A    between atoms: C_1  and  C_2
REMARK    2  A    between atoms: C_2  and  C_3
REMARK    3  A    between atoms: C_3  and  C_4
REMARK    4  A    between atoms: C_4  and  C_6
REMARK    5  A    between atoms: C_4  and  N_22
REMARK    6  A    between atoms: N_8  and  C_9
REMARK    7  A    between atoms: C_9  and  C_10
REMARK    8  A    between atoms: C_10  and  C_12
REMARK    9  A    between atoms: C_10  and  N_17
REMARK   10  A    between atoms: N_17  and  C_18
REMARK   11  A    between atoms: N_17  and  C_20
REMARK   12  A    between atoms: C_18  and  C_19
REMARK   13  A    between atoms: C_20  and  C_21
REMARK   14  A    between atoms: N_25  and  C_26
REMARK   15  A    between atoms: C_26  and  C_27
REMARK                            x       y       z     vdW  Elec       q    Type
REMARK                         _______ _______ _______ _____ _____    ______ ____
ROOT
ATOM      1  C   UNL     1       1.344  -3.033   1.362  0.00  0.00    +0.160 C 
ENDROOT
BRANCH   1   2
ATOM      2  N   UNL     1       1.858  -3.994   0.383  0.00  0.00    -0.288 N 
ATOM      3  C   UNL     1       1.329  -4.042  -0.856  0.00  0.00    +0.300 C 
ATOM      4  O   UNL     1       0.425  -3.288  -1.160  0.00  0.00    -0.253 OA
ATOM      5  N   UNL     1       1.801  -4.926  -1.757  0.00  0.00    -0.295 N 
ATOM      6  H   UNL     1       2.579  -4.596   0.626  0.00  0.00    +0.151 HD
ATOM      7  H   UNL     1       2.522  -5.528  -1.514  0.00  0.00    +0.151 HD
BRANCH   5   8
ATOM      8  C   UNL     1       1.226  -4.978  -3.103  0.00  0.00    +0.141 C 
BRANCH   8   9
ATOM      9  C   UNL     1       1.926  -6.043  -3.908  0.00  0.00    -0.030 A 
ATOM     10  C   UNL     1       3.051  -5.723  -4.645  0.00  0.00    +0.008 A 
ATOM     11  C   UNL     1       3.694  -6.699  -5.383  0.00  0.00    +0.038 A 
ATOM     12  C   UNL     1       3.211  -7.997  -5.383  0.00  0.00    +0.123 A 
ATOM     13  C   UNL     1       2.085  -8.316  -4.644  0.00  0.00    +0.038 A 
ATOM     14  C   UNL     1       1.446  -7.339  -3.903  0.00  0.00    +0.008 A 
ATOM     15  F   UNL     1       3.839  -8.951  -6.105  0.00  0.00    -0.205 F 
ENDBRANCH   8   9
ENDBRANCH   5   8
ENDBRANCH   1   2
BRANCH   1  16
ATOM     16  C   UNL     1       1.611  -3.544   2.755  0.00  0.00    +0.233 C 
ATOM     17  O   UNL     1       2.175  -4.606   2.913  0.00  0.00    -0.274 OA
ATOM     18  N   UNL     1       1.224  -2.820   3.824  0.00  0.00    -0.315 N 
ATOM     19  H   UNL     1       0.773  -1.971   3.697  0.00  0.00    +0.149 HD
BRANCH  18  20
ATOM     20  C   UNL     1       1.483  -3.317   5.177  0.00  0.00    +0.093 C 
BRANCH  20  21
ATOM     21  C   UNL     1       0.788  -2.410   6.195  0.00  0.00    -0.020 C 
BRANCH  21  22
ATOM     22  C   UNL     1       1.264  -2.755   7.583  0.00  0.00    -0.052 A 
ATOM     23  C   UNL     1       2.228  -1.984   8.206  0.00  0.00    +0.009 A 
ATOM     24  C   UNL     1       2.634  -2.322   9.454  0.00  0.00    +0.045 A 
ATOM     25  S   UNL     1       1.643  -3.769   9.786  0.00  0.00    -0.105 S 
ATOM     26  C   UNL     1       0.750  -3.823   8.241  0.00  0.00    +0.047 A 
ENDBRANCH  21  22
BRANCH  21  27
ATOM     27  N   UNL     1      -0.665  -2.606   6.113  0.00  0.00    +0.385 N 
ATOM     28  H   UNL     1      -0.878  -3.588   6.202  0.00  0.00    -0.081 HD
BRANCH  27  29
ATOM     29  C   UNL     1      -1.321  -1.863   7.198  0.00  0.00    -0.081 C 
ATOM     30  C   UNL     1      -2.815  -2.194   7.212  0.00  0.00    -0.017 C 
ENDBRANCH  27  29
BRANCH  27  31
ATOM     31  C   UNL     1      -1.153  -2.114   4.818  0.00  0.00    -0.081 C 
ATOM     32  C   UNL     1      -0.776  -0.640   4.657  0.00  0.00    -0.017 C 
ENDBRANCH  27  31
ENDBRANCH  21  27
ENDBRANCH  20  21
ENDBRANCH  18  20
ENDBRANCH   1  16
BRANCH   1  33
ATOM     33  C   UNL     1       2.044  -1.686   1.170  0.00  0.00    +0.031 C 
BRANCH  33  35
ATOM     34  C   UNL     1       2.371   0.239  -0.389  0.00  0.00    +0.004 C 
ATOM     35  C   UNL     1       1.672  -1.109  -0.197  0.00  0.00    -0.001 C 
ENDBRANCH  33  35
ENDBRANCH   1  33
TORSDOF 12
