REMARK  Name = ZINC12697854
REMARK  3 active torsions:
REMARK  status: ('A' for Active; 'I' for Inactive)
REMARK    1  A    between atoms: C_5  and  C_6
REMARK    2  A    between atoms: N_8  and  N_9
REMARK    3  A    between atoms: C_10  and  C_12
REMARK                            x       y       z     vdW  Elec       q    Type
REMARK                         _______ _______ _______ _____ _____    ______ ____
ROOT
ATOM      1  C   UNL     1       3.524   1.904  -0.021  0.00  0.00    +0.267 C 
ATOM      2  O   UNL     1       3.508   3.121  -0.015  0.00  0.00    -0.268 OA
ATOM      3  N   UNL     1       2.366   1.214  -0.014  0.00  0.00    -0.230 N 
ATOM      4  H   UNL     1       2.379   0.244  -0.019  0.00  0.00    +0.173 HD
ENDROOT
BRANCH   1   9
ATOM      5  C   UNL     1       6.084   1.694  -0.047  0.00  0.00    +0.024 A 
ATOM      6  C   UNL     1       7.154   0.794  -0.064  0.00  0.00    -0.036 A 
ATOM      7  C   UNL     1       6.849  -0.515  -0.121  0.00  0.00    -0.006 A 
ATOM      8  S   UNL     1       5.114  -0.566  -0.042  0.00  0.00    -0.088 S 
ATOM      9  C   UNL     1       4.803   1.188  -0.037  0.00  0.00    +0.076 A 
ATOM     10  C   UNL     1       7.688  -1.758  -0.279  0.00  0.00    +0.043 C 
ATOM     11  C   UNL     1       9.177  -1.434  -0.417  0.00  0.00    +0.005 C 
ATOM     12  C   UNL     1       9.802  -1.134   0.936  0.00  0.00    +0.000 C 
ATOM     13  C   UNL     1       8.885  -0.350   1.851  0.00  0.00    +0.000 C 
ATOM     14  C   UNL     1       9.049   1.131   1.487  0.00  0.00    +0.005 C 
ATOM     15  C   UNL     1       8.568   1.343   0.052  0.00  0.00    +0.036 C 
ENDBRANCH   1   9
BRANCH   3  16
ATOM     16  N   UNL     1       1.143   1.898   0.001  0.00  0.00    -0.234 N 
ATOM     17  C   UNL     1      -0.014   1.209   0.009  0.00  0.00    +0.232 C 
ATOM     18  O   UNL     1       0.002  -0.004   0.002  0.00  0.00    -0.274 OA
ATOM     19  H   UNL     1       1.130   2.868   0.007  0.00  0.00    +0.173 HD
BRANCH  17  20
ATOM     20  C   UNL     1      -1.330   1.944   0.019  0.00  0.00    +0.080 C 
ATOM     21  C   UNL     1      -2.485   0.935   0.029  0.00  0.00    +0.017 C 
ATOM     22  C   UNL     1      -3.798   1.702  -0.140  0.00  0.00    +0.027 C 
ATOM     23  C   UNL     1      -3.855   2.850   0.825  0.00  0.00    -0.031 C 
ATOM     24  C   UNL     1      -2.824   3.333   1.439  0.00  0.00    -0.030 C 
ATOM     25  C   UNL     1      -1.425   2.809   1.278  0.00  0.00    +0.039 C 
ENDBRANCH  17  20
ENDBRANCH   3  16
TORSDOF 3
