REMARK  Name = ZINC04073598
REMARK  9 active torsions:
REMARK  status: ('A' for Active; 'I' for Inactive)
REMARK    1  A    between atoms: C_1  and  C_2
REMARK    2  A    between atoms: C_3  and  O_19
REMARK    3  A    between atoms: C_12  and  C_13
REMARK    4  A    between atoms: O_19  and  C_20
REMARK    5  A    between atoms: C_22  and  O_35
REMARK    6  A    between atoms: C_24  and  O_34
REMARK    7  A    between atoms: C_26  and  O_33
REMARK    8  A    between atoms: C_28  and  C_31
REMARK    9  A    between atoms: C_31  and  O_32
REMARK                            x       y       z     vdW  Elec       q    Type
REMARK                         _______ _______ _______ _____ _____    ______ ____
ROOT
ATOM      1  C   UNL     1      -0.013   1.086   0.008  0.00  0.00    +0.051 C 
ATOM      2  C   UNL     1      -0.718   1.572   1.248  0.00  0.00    +0.034 A 
ATOM      3  C   UNL     1       0.000   1.807   2.409  0.00  0.00    +0.130 A 
ATOM      4  C   UNL     1      -0.643   2.256   3.560  0.00  0.00    +0.047 A 
ATOM      5  C   UNL     1      -1.992   2.470   3.558  0.00  0.00    +0.016 A 
ATOM      6  C   UNL     1      -2.730   2.239   2.396  0.00  0.00    +0.026 A 
ATOM      7  C   UNL     1      -2.087   1.791   1.228  0.00  0.00    +0.146 A 
ATOM      8  O   UNL     1      -2.805   1.562   0.107  0.00  0.00    -0.422 OA
ATOM      9  C   UNL     1      -4.132   1.760   0.062  0.00  0.00    +0.338 A 
ATOM     10  O   UNL     1      -4.728   1.542  -0.978  0.00  0.00    -0.245 OA
ATOM     11  C   UNL     1      -4.853   2.211   1.181  0.00  0.00    +0.101 A 
ATOM     12  C   UNL     1      -4.186   2.461   2.365  0.00  0.00    -0.000 A 
ENDROOT
BRANCH  12  13
ATOM     13  C   UNL     1      -4.910   2.937   3.564  0.00  0.00    -0.017 A 
ATOM     14  C   UNL     1      -4.732   2.296   4.791  0.00  0.00    +0.008 A 
ATOM     15  C   UNL     1      -5.406   2.748   5.906  0.00  0.00    +0.001 A 
ATOM     16  C   UNL     1      -6.267   3.827   5.808  0.00  0.00    +0.000 A 
ATOM     17  C   UNL     1      -6.454   4.463   4.593  0.00  0.00    +0.001 A 
ATOM     18  C   UNL     1      -5.781   4.024   3.471  0.00  0.00    +0.008 A 
ENDBRANCH  12  13
BRANCH   3  19
ATOM     19  O   UNL     1       1.342   1.598   2.425  0.00  0.00    -0.460 OA
BRANCH  19  20
ATOM     20  C   UNL     1       2.024   1.859   3.653  0.00  0.00    +0.339 C 
ATOM     21  C   UNL     1       3.493   1.451   3.518  0.00  0.00    +0.214 C 
ATOM     22  C   UNL     1       4.231   1.789   4.817  0.00  0.00    +0.180 C 
ATOM     23  C   UNL     1       4.067   3.284   5.110  0.00  0.00    +0.177 C 
ATOM     24  C   UNL     1       2.576   3.620   5.184  0.00  0.00    +0.179 C 
ATOM     25  O   UNL     1       1.944   3.253   3.956  0.00  0.00    -0.331 OA
BRANCH  23  26
ATOM     26  O   UNL     1       4.679   4.045   4.066  0.00  0.00    -0.386 OA
ATOM     27  H   UNL     1       5.625   3.877   3.960  0.00  0.00    +0.210 HD
ENDBRANCH  23  26
BRANCH  22  28
ATOM     28  O   UNL     1       5.619   1.479   4.673  0.00  0.00    -0.386 OA
ATOM     29  H   UNL     1       5.796   0.549   4.479  0.00  0.00    +0.210 HD
ENDBRANCH  22  28
BRANCH  21  30
ATOM     30  O   UNL     1       3.578   0.046   3.271  0.00  0.00    -0.383 OA
ATOM     31  H   UNL     1       3.128  -0.240   2.464  0.00  0.00    +0.210 HD
ENDBRANCH  21  30
BRANCH  24  32
ATOM     32  C   UNL     1       2.403   5.123   5.417  0.00  0.00    +0.190 C 
BRANCH  32  33
ATOM     33  O   UNL     1       1.018   5.420   5.603  0.00  0.00    -0.392 OA
ATOM     34  H   UNL     1       0.833   6.357   5.756  0.00  0.00    +0.210 HD
ENDBRANCH  32  33
ENDBRANCH  24  32
ENDBRANCH  19  20
ENDBRANCH   3  19
TORSDOF 8
