REMARK  Name = ZINC39761127
REMARK  11 active torsions:
REMARK  status: ('A' for Active; 'I' for Inactive)
REMARK    1  A    between atoms: C_1  and  C_2
REMARK    2  A    between atoms: C_2  and  N_3
REMARK    3  A    between atoms: C_4  and  C_20
REMARK    4  A    between atoms: C_7  and  S_8
REMARK    5  A    between atoms: S_8  and  C_9
REMARK    6  A    between atoms: C_9  and  C_11
REMARK    7  A    between atoms: C_9  and  C_12
REMARK    8  A    between atoms: C_12  and  N_14
REMARK    9  A    between atoms: C_20  and  C_22
REMARK   10  A    between atoms: C_20  and  N_23
REMARK   11  A    between atoms: C_24  and  C_26
REMARK                            x       y       z     vdW  Elec       q    Type
REMARK                         _______ _______ _______ _____ _____    ______ ____
ROOT
ATOM      1  N   UNL     1      -1.372  -0.511   0.012  0.00  0.00    -0.305 N 
ATOM      2  C   UNL     1      -2.139  -0.798   1.108  0.00  0.00    +0.154 A 
ATOM      3  N   UNL     1      -3.292  -1.221   0.675  0.00  0.00    -0.132 NA
ATOM      4  N   UNL     1      -3.308  -1.222  -0.610  0.00  0.00    -0.122 NA
ATOM      5  C   UNL     1      -2.156  -0.790  -1.070  0.00  0.00    +0.192 A 
ENDROOT
BRANCH   1   7
ATOM      6  C   UNL     1      -0.019   1.526   0.010  0.00  0.00    +0.027 C 
ATOM      7  C   UNL     1       0.002  -0.004   0.002  0.00  0.00    +0.122 C 
ENDBRANCH   1   7
BRANCH   2   8
ATOM      8  C   UNL     1      -1.725  -0.651   2.550  0.00  0.00    +0.138 C 
ATOM      9  C   UNL     1      -2.401   0.582   3.152  0.00  0.00    +0.036 C 
BRANCH   8  10
ATOM     10  N   UNL     1      -2.130  -1.844   3.298  0.00  0.00    -0.302 N 
ATOM     11  C   UNL     1      -1.472  -2.191   4.421  0.00  0.00    +0.245 C 
ATOM     12  O   UNL     1      -0.541  -1.514   4.814  0.00  0.00    -0.270 OA
ATOM     13  H   UNL     1      -2.872  -2.384   2.984  0.00  0.00    +0.150 HD
BRANCH  11  14
ATOM     14  C   UNL     1      -1.881  -3.395   5.176  0.00  0.00    +0.037 A 
ATOM     15  C   UNL     1      -2.944  -4.178   4.724  0.00  0.00    +0.013 A 
ATOM     16  C   UNL     1      -3.321  -5.300   5.433  0.00  0.00    +0.001 A 
ATOM     17  C   UNL     1      -2.646  -5.650   6.589  0.00  0.00    +0.000 A 
ATOM     18  C   UNL     1      -1.591  -4.878   7.043  0.00  0.00    +0.001 A 
ATOM     19  C   UNL     1      -1.201  -3.757   6.340  0.00  0.00    +0.013 A 
ENDBRANCH  11  14
ENDBRANCH   8  10
ENDBRANCH   2   8
BRANCH   5  20
ATOM     20  S   UNL     1      -1.707  -0.609  -2.764  0.00  0.00    -0.073 S 
BRANCH  20  21
ATOM     21  C   UNL     1      -3.184  -1.145  -3.670  0.00  0.00    +0.139 C 
ATOM     22  C   UNL     1      -3.431  -2.632  -3.408  0.00  0.00    +0.029 C 
BRANCH  21  23
ATOM     23  C   UNL     1      -2.976  -0.923  -5.146  0.00  0.00    +0.251 C 
ATOM     24  O   UNL     1      -1.850  -0.893  -5.604  0.00  0.00    -0.272 OA
BRANCH  23  25
ATOM     25  N   UNL     1      -4.025  -0.759  -5.948  0.00  0.00    -0.158 NA
ATOM     26  C   UNL     1      -3.842  -0.564  -7.249  0.00  0.00    +0.146 C 
ATOM     27  N   UNL     1      -4.813  -0.378  -8.172  0.00  0.00    -0.325 N 
ATOM     28  C   UNL     1      -4.462  -0.176  -9.562  0.00  0.00    +0.114 C 
ATOM     29  C   UNL     1      -2.932  -0.208  -9.761  0.00  0.00    +0.095 C 
ATOM     30  S   UNL     1      -2.366  -0.494  -8.040  0.00  0.00    -0.092 S 
ATOM     31  H   UNL     1      -5.745  -0.382  -7.902  0.00  0.00    +0.148 HD
ENDBRANCH  23  25
ENDBRANCH  21  23
ENDBRANCH  20  21
ENDBRANCH   5  20
TORSDOF 8
