REMARK  Name = ZINC26975575
REMARK  5 active torsions:
REMARK  status: ('A' for Active; 'I' for Inactive)
REMARK    1  A    between atoms: C_4  and  C_7
REMARK    2  A    between atoms: C_8  and  C_18
REMARK    3  A    between atoms: N_10  and  C_12
REMARK    4  A    between atoms: N_20  and  N_21
REMARK    5  A    between atoms: C_22  and  C_24
REMARK                            x       y       z     vdW  Elec       q    Type
REMARK                         _______ _______ _______ _____ _____    ______ ____
ROOT
ATOM      1  C   UNL     1       7.247  -0.897  -0.072  0.00  0.00    +0.264 C 
ATOM      2  O   UNL     1       7.974  -1.872  -0.085  0.00  0.00    -0.269 OA
ATOM      3  N   UNL     1       7.780   0.341  -0.071  0.00  0.00    -0.230 N 
ATOM      4  H   UNL     1       7.122   1.223  -0.060  0.00  0.00    +0.173 HD
ENDROOT
BRANCH   1   6
ATOM      5  C   UNL     1       5.050  -2.338  -0.059  0.00  0.00    +0.105 A 
ATOM      6  C   UNL     1       5.785  -1.069  -0.059  0.00  0.00    +0.084 A 
ATOM      7  C   UNL     1       4.835  -0.069  -0.049  0.00  0.00    +0.128 A 
ATOM      8  N   UNL     1       3.623  -0.651  -0.035  0.00  0.00    -0.239 N 
ATOM      9  N   UNL     1       3.770  -2.042  -0.044  0.00  0.00    -0.166 NA
BRANCH   5  13
ATOM     10  C   UNL     1       6.740  -6.239  -0.097  0.00  0.00    +0.000 A 
ATOM     11  C   UNL     1       5.571  -6.001   0.604  0.00  0.00    +0.001 A 
ATOM     12  C   UNL     1       5.018  -4.737   0.620  0.00  0.00    +0.010 A 
ATOM     13  C   UNL     1       5.639  -3.699  -0.072  0.00  0.00    +0.003 A 
ATOM     14  C   UNL     1       6.814  -3.945  -0.781  0.00  0.00    +0.010 A 
ATOM     15  C   UNL     1       7.361  -5.212  -0.786  0.00  0.00    +0.001 A 
ENDBRANCH   5  13
BRANCH   8  16
ATOM     16  C   UNL     1       2.400   0.031  -0.021  0.00  0.00    +0.065 A 
ATOM     17  C   UNL     1       1.207  -0.680  -0.013  0.00  0.00    +0.028 A 
ATOM     18  C   UNL     1       0.002  -0.004   0.002  0.00  0.00    +0.002 A 
ATOM     19  C   UNL     1      -0.017   1.379   0.010  0.00  0.00    +0.000 A 
ATOM     20  C   UNL     1       1.170   2.089   0.002  0.00  0.00    +0.002 A 
ATOM     21  C   UNL     1       2.377   1.419  -0.013  0.00  0.00    +0.028 A 
ENDBRANCH   8  16
ENDBRANCH   1   6
BRANCH   3  22
ATOM     22  N   UNL     1       9.171   0.505  -0.084  0.00  0.00    -0.231 N 
ATOM     23  C   UNL     1       9.704   1.743  -0.082  0.00  0.00    +0.273 C 
ATOM     24  O   UNL     1       8.979   2.715  -0.070  0.00  0.00    -0.270 OA
ATOM     25  H   UNL     1       9.829  -0.377  -0.095  0.00  0.00    +0.173 HD
BRANCH  23  26
ATOM     26  C   UNL     1      11.201   1.919  -0.096  0.00  0.00    +0.297 C 
ATOM     27  C   UNL     1      11.770   1.408  -1.426  0.00  0.00    +0.283 C 
ATOM     28  O   UNL     1      13.188   1.602  -1.411  0.00  0.00    -0.484 OA
ATOM     29  C   UNL     1      13.634   2.816  -0.986  0.00  0.00    +0.162 A 
ATOM     30  C   UNL     1      14.934   3.203  -1.276  0.00  0.00    +0.049 A 
ATOM     31  C   UNL     1      15.403   4.431  -0.848  0.00  0.00    +0.004 A 
ATOM     32  C   UNL     1      14.578   5.276  -0.130  0.00  0.00    +0.004 A 
ATOM     33  C   UNL     1      13.282   4.897   0.162  0.00  0.00    +0.049 A 
ATOM     34  C   UNL     1      12.804   3.667  -0.266  0.00  0.00    +0.163 A 
ATOM     35  O   UNL     1      11.524   3.309   0.026  0.00  0.00    -0.472 OA
ENDBRANCH  23  26
ENDBRANCH   3  22
TORSDOF 5
