REMARK  Name = ZINC54160677
REMARK  5 active torsions:
REMARK  status: ('A' for Active; 'I' for Inactive)
REMARK    1  A    between atoms: C_1  and  C_2
REMARK    2  A    between atoms: C_2  and  C_4
REMARK    3  A    between atoms: C_2  and  O_18
REMARK    4  A    between atoms: C_7  and  C_9
REMARK    5  A    between atoms: C_14  and  N_15
REMARK                            x       y       z     vdW  Elec       q    Type
REMARK                         _______ _______ _______ _____ _____    ______ ____
ROOT
ATOM      1  C   UNL     1       0.751  -0.557  -1.206  0.00  0.00    +0.038 A 
ATOM      2  C   UNL     1       2.082  -0.684  -1.452  0.00  0.00    +0.125 A 
ATOM      3  N   UNL     1       2.496  -1.027  -2.649  0.00  0.00    -0.247 NA
ATOM      4  C   UNL     1       1.639  -1.256  -3.635  0.00  0.00    +0.111 A 
ATOM      5  S   UNL     1       0.078  -0.970  -2.811  0.00  0.00    -0.070 S 
ENDROOT
BRANCH   4   6
ATOM      6  C   UNL     1       1.903  -1.648  -5.036  0.00  0.00    +0.037 A 
ATOM      7  C   UNL     1       1.415  -0.869  -6.085  0.00  0.00    +0.013 A 
ATOM      8  C   UNL     1       1.665  -1.240  -7.390  0.00  0.00    +0.001 A 
ATOM      9  C   UNL     1       2.399  -2.382  -7.659  0.00  0.00    +0.002 A 
ATOM     10  C   UNL     1       2.886  -3.158  -6.623  0.00  0.00    +0.033 A 
ATOM     11  C   UNL     1       2.647  -2.795  -5.314  0.00  0.00    +0.136 A 
BRANCH  11  12
ATOM     12  N   UNL     1       3.174  -3.624  -4.207  0.00  0.00    +0.057 N 
ATOM     13  O   UNL     1       3.906  -4.556  -4.445  0.00  0.00    -0.126 OA
ATOM     14  O   UNL     1       2.871  -3.370  -3.064  0.00  0.00    -0.126 OA
ENDBRANCH  11  12
ENDBRANCH   4   6
BRANCH   1  16
ATOM     15  C   UNL     1      -0.367   1.295   0.006  0.00  0.00    +0.043 C 
ATOM     16  C   UNL     1       0.039  -0.179   0.067  0.00  0.00    +0.150 C 
BRANCH  16  17
ATOM     17  O   UNL     1      -1.129  -0.989   0.219  0.00  0.00    -0.387 OA
ATOM     18  H   UNL     1      -1.637  -0.800   1.019  0.00  0.00    +0.210 HD
ENDBRANCH  16  17
ENDBRANCH   1  16
TORSDOF 4
