REMARK  Name = ZINC63941197
REMARK  6 active torsions:
REMARK  status: ('A' for Active; 'I' for Inactive)
REMARK    1  A    between atoms: C_1  and  C_2
REMARK    2  A    between atoms: C_8  and  C_11
REMARK    3  A    between atoms: C_11  and  C_12
REMARK    4  A    between atoms: C_12  and  N_13
REMARK    5  A    between atoms: C_15  and  C_20
REMARK    6  A    between atoms: C_26  and  C_29
REMARK                            x       y       z     vdW  Elec       q    Type
REMARK                         _______ _______ _______ _____ _____    ______ ____
ROOT
ATOM      1  N   UNL     1      -1.377  -2.600   5.613  0.00  0.00    -0.300 N 
ATOM      2  C   UNL     1      -1.248  -3.644   6.637  0.00  0.00    +0.121 C 
ATOM      3  C   UNL     1      -0.861  -2.901   7.936  0.00  0.00    +0.101 C 
ATOM      4  C   UNL     1      -1.441  -1.492   7.677  0.00  0.00    +0.110 C 
ATOM      5  C   UNL     1      -1.487  -1.381   6.169  0.00  0.00    +0.216 C 
ATOM      6  O   UNL     1      -1.608  -0.345   5.552  0.00  0.00    -0.276 OA
ENDROOT
BRANCH   3   7
ATOM      7  C   UNL     1      -1.510  -3.541   9.136  0.00  0.00    +0.224 C 
ATOM      8  O   UNL     1      -2.226  -4.510   8.994  0.00  0.00    -0.275 OA
ATOM      9  N   UNL     1      -1.294  -3.036  10.367  0.00  0.00    -0.263 N 
ATOM     10  C   UNL     1      -1.894  -3.627  11.476  0.00  0.00    +0.179 C 
ATOM     11  N   UNL     1      -2.675  -4.661  11.505  0.00  0.00    -0.163 NA
ATOM     12  N   UNL     1      -3.217  -5.166  12.666  0.00  0.00    -0.253 N 
ATOM     13  C   UNL     1      -2.846  -4.443  13.903  0.00  0.00    +0.157 C 
ATOM     14  S   UNL     1      -1.758  -3.141  13.189  0.00  0.00    -0.065 S 
ATOM     15  H   UNL     1      -0.722  -2.262  10.480  0.00  0.00    +0.157 HD
ATOM     16  H   UNL     1      -3.801  -5.941  12.672  0.00  0.00    +0.169 HD
BRANCH  13  17
ATOM     17  C   UNL     1      -4.075  -3.838  14.585  0.00  0.00    +0.021 C 
ATOM     18  C   UNL     1      -4.824  -2.949  13.590  0.00  0.00    +0.006 C 
ATOM     19  C   UNL     1      -6.053  -2.344  14.272  0.00  0.00    +0.000 C 
ATOM     20  C   UNL     1      -5.609  -1.505  15.472  0.00  0.00    +0.000 C 
ATOM     21  C   UNL     1      -4.860  -2.394  16.466  0.00  0.00    +0.000 C 
ATOM     22  C   UNL     1      -3.631  -2.999  15.785  0.00  0.00    +0.006 C 
ENDBRANCH  13  17
ENDBRANCH   3   7
BRANCH   1  23
ATOM     23  C   UNL     1      -1.379  -2.854   4.170  0.00  0.00    +0.112 C 
BRANCH  23  24
ATOM     24  C   UNL     1       0.055  -2.799   3.641  0.00  0.00    +0.052 C 
BRANCH  24  32
ATOM     25  C   UNL     1      -0.018   1.503   0.010  0.00  0.00    +0.044 C 
ATOM     26  C   UNL     1       0.002  -0.004   0.002  0.00  0.00    -0.050 A 
ATOM     27  C   UNL     1       0.005  -0.680  -1.226  0.00  0.00    +0.005 A 
ATOM     28  C   UNL     1       0.023  -2.026  -1.317  0.00  0.00    +0.026 A 
ATOM     29  C   UNL     1       0.039  -2.826  -0.141  0.00  0.00    +0.043 A 
ATOM     30  N   UNL     1       0.057  -4.126   0.030  0.00  0.00    -0.380 N 
ATOM     31  C   UNL     1       0.067  -4.408   1.470  0.00  0.00    +0.144 C 
ATOM     32  C   UNL     1       0.052  -3.060   2.156  0.00  0.00    -0.040 C 
ATOM     33  C   UNL     1       0.036  -2.137   1.168  0.00  0.00    -0.001 A 
ATOM     34  C   UNL     1       0.022  -0.669   1.180  0.00  0.00    +0.013 A 
ATOM     35  H   UNL     1       0.062  -4.790  -0.677  0.00  0.00    +0.160 HD
ENDBRANCH  24  32
ENDBRANCH  23  24
ENDBRANCH   1  23
TORSDOF 5
