REMARK  Name = ZINC63091991
REMARK  8 active torsions:
REMARK  status: ('A' for Active; 'I' for Inactive)
REMARK    1  A    between atoms: C_1  and  C_2
REMARK    2  A    between atoms: C_2  and  C_4
REMARK    3  A    between atoms: C_2  and  N_9
REMARK    4  A    between atoms: C_4  and  C_5
REMARK    5  A    between atoms: N_6  and  O_7
REMARK    6  A    between atoms: N_9  and  C_10
REMARK    7  A    between atoms: N_9  and  S_11
REMARK    8  A    between atoms: S_11  and  C_14
REMARK                            x       y       z     vdW  Elec       q    Type
REMARK                         _______ _______ _______ _____ _____    ______ ____
ROOT
ATOM      1  N   UNL     1      -1.898  -0.136   0.153  0.00  0.00    -0.176 NA
ATOM      2  C   UNL     1      -2.950   0.426   1.004  0.00  0.00    +0.132 C 
ENDROOT
BRANCH   1   3
ATOM      3  S   UNL     1      -2.231  -1.422  -0.836  0.00  0.00    +0.062 S 
ATOM      4  O   UNL     1      -3.577  -1.266  -1.265  0.00  0.00    -0.153 OA
ATOM      5  O   UNL     1      -1.147  -1.523  -1.750  0.00  0.00    -0.153 OA
BRANCH   3   6
ATOM      6  C   UNL     1      -2.186  -2.873   0.162  0.00  0.00    +0.124 A 
ATOM      7  C   UNL     1      -3.356  -3.549   0.453  0.00  0.00    +0.031 A 
ATOM      8  C   UNL     1      -3.321  -4.687   1.236  0.00  0.00    +0.017 A 
ATOM      9  C   UNL     1      -2.114  -5.151   1.729  0.00  0.00    +0.019 A 
ATOM     10  C   UNL     1      -0.943  -4.476   1.438  0.00  0.00    +0.037 A 
ATOM     11  C   UNL     1      -0.978  -3.339   0.650  0.00  0.00    +0.068 A 
ATOM     12 CL   UNL     1       0.493  -2.494   0.279  0.00  0.00    -0.081 Cl
ATOM     13 BR   UNL     1      -2.067  -6.708   2.801  0.00  0.00    -0.050 Br
ENDBRANCH   3   6
ENDBRANCH   1   3
BRANCH   1  15
ATOM     14  C   UNL     1      -0.341   1.299  -1.071  0.00  0.00    +0.026 C 
ATOM     15  C   UNL     1      -0.550   0.439   0.177  0.00  0.00    +0.084 C 
BRANCH  15  16
ATOM     16  C   UNL     1      -0.389   1.307   1.427  0.00  0.00    +0.095 C 
BRANCH  16  17
ATOM     17  C   UNL     1      -0.434   0.433   2.654  0.00  0.00    +0.133 C 
ATOM     18  N   UNL     1      -0.488  -0.852   2.531  0.00  0.00    -0.077 NA
ATOM     19  N   UNL     1      -0.419   1.004   3.908  0.00  0.00    -0.344 N 
ATOM     20  H   UNL     1      -0.380   1.969   4.000  0.00  0.00    +0.144 HD
ATOM     21  H   UNL     1      -0.449   0.441   4.697  0.00  0.00    +0.144 HD
BRANCH  18  22
ATOM     22  O   UNL     1      -0.423  -1.677   3.680  0.00  0.00    -0.408 OA
ATOM     23  H   UNL     1      -0.393  -2.623   3.483  0.00  0.00    +0.328 HD
ENDBRANCH  18  22
ENDBRANCH  16  17
ENDBRANCH  15  16
ENDBRANCH   1  15
TORSDOF 6
