REMARK  Name = ZINC59097995
REMARK  11 active torsions:
REMARK  status: ('A' for Active; 'I' for Inactive)
REMARK    1  A    between atoms: C_1  and  C_2
REMARK    2  A    between atoms: C_6  and  N_9
REMARK    3  A    between atoms: N_9  and  C_10
REMARK    4  A    between atoms: C_10  and  N_12
REMARK    5  A    between atoms: N_12  and  C_13
REMARK    6  A    between atoms: N_12  and  C_20
REMARK    7  A    between atoms: C_13  and  C_14
REMARK    8  A    between atoms: C_22  and  C_28
REMARK    9  A    between atoms: C_22  and  C_29
REMARK   10  A    between atoms: C_24  and  C_26
REMARK   11  A    between atoms: C_24  and  C_27
REMARK                            x       y       z     vdW  Elec       q    Type
REMARK                         _______ _______ _______ _____ _____    ______ ____
ROOT
ATOM      1  N   UNL     1      -0.032  -4.812   3.596  0.00  0.00    -0.304 N 
ENDROOT
BRANCH   1   2
ATOM      2  C   UNL     1      -0.120  -4.075   4.863  0.00  0.00    +0.073 C 
ATOM      3  C   UNL     1       1.143  -3.232   5.043  0.00  0.00    +0.009 C 
ATOM      4  C   UNL     1       1.061  -2.449   6.353  0.00  0.00    -0.072 C 
ATOM      5  N   UNL     1      -0.157  -1.656   6.442  0.00  0.00    +0.386 N 
ATOM      6  C   UNL     1      -1.411  -2.303   6.091  0.00  0.00    -0.072 C 
ATOM      7  C   UNL     1      -1.323  -3.133   4.815  0.00  0.00    +0.009 C 
ATOM      8  C   UNL     1      -1.945  -3.164   7.239  0.00  0.00    -0.010 C 
ATOM      9  C   UNL     1      -2.454  -1.187   5.841  0.00  0.00    -0.010 C 
ATOM     10  C   UNL     1       2.258  -1.471   6.378  0.00  0.00    -0.010 C 
ATOM     11  C   UNL     1       1.222  -3.393   7.544  0.00  0.00    -0.010 C 
ATOM     12  H   UNL     1      -0.236  -1.295   7.396  0.00  0.00    -0.084 HD
ATOM     13  H   UNL     1      -0.044  -0.829   5.851  0.00  0.00    -0.084 HD
ENDBRANCH   1   2
BRANCH   1  14
ATOM     14  C   UNL     1      -0.011  -4.141   2.427  0.00  0.00    +0.138 C 
ATOM     15  S   UNL     1      -0.013  -5.002   0.946  0.00  0.00    -0.018 S 
BRANCH  14  16
ATOM     16  N   UNL     1       0.010  -2.794   2.423  0.00  0.00    -0.296 N 
ATOM     17  H   UNL     1       0.090  -2.308   3.258  0.00  0.00    +0.154 HD
BRANCH  16  23
ATOM     18  C   UNL     1      -2.146   0.688  -0.301  0.00  0.00    +0.045 C 
ATOM     19  C   UNL     1      -1.120  -0.403  -0.135  0.00  0.00    -0.030 A 
ATOM     20  C   UNL     1      -0.269  -0.716  -1.179  0.00  0.00    +0.005 A 
ATOM     21  C   UNL     1       0.673  -1.717  -1.030  0.00  0.00    +0.002 A 
ATOM     22  C   UNL     1       0.768  -2.408   0.163  0.00  0.00    +0.025 A 
ATOM     23  C   UNL     1      -0.084  -2.096   1.213  0.00  0.00    +0.051 A 
ATOM     24  C   UNL     1      -1.027  -1.086   1.063  0.00  0.00    +0.065 A 
ATOM     25 CL   UNL     1      -2.091  -0.688   2.376  0.00  0.00    -0.081 Cl
ENDBRANCH  16  23
ENDBRANCH  14  16
ENDBRANCH   1  14
BRANCH   1  26
ATOM     26  C   UNL     1       0.034  -6.275   3.602  0.00  0.00    +0.162 C 
BRANCH  26  27
ATOM     27  C   UNL     1       1.475  -6.713   3.666  0.00  0.00    +0.058 A 
ATOM     28  C   UNL     1       2.044  -7.014   4.889  0.00  0.00    +0.025 A 
ATOM     29  C   UNL     1       3.370  -7.415   4.937  0.00  0.00    +0.003 A 
ATOM     30  C   UNL     1       4.077  -7.499   3.747  0.00  0.00    +0.020 A 
ATOM     31  C   UNL     1       3.442  -7.182   2.562  0.00  0.00    +0.111 A 
ATOM     32  N   UNL     1       2.177  -6.809   2.554  0.00  0.00    -0.258 NA
ENDBRANCH  26  27
ENDBRANCH   1  26
TORSDOF 6
