REMARK  Name = ZINC60343200
REMARK  7 active torsions:
REMARK  status: ('A' for Active; 'I' for Inactive)
REMARK    1  A    between atoms: C_3  and  C_8
REMARK    2  A    between atoms: C_5  and  O_7
REMARK    3  A    between atoms: C_8  and  N_9
REMARK    4  A    between atoms: N_9  and  C_10
REMARK    5  A    between atoms: N_9  and  C_22
REMARK    6  A    between atoms: C_10  and  C_11
REMARK    7  A    between atoms: C_25  and  O_28
REMARK                            x       y       z     vdW  Elec       q    Type
REMARK                         _______ _______ _______ _____ _____    ______ ____
ROOT
ATOM      1  N   UNL     1       3.953   2.568   1.293  0.00  0.00    +0.387 N 
ATOM      2  H   UNL     1       3.124   2.786   1.825  0.00  0.00    -0.080 HD
ENDROOT
BRANCH   1   3
ATOM      3  C   UNL     1       4.538   1.315   1.790  0.00  0.00    -0.068 C 
ATOM      4  C   UNL     1       5.556   0.790   0.776  0.00  0.00    -0.013 C 
ATOM      5  C   UNL     1       6.165  -0.514   1.294  0.00  0.00    +0.030 C 
ATOM      6  C   UNL     1       5.058  -1.552   1.488  0.00  0.00    +0.114 C 
ATOM      7  C   UNL     1       4.040  -1.027   2.502  0.00  0.00    +0.030 C 
ATOM      8  C   UNL     1       3.431   0.278   1.985  0.00  0.00    -0.013 C 
BRANCH   6   9
ATOM      9  O   UNL     1       5.627  -2.770   1.972  0.00  0.00    -0.392 OA
ATOM     10  H   UNL     1       4.981  -3.475   2.118  0.00  0.00    +0.210 HD
ENDBRANCH   6   9
ENDBRANCH   1   3
BRANCH   1  11
ATOM     11  C   UNL     1       3.600   2.415  -0.124  0.00  0.00    -0.042 C 
BRANCH  11  14
ATOM     12  C   UNL     1       0.175   0.850   0.159  0.00  0.00    +0.004 A 
ATOM     13  C   UNL     1       1.222   1.744   0.278  0.00  0.00    +0.002 A 
ATOM     14  C   UNL     1       2.460   1.437  -0.255  0.00  0.00    -0.060 A 
ATOM     15  C   UNL     1       2.654   0.235  -0.908  0.00  0.00    +0.047 A 
ATOM     16  C   UNL     1       1.605  -0.664  -1.028  0.00  0.00    +0.117 A 
ATOM     17  C   UNL     1       0.363  -0.354  -0.492  0.00  0.00    +0.045 A 
BRANCH  16  18
ATOM     18  O   UNL     1       1.792  -1.847  -1.670  0.00  0.00    -0.507 OA
ATOM     19  H   UNL     1       2.082  -2.566  -1.093  0.00  0.00    +0.292 HD
ENDBRANCH  16  18
ENDBRANCH  11  14
ENDBRANCH   1  11
BRANCH   1  20
ATOM     20  C   UNL     1       4.929   3.656   1.440  0.00  0.00    -0.040 C 
BRANCH  20  21
ATOM     21  C   UNL     1       5.142   3.946   2.903  0.00  0.00    -0.038 A 
ATOM     22  C   UNL     1       4.375   4.877   3.534  0.00  0.00    +0.005 A 
ATOM     23  C   UNL     1       4.554   5.161   4.885  0.00  0.00    +0.021 A 
ATOM     24  C   UNL     1       5.505   4.514   5.615  0.00  0.00    +0.050 A 
ATOM     25  C   UNL     1       6.316   3.547   4.997  0.00  0.00    +0.019 A 
ATOM     26  C   UNL     1       6.130   3.252   3.623  0.00  0.00    +0.074 A 
ATOM     27  N   UNL     1       6.895   2.329   3.031  0.00  0.00    -0.255 NA
ATOM     28  C   UNL     1       7.818   1.680   3.698  0.00  0.00    +0.111 A 
ATOM     29  C   UNL     1       8.048   1.916   5.052  0.00  0.00    +0.020 A 
ATOM     30  C   UNL     1       7.310   2.856   5.715  0.00  0.00    +0.013 A 
ATOM     31 CL   UNL     1       5.715   4.882   7.299  0.00  0.00    -0.083 Cl
ENDBRANCH  20  21
ENDBRANCH   1  20
TORSDOF 7
