REMARK  Name = ZINC50042416
REMARK  5 active torsions:
REMARK  status: ('A' for Active; 'I' for Inactive)
REMARK    1  A    between atoms: C_1  and  C_2
REMARK    2  A    between atoms: C_7  and  C_9
REMARK    3  A    between atoms: C_7  and  N_22
REMARK    4  A    between atoms: C_11  and  C_14
REMARK    5  A    between atoms: C_14  and  C_15
REMARK                            x       y       z     vdW  Elec       q    Type
REMARK                         _______ _______ _______ _____ _____    ______ ____
ROOT
ATOM      1  C   UNL     1       2.674  -1.459   2.329  0.00  0.00    +0.161 A 
ATOM      2  N   UNL     1       3.950  -1.614   2.699  0.00  0.00    -0.197 NA
ATOM      3  C   UNL     1       4.031  -2.462   3.686  0.00  0.00    +0.232 A 
ATOM      4  O   UNL     1       2.794  -2.881   3.980  0.00  0.00    -0.338 OA
ATOM      5  N   UNL     1       1.923  -2.208   3.084  0.00  0.00    -0.063 NA
ENDROOT
BRANCH   1  11
ATOM      6  C   UNL     1      -0.019   1.524   0.010  0.00  0.00    +0.007 C 
ATOM      7  C   UNL     1       0.002  -0.004   0.002  0.00  0.00    -0.015 C 
ATOM      8  C   UNL     1       0.627  -0.525  -1.285  0.00  0.00    +0.003 C 
ATOM      9  C   UNL     1       2.141  -0.325  -1.273  0.00  0.00    -0.001 C 
ATOM     10  C   UNL     1       2.734  -1.097  -0.096  0.00  0.00    -0.005 C 
ATOM     11  C   UNL     1       2.185  -0.560   1.223  0.00  0.00    -0.006 C 
ATOM     12  C   UNL     1       0.666  -0.561   1.247  0.00  0.00    -0.002 C 
BRANCH  11  13
ATOM     13  N   UNL     1       2.717   0.786   1.476  0.00  0.00    +0.387 N 
ATOM     14  H   UNL     1       2.443   1.403   0.727  0.00  0.00    -0.089 HD
ATOM     15  H   UNL     1       2.350   1.133   2.349  0.00  0.00    -0.089 HD
ATOM     16  H   UNL     1       3.724   0.745   1.528  0.00  0.00    -0.089 HD
ENDBRANCH  11  13
ENDBRANCH   1  11
BRANCH   3  17
ATOM     17  C   UNL     1       5.298  -2.897   4.376  0.00  0.00    +0.134 C 
BRANCH  17  18
ATOM     18  C   UNL     1       5.581  -1.975   5.534  0.00  0.00    -0.037 A 
ATOM     19  C   UNL     1       6.342  -0.837   5.343  0.00  0.00    +0.004 A 
ATOM     20  C   UNL     1       6.601   0.009   6.405  0.00  0.00    +0.001 A 
ATOM     21  C   UNL     1       6.099  -0.283   7.660  0.00  0.00    +0.015 A 
ATOM     22  C   UNL     1       5.337  -1.421   7.851  0.00  0.00    +0.018 A 
ATOM     23  C   UNL     1       5.073  -2.264   6.787  0.00  0.00    +0.019 A 
ATOM     24 BR   UNL     1       4.650  -1.821   9.567  0.00  0.00    -0.050 Br
ENDBRANCH  17  18
ENDBRANCH   3  17
TORSDOF 4
