REMARK  Name = ZINC16890269
REMARK  2 active torsions:
REMARK  status: ('A' for Active; 'I' for Inactive)
REMARK    1  A    between atoms: C_4  and  C_7
REMARK    2  A    between atoms: C_7  and  C_8
REMARK                            x       y       z     vdW  Elec       q    Type
REMARK                         _______ _______ _______ _____ _____    ______ ____
ROOT
ATOM      1  C   UNL     1      -0.761   1.454   3.743  0.00  0.00    +0.220 C 
ATOM      2  O   UNL     1      -1.800   2.070   3.643  0.00  0.00    -0.275 OA
ATOM      3  N   UNL     1      -0.296   1.110   4.960  0.00  0.00    -0.255 N 
ATOM      4  C   UNL     1      -1.009   1.462   6.103  0.00  0.00    +0.224 A 
ATOM      5  N   UNL     1      -2.131   2.127   6.123  0.00  0.00    -0.112 NA
ATOM      6  N   UNL     1      -2.522   2.274   7.459  0.00  0.00    -0.121 NA
ATOM      7  C   UNL     1      -1.615   1.697   8.200  0.00  0.00    +0.193 A 
ATOM      8  N   UNL     1      -0.639   1.169   7.409  0.00  0.00    -0.289 N 
ATOM      9  C   UNL     1       0.477   0.475   8.050  0.00  0.00    +0.138 C 
ATOM     10  C   UNL     1       0.398   0.433   9.584  0.00  0.00    +0.099 C 
ATOM     11  S   UNL     1      -1.168   1.336   9.882  0.00  0.00    -0.084 S 
ATOM     12  H   UNL     1       0.647   0.551   5.051  0.00  0.00    +0.158 HD
ENDROOT
BRANCH   1  13
ATOM     13  C   UNL     1       0.011   1.072   2.506  0.00  0.00    +0.099 C 
BRANCH  13  17
ATOM     14  C   UNL     1      -0.773   3.123  -1.223  0.00  0.00    +0.000 C 
ATOM     15  C   UNL     1      -0.753   1.593  -1.232  0.00  0.00    +0.000 C 
ATOM     16  C   UNL     1      -0.013   1.086   0.008  0.00  0.00    +0.004 C 
ATOM     17  C   UNL     1      -0.729   1.579   1.267  0.00  0.00    -0.002 C 
ATOM     18  C   UNL     1      -0.750   3.109   1.275  0.00  0.00    +0.004 C 
ATOM     19  C   UNL     1      -1.490   3.616   0.036  0.00  0.00    +0.000 C 
ENDBRANCH  13  17
ENDBRANCH   1  13
TORSDOF 2
