REMARK  Name = ZINC09727943
REMARK  8 active torsions:
REMARK  status: ('A' for Active; 'I' for Inactive)
REMARK    1  A    between atoms: C_1  and  C_2
REMARK    2  A    between atoms: C_2  and  C_4
REMARK    3  A    between atoms: C_2  and  S_19
REMARK    4  A    between atoms: N_6  and  C_7
REMARK    5  A    between atoms: C_8  and  C_17
REMARK    6  A    between atoms: S_19  and  C_20
REMARK    7  A    between atoms: N_24  and  C_25
REMARK    8  A    between atoms: C_28  and  O_31
REMARK                            x       y       z     vdW  Elec       q    Type
REMARK                         _______ _______ _______ _____ _____    ______ ____
ROOT
ATOM      1  C   UNL     1      -1.826  -2.731   2.947  0.00  0.00    +0.029 C 
ATOM      2  C   UNL     1      -2.863  -2.015   2.079  0.00  0.00    +0.137 C 
ENDROOT
BRANCH   2   3
ATOM      3  C   UNL     1      -4.147  -1.864   2.853  0.00  0.00    +0.231 C 
ATOM      4  O   UNL     1      -4.415  -0.808   3.386  0.00  0.00    -0.274 OA
ATOM      5  N   UNL     1      -4.999  -2.904   2.954  0.00  0.00    -0.278 N 
ATOM      6  H   UNL     1      -4.786  -3.749   2.528  0.00  0.00    +0.155 HD
BRANCH   5   7
ATOM      7  C   UNL     1      -6.182  -2.765   3.666  0.00  0.00    +0.090 A 
ATOM      8  C   UNL     1      -7.174  -3.708   3.880  0.00  0.00    +0.084 A 
ATOM      9  C   UNL     1      -8.329  -3.311   4.673  0.00  0.00    -0.018 A 
ATOM     10  C   UNL     1      -8.304  -2.034   5.113  0.00  0.00    -0.004 A 
ATOM     11  S   UNL     1      -6.774  -1.374   4.511  0.00  0.00    -0.077 S 
ATOM     12  C   UNL     1      -9.339  -1.327   5.931  0.00  0.00    +0.043 C 
ATOM     13  C   UNL     1      -9.720  -2.204   7.132  0.00  0.00    +0.005 C 
ATOM     14  C   UNL     1     -10.874  -3.112   6.721  0.00  0.00    +0.001 C 
ATOM     15  C   UNL     1     -10.752  -3.482   5.244  0.00  0.00    +0.005 C 
ATOM     16  C   UNL     1      -9.469  -4.268   4.995  0.00  0.00    +0.037 C 
BRANCH   8  17
ATOM     17  C   UNL     1      -7.068  -5.030   3.339  0.00  0.00    +0.102 C 
ATOM     18  N   UNL     1      -6.983  -6.078   2.910  0.00  0.00    -0.191 NA
ENDBRANCH   8  17
ENDBRANCH   5   7
ENDBRANCH   2   3
BRANCH   2  19
ATOM     19  S   UNL     1      -2.239  -0.378   1.622  0.00  0.00    -0.072 S 
BRANCH  19  20
ATOM     20  C   UNL     1      -0.860  -0.843   0.628  0.00  0.00    +0.215 A 
ATOM     21  N   UNL     1      -0.474  -2.070   0.351  0.00  0.00    -0.101 NA
ATOM     22  N   UNL     1       0.571  -2.055  -0.395  0.00  0.00    -0.022 NA
ATOM     23  N   UNL     1       0.922  -0.842  -0.651  0.00  0.00    -0.038 NA
ATOM     24  N   UNL     1       0.002  -0.004   0.002  0.00  0.00    -0.187 N 
BRANCH  24  25
ATOM     25  C   UNL     1      -0.017   1.399   0.010  0.00  0.00    +0.070 A 
ATOM     26  C   UNL     1      -1.228   2.077   0.019  0.00  0.00    +0.031 A 
ATOM     27  C   UNL     1      -1.247   3.458   0.033  0.00  0.00    +0.047 A 
ATOM     28  C   UNL     1      -0.054   4.167   0.025  0.00  0.00    +0.117 A 
ATOM     29  C   UNL     1       1.156   3.490   0.010  0.00  0.00    +0.047 A 
ATOM     30  C   UNL     1       1.176   2.110   0.002  0.00  0.00    +0.031 A 
BRANCH  28  31
ATOM     31  O   UNL     1      -0.073   5.527   0.032  0.00  0.00    -0.507 OA
ATOM     32  H   UNL     1      -0.087   5.924  -0.849  0.00  0.00    +0.292 HD
ENDBRANCH  28  31
ENDBRANCH  24  25
ENDBRANCH  19  20
ENDBRANCH   2  19
TORSDOF 7
