REMARK  Name = ZINC19238912
REMARK  7 active torsions:
REMARK  status: ('A' for Active; 'I' for Inactive)
REMARK    1  A    between atoms: C_1  and  C_2
REMARK    2  A    between atoms: C_5  and  C_8
REMARK    3  A    between atoms: C_15  and  C_17
REMARK    4  A    between atoms: C_22  and  C_31
REMARK    5  A    between atoms: C_25  and  C_28
REMARK    6  A    between atoms: C_28  and  C_29
REMARK    7  A    between atoms: C_28  and  C_30
REMARK                            x       y       z     vdW  Elec       q    Type
REMARK                         _______ _______ _______ _____ _____    ______ ____
ROOT
ATOM      1  C   UNL     1       1.132   1.924   0.130  0.00  0.00    +0.085 A 
ATOM      2  C   UNL     1       0.583   2.470   1.297  0.00  0.00    +0.070 A 
ATOM      3  C   UNL     1      -0.716   2.746   1.049  0.00  0.00    +0.118 A 
ATOM      4  N   UNL     1      -0.980   2.393  -0.237  0.00  0.00    -0.239 N 
ATOM      5  N   UNL     1       0.194   1.880  -0.786  0.00  0.00    -0.172 NA
ATOM      6  C   UNL     1      -2.292   2.546  -0.870  0.00  0.00    +0.214 C 
ATOM      7  C   UNL     1      -3.358   2.687   0.223  0.00  0.00    +0.058 C 
ATOM      8  C   UNL     1      -2.928   3.755   1.235  0.00  0.00    +0.077 C 
ATOM      9  N   UNL     1      -1.681   3.309   1.887  0.00  0.00    -0.326 N 
ATOM     10  H   UNL     1      -1.555   3.429   2.973  0.00  0.00    +0.148 HD
ENDROOT
BRANCH   1  18
ATOM     11  C   UNL     1       1.485  -0.731   0.107  0.00  0.00    +0.267 C 
ATOM     12  O   UNL     1       0.410  -0.177   0.229  0.00  0.00    -0.268 OA
ATOM     13  N   UNL     1       2.597  -0.002  -0.115  0.00  0.00    -0.288 N 
ATOM     14  C   UNL     1       3.872  -0.658  -0.435  0.00  0.00    +0.109 C 
ATOM     15  C   UNL     1       4.426  -0.060  -1.732  0.00  0.00    +0.019 C 
ATOM     16  C   UNL     1       4.521   1.460  -1.587  0.00  0.00    +0.004 C 
ATOM     17  C   UNL     1       3.126   2.040  -1.346  0.00  0.00    +0.029 C 
ATOM     18  C   UNL     1       2.557   1.465  -0.045  0.00  0.00    +0.127 C 
BRANCH  11  23
ATOM     19  C   UNL     1       1.769  -6.378   0.467  0.00  0.00    +0.067 C 
ATOM     20  C   UNL     1       1.678  -4.877   0.371  0.00  0.00    +0.056 A 
ATOM     21  C   UNL     1       2.837  -4.114   0.336  0.00  0.00    +0.134 A 
ATOM     22  N   UNL     1       2.762  -2.802   0.248  0.00  0.00    -0.247 NA
ATOM     23  C   UNL     1       1.573  -2.206   0.201  0.00  0.00    +0.144 A 
ATOM     24  C   UNL     1       0.411  -2.975   0.236  0.00  0.00    +0.144 A 
ATOM     25  N   UNL     1       0.495  -4.291   0.320  0.00  0.00    -0.256 NA
ENDBRANCH  11  23
ENDBRANCH   1  18
BRANCH   6  26
ATOM     26  C   UNL     1      -2.595   1.313  -1.724  0.00  0.00    +0.412 C 
ATOM     27  F   UNL     1      -2.599   0.173  -0.914  0.00  0.00    -0.168 F 
ATOM     28  F   UNL     1      -3.849   1.461  -2.328  0.00  0.00    -0.168 F 
ATOM     29  F   UNL     1      -1.614   1.179  -2.713  0.00  0.00    -0.168 F 
ENDBRANCH   6  26
BRANCH   8  30
ATOM     30  C   UNL     1      -4.023   3.935   2.288  0.00  0.00    +0.003 C 
ATOM     31  C   UNL     1      -3.590   5.002   3.296  0.00  0.00    +0.009 C 
ATOM     32  C   UNL     1      -5.320   4.374   1.606  0.00  0.00    +0.009 C 
ENDBRANCH   8  30
TORSDOF 4
