REMARK  Name = ZINC66504461
REMARK  4 active torsions:
REMARK  status: ('A' for Active; 'I' for Inactive)
REMARK    1  A    between atoms: C_4  and  C_7
REMARK    2  A    between atoms: C_10  and  C_12
REMARK    3  A    between atoms: N_14  and  S_15
REMARK    4  A    between atoms: S_15  and  C_18
REMARK                            x       y       z     vdW  Elec       q    Type
REMARK                         _______ _______ _______ _____ _____    ______ ____
ROOT
ATOM      1  S   UNL     1       0.947  -2.865   3.345  0.00  0.00    +0.102 S 
ATOM      2  O   UNL     1       1.637  -3.183   4.545  0.00  0.00    -0.146 OA
ATOM      3  O   UNL     1       0.106  -1.725   3.228  0.00  0.00    -0.146 OA
ENDROOT
BRANCH   1   4
ATOM      4  C   UNL     1      -0.047  -4.266   2.949  0.00  0.00    +0.113 A 
ATOM      5  C   UNL     1      -1.169  -4.114   2.156  0.00  0.00    +0.031 A 
ATOM      6  C   UNL     1      -1.950  -5.209   1.844  0.00  0.00    +0.025 A 
ATOM      7  C   UNL     1      -1.607  -6.464   2.328  0.00  0.00    +0.037 A 
ATOM      8  C   UNL     1      -0.479  -6.614   3.124  0.00  0.00    -0.024 A 
ATOM      9  C   UNL     1       0.301  -5.515   3.428  0.00  0.00    +0.034 A 
ATOM     10  C   UNL     1      -0.106  -7.976   3.648  0.00  0.00    +0.046 C 
ATOM     11  C   UNL     1      -1.375  -8.780   3.931  0.00  0.00    +0.101 C 
ATOM     12  C   UNL     1      -2.305  -8.702   2.750  0.00  0.00    +0.218 C 
ATOM     13  O   UNL     1      -2.983  -9.664   2.456  0.00  0.00    -0.275 OA
ATOM     14  N   UNL     1      -2.393  -7.578   2.015  0.00  0.00    -0.285 N 
ATOM     15  H   UNL     1      -3.005  -7.539   1.265  0.00  0.00    +0.155 HD
ENDBRANCH   1   4
BRANCH   1  18
ATOM     16  C   UNL     1       2.963  -1.775   2.208  0.00  0.00    +0.268 C 
ATOM     17  O   UNL     1       2.933  -0.888   3.223  0.00  0.00    -0.269 OA
ATOM     18  N   UNL     1       2.095  -2.729   2.159  0.00  0.00    -0.090 NA
BRANCH  16  21
ATOM     19  C   UNL     1       3.711  -0.707  -0.038  0.00  0.00    +0.032 C 
ATOM     20  C   UNL     1       3.671  -2.222  -0.251  0.00  0.00    +0.022 C 
ATOM     21  C   UNL     1       4.008  -1.652   1.129  0.00  0.00    +0.089 C 
BRANCH  19  25
ATOM     22  C   UNL     1      -0.017   1.378   0.010  0.00  0.00    +0.000 A 
ATOM     23  C   UNL     1       1.171   2.086   0.002  0.00  0.00    +0.000 A 
ATOM     24  C   UNL     1       2.377   1.411  -0.013  0.00  0.00    +0.004 A 
ATOM     25  C   UNL     1       2.396   0.029  -0.020  0.00  0.00    -0.044 A 
ATOM     26  C   UNL     1       1.208  -0.679  -0.012  0.00  0.00    +0.004 A 
ATOM     27  C   UNL     1       0.002  -0.004   0.002  0.00  0.00    +0.000 A 
ENDBRANCH  19  25
ENDBRANCH  16  21
ENDBRANCH   1  18
TORSDOF 4
