REMARK  Name = ZINC39675707
REMARK  9 active torsions:
REMARK  status: ('A' for Active; 'I' for Inactive)
REMARK    1  A    between atoms: C_1  and  N_2
REMARK    2  A    between atoms: N_2  and  C_3
REMARK    3  A    between atoms: N_2  and  C_4
REMARK    4  A    between atoms: C_4  and  C_6
REMARK    5  A    between atoms: C_4  and  C_31
REMARK    6  A    between atoms: C_6  and  N_7
REMARK    7  A    between atoms: C_8  and  C_10
REMARK    8  A    between atoms: C_21  and  C_23
REMARK    9  A    between atoms: C_23  and  C_24
REMARK                            x       y       z     vdW  Elec       q    Type
REMARK                         _______ _______ _______ _____ _____    ______ ____
ROOT
ATOM      1  C   UNL     1       0.341  -2.926   3.203  0.00  0.00    +0.100 C 
ATOM      2  C   UNL     1       1.631  -2.077   3.250  0.00  0.00    +0.121 C 
ATOM      3  N   UNL     1       2.646  -2.972   3.854  0.00  0.00    -0.300 N 
ATOM      4  C   UNL     1       2.366  -4.301   3.260  0.00  0.00    +0.115 C 
ATOM      5  C   UNL     1       0.827  -4.385   3.209  0.00  0.00    -0.004 C 
ATOM      6  C   UNL     1       0.297  -5.114   4.440  0.00  0.00    -0.010 C 
ATOM      7  C   UNL     1       0.747  -6.577   4.395  0.00  0.00    -0.082 C 
ATOM      8  N   UNL     1       0.240  -7.209   3.171  0.00  0.00    +0.379 N 
ATOM      9  C   UNL     1       0.827  -6.561   1.992  0.00  0.00    -0.082 C 
ATOM     10  C   UNL     1       0.381  -5.097   1.936  0.00  0.00    -0.010 C 
ATOM     11  C   UNL     1       3.606  -2.650   4.743  0.00  0.00    +0.220 C 
ATOM     12  O   UNL     1       4.369  -3.502   5.147  0.00  0.00    -0.275 OA
ATOM     13  H   UNL     1       0.486  -8.187   3.173  0.00  0.00    -0.086 HD
ATOM     14  H   UNL     1      -0.764  -7.117   3.138  0.00  0.00    -0.086 HD
ENDROOT
BRANCH   1  16
ATOM     15  N   UNL     1      -1.773  -2.774   1.926  0.00  0.00    -0.316 N 
ATOM     16  C   UNL     1      -0.432  -2.637   1.942  0.00  0.00    +0.218 C 
ATOM     17  O   UNL     1       0.152  -2.280   0.941  0.00  0.00    -0.275 OA
ATOM     18  H   UNL     1      -2.240  -3.060   2.727  0.00  0.00    +0.149 HD
BRANCH  15  19
ATOM     19  C   UNL     1      -2.524  -2.493   0.700  0.00  0.00    +0.093 C 
BRANCH  19  20
ATOM     20  C   UNL     1      -3.997  -2.847   0.912  0.00  0.00    -0.021 C 
BRANCH  20  21
ATOM     21  C   UNL     1      -4.131  -4.333   1.126  0.00  0.00    -0.059 A 
ATOM     22  C   UNL     1      -4.110  -5.191   0.042  0.00  0.00    +0.002 A 
ATOM     23  C   UNL     1      -4.233  -6.554   0.238  0.00  0.00    +0.000 A 
ATOM     24  C   UNL     1      -4.375  -7.059   1.517  0.00  0.00    +0.000 A 
ATOM     25  C   UNL     1      -4.395  -6.200   2.601  0.00  0.00    +0.000 A 
ATOM     26  C   UNL     1      -4.268  -4.838   2.405  0.00  0.00    +0.002 A 
ENDBRANCH  20  21
BRANCH  20  28
ATOM     27  C   UNL     1      -6.177  -2.836  -0.089  0.00  0.00    -0.096 C 
ATOM     28  N   UNL     1      -4.771  -2.451  -0.272  0.00  0.00    +0.382 N 
ATOM     29  C   UNL     1      -4.681  -0.996  -0.451  0.00  0.00    -0.096 C 
ATOM     30  H   UNL     1      -4.399  -2.914  -1.087  0.00  0.00    -0.082 HD
ENDBRANCH  20  28
ENDBRANCH  19  20
ENDBRANCH  15  19
ENDBRANCH   1  16
BRANCH  11  31
ATOM     31  C   UNL     1       3.733  -1.231   5.234  0.00  0.00    +0.131 C 
BRANCH  31  32
ATOM     32  C   UNL     1       4.876  -1.138   6.213  0.00  0.00    -0.039 A 
ATOM     33  C   UNL     1       4.650  -1.346   7.561  0.00  0.00    +0.005 A 
ATOM     34  C   UNL     1       5.697  -1.261   8.458  0.00  0.00    +0.020 A 
ATOM     35  C   UNL     1       6.972  -0.969   8.008  0.00  0.00    +0.041 A 
ATOM     36  C   UNL     1       7.198  -0.761   6.659  0.00  0.00    +0.020 A 
ATOM     37  C   UNL     1       6.151  -0.852   5.761  0.00  0.00    +0.005 A 
ATOM     38 CL   UNL     1       8.289  -0.861   9.135  0.00  0.00    -0.084 Cl
ENDBRANCH  31  32
ENDBRANCH  11  31
TORSDOF 7
