REMARK  Name = ZINC12467583
REMARK  20 active torsions:
REMARK  status: ('A' for Active; 'I' for Inactive)
REMARK    1  A    between atoms: C_1  and  C_2
REMARK    2  A    between atoms: C_2  and  C_3
REMARK    3  A    between atoms: C_2  and  C_4
REMARK    4  A    between atoms: C_2  and  C_18
REMARK    5  A    between atoms: C_7  and  O_10
REMARK    6  A    between atoms: O_10  and  C_11
REMARK    7  A    between atoms: C_11  and  C_12
REMARK    8  A    between atoms: C_12  and  C_14
REMARK    9  A    between atoms: C_12  and  O_17
REMARK   10  A    between atoms: C_14  and  N_68
REMARK   11  A    between atoms: C_15  and  N_68
REMARK   12  A    between atoms: C_16  and  N_68
REMARK   13  A    between atoms: C_21  and  O_24
REMARK   14  A    between atoms: O_24  and  C_25
REMARK   15  A    between atoms: C_25  and  C_26
REMARK   16  A    between atoms: C_26  and  C_28
REMARK   17  A    between atoms: C_26  and  O_31
REMARK   18  A    between atoms: C_28  and  N_70
REMARK   19  A    between atoms: C_29  and  N_70
REMARK   20  A    between atoms: C_30  and  N_70
REMARK                            x       y       z     vdW  Elec       q    Type
REMARK                         _______ _______ _______ _____ _____    ______ ____
ROOT
ATOM      1  C   UNL     1       4.041  10.243   2.301  0.00  0.00    +0.021 C 
ATOM      2  C   UNL     1       3.258   9.249   1.441  0.00  0.00    +0.015 C 
ATOM      3  C   UNL     1       3.666   9.412  -0.025  0.00  0.00    +0.021 C 
ENDROOT
BRANCH   2   4
ATOM      4  C   UNL     1       3.562   7.844   1.894  0.00  0.00    -0.037 A 
ATOM      5  C   UNL     1       3.279   7.462   3.192  0.00  0.00    +0.008 A 
ATOM      6  C   UNL     1       3.557   6.174   3.610  0.00  0.00    +0.046 A 
ATOM      7  C   UNL     1       4.119   5.265   2.725  0.00  0.00    +0.121 A 
ATOM      8  C   UNL     1       4.407   5.654   1.425  0.00  0.00    +0.046 A 
ATOM      9  C   UNL     1       4.122   6.940   1.010  0.00  0.00    +0.008 A 
BRANCH   7  10
ATOM     10  O   UNL     1       4.393   3.998   3.134  0.00  0.00    -0.489 OA
BRANCH  10  11
ATOM     11  C   UNL     1       4.972   3.117   2.169  0.00  0.00    +0.258 C 
BRANCH  11  12
ATOM     12  C   UNL     1       5.207   1.746   2.808  0.00  0.00    +0.135 C 
BRANCH  12  13
ATOM     13  O   UNL     1       6.182   1.865   3.845  0.00  0.00    -0.390 OA
ATOM     14  H   UNL     1       7.041   2.190   3.542  0.00  0.00    +0.210 HD
ENDBRANCH  12  13
BRANCH  12  15
ATOM     15  C   UNL     1       5.710   0.768   1.744  0.00  0.00    -0.045 C 
BRANCH  15  18
ATOM     16  C   UNL     1       4.710  -1.217   2.707  0.00  0.00    -0.096 C 
ATOM     17  C   UNL     1       6.799  -1.380   1.492  0.00  0.00    -0.096 C 
ATOM     18  N   UNL     1       5.982  -0.534   2.389  0.00  0.00    +0.378 N 
ATOM     19  H   UNL     1       6.502  -0.373   3.260  0.00  0.00    -0.083 HD
ENDBRANCH  15  18
ENDBRANCH  12  15
ENDBRANCH  11  12
ENDBRANCH  10  11
ENDBRANCH   7  10
ENDBRANCH   2   4
BRANCH   2  20
ATOM     20  C   UNL     1       1.782   9.515   1.584  0.00  0.00    -0.037 A 
ATOM     21  C   UNL     1       0.923   8.482   1.913  0.00  0.00    +0.008 A 
ATOM     22  C   UNL     1      -0.430   8.725   2.050  0.00  0.00    +0.046 A 
ATOM     23  C   UNL     1      -0.928  10.003   1.846  0.00  0.00    +0.121 A 
ATOM     24  C   UNL     1      -0.066  11.037   1.511  0.00  0.00    +0.046 A 
ATOM     25  C   UNL     1       1.287  10.790   1.381  0.00  0.00    +0.008 A 
BRANCH  23  26
ATOM     26  O   UNL     1      -2.260  10.243   1.976  0.00  0.00    -0.489 OA
BRANCH  26  27
ATOM     27  C   UNL     1      -3.088   9.132   2.323  0.00  0.00    +0.258 C 
BRANCH  27  28
ATOM     28  C   UNL     1      -4.544   9.593   2.422  0.00  0.00    +0.135 C 
BRANCH  28  29
ATOM     29  O   UNL     1      -4.999  10.016   1.136  0.00  0.00    -0.390 OA
ATOM     30  H   UNL     1      -4.964   9.325   0.459  0.00  0.00    +0.210 HD
ENDBRANCH  28  29
BRANCH  28  31
ATOM     31  C   UNL     1      -5.413   8.434   2.915  0.00  0.00    -0.045 C 
BRANCH  31  34
ATOM     32  C   UNL     1      -7.716   7.754   3.228  0.00  0.00    -0.096 C 
ATOM     33  C   UNL     1      -6.928   9.836   4.181  0.00  0.00    -0.096 C 
ATOM     34  N   UNL     1      -6.809   8.905   3.039  0.00  0.00    +0.378 N 
ATOM     35  H   UNL     1      -7.072   9.399   2.178  0.00  0.00    -0.083 HD
ENDBRANCH  31  34
ENDBRANCH  28  31
ENDBRANCH  27  28
ENDBRANCH  26  27
ENDBRANCH  23  26
ENDBRANCH   2  20
TORSDOF 14
