REMARK  Name = ZINC48707010
REMARK  8 active torsions:
REMARK  status: ('A' for Active; 'I' for Inactive)
REMARK    1  A    between atoms: C_1  and  C_2
REMARK    2  A    between atoms: C_2  and  C_3
REMARK    3  A    between atoms: C_2  and  C_4
REMARK    4  A    between atoms: C_2  and  C_5
REMARK    5  A    between atoms: C_7  and  C_10
REMARK    6  A    between atoms: C_10  and  O_11
REMARK    7  A    between atoms: O_11  and  N_12
REMARK    8  A    between atoms: C_13  and  C_14
REMARK                            x       y       z     vdW  Elec       q    Type
REMARK                         _______ _______ _______ _____ _____    ______ ____
ROOT
ATOM      1  O   UNL     1       4.081  -1.161  -4.418  0.00  0.00    -0.386 OA
ENDROOT
BRANCH   1   2
ATOM      2  N   UNL     1       5.393  -0.980  -4.918  0.00  0.00    -0.068 NA
ATOM      3  C   UNL     1       5.742  -1.531  -6.048  0.00  0.00    +0.169 C 
ATOM      4  N   UNL     1       7.027  -1.353  -6.538  0.00  0.00    -0.340 N 
ATOM      5  H   UNL     1       7.666  -0.819  -6.041  0.00  0.00    +0.144 HD
ATOM      6  H   UNL     1       7.286  -1.763  -7.378  0.00  0.00    +0.144 HD
BRANCH   3   7
ATOM      7  C   UNL     1       4.772  -2.341  -6.802  0.00  0.00    +0.056 A 
ATOM      8  C   UNL     1       4.938  -3.002  -7.993  0.00  0.00    +0.034 A 
ATOM      9  C   UNL     1       3.876  -3.704  -8.513  0.00  0.00    +0.026 A 
ATOM     10  C   UNL     1       2.697  -3.722  -7.834  0.00  0.00    +0.061 A 
ATOM     11  S   UNL     1       3.075  -2.725  -6.402  0.00  0.00    -0.093 S 
ATOM     12 BR   UNL     1       4.051  -4.633 -10.151  0.00  0.00    -0.050 Br
ENDBRANCH   3   7
ENDBRANCH   1   2
BRANCH   1  13
ATOM     13  C   UNL     1       3.838  -0.503  -3.173  0.00  0.00    +0.318 C 
BRANCH  13  16
ATOM     14  C   UNL     1       0.707  -0.490  -1.238  0.00  0.00    +0.084 A 
ATOM     15  N   UNL     1       1.941  -0.263  -1.614  0.00  0.00    -0.245 NA
ATOM     16  C   UNL     1       2.419  -0.762  -2.736  0.00  0.00    +0.089 A 
ATOM     17  C   UNL     1       1.574  -1.520  -3.482  0.00  0.00    +0.073 A 
ATOM     18  S   UNL     1       0.103  -1.462  -2.472  0.00  0.00    -0.080 S 
BRANCH  14  20
ATOM     19  C   UNL     1      -0.019   1.526   0.010  0.00  0.00    +0.017 C 
ATOM     20  C   UNL     1       0.002  -0.004   0.002  0.00  0.00    +0.011 C 
ATOM     21  C   UNL     1       0.742  -0.511   1.242  0.00  0.00    +0.017 C 
ATOM     22  C   UNL     1      -1.433  -0.534   0.013  0.00  0.00    +0.017 C 
ENDBRANCH  14  20
ENDBRANCH  13  16
ENDBRANCH   1  13
TORSDOF 5
