REMARK  Name = ZINC41114963
REMARK  8 active torsions:
REMARK  status: ('A' for Active; 'I' for Inactive)
REMARK    1  A    between atoms: C_1  and  C_2
REMARK    2  A    between atoms: C_5  and  C_8
REMARK    3  A    between atoms: C_8  and  C_10
REMARK    4  A    between atoms: C_8  and  C_13
REMARK    5  A    between atoms: C_10  and  C_11
REMARK    6  A    between atoms: C_10  and  C_12
REMARK    7  A    between atoms: C_21  and  S_25
REMARK    8  A    between atoms: S_25  and  N_28
REMARK                            x       y       z     vdW  Elec       q    Type
REMARK                         _______ _______ _______ _____ _____    ______ ____
ROOT
ATOM      1  C   UNL     1      -1.274  -4.776   0.752  0.00  0.00    +0.224 C 
ATOM      2  O   UNL     1      -2.143  -4.007   1.102  0.00  0.00    -0.275 OA
ATOM      3  N   UNL     1      -1.394  -6.093   1.010  0.00  0.00    -0.296 N 
ATOM      4  C   UNL     1      -2.512  -6.616   1.813  0.00  0.00    +0.113 C 
ATOM      5  C   UNL     1      -3.355  -7.518   0.912  0.00  0.00    +0.054 C 
ATOM      6  C   UNL     1      -2.482  -8.477   0.146  0.00  0.00    -0.041 A 
ATOM      7  C   UNL     1      -3.079  -9.619  -0.374  0.00  0.00    +0.006 A 
ATOM      8  C   UNL     1      -2.339 -10.533  -1.093  0.00  0.00    +0.029 A 
ATOM      9  C   UNL     1      -0.990 -10.313  -1.303  0.00  0.00    +0.105 A 
ATOM     10  C   UNL     1      -0.393  -9.182  -0.786  0.00  0.00    +0.034 A 
ATOM     11  C   UNL     1      -1.136  -8.264  -0.056  0.00  0.00    -0.025 A 
ATOM     12  C   UNL     1      -0.420  -7.063   0.499  0.00  0.00    +0.143 C 
ENDROOT
BRANCH   9  13
ATOM     13  S   UNL     1      -0.037 -11.472  -2.226  0.00  0.00    +0.056 S 
ATOM     14  O   UNL     1       1.313 -11.308  -1.815  0.00  0.00    -0.153 OA
ATOM     15  O   UNL     1      -0.715 -12.718  -2.136  0.00  0.00    -0.153 OA
BRANCH  13  16
ATOM     16  N   UNL     1      -0.108 -11.009  -3.815  0.00  0.00    -0.204 NA
ATOM     17  H   UNL     1       0.635 -11.200  -4.409  0.00  0.00    +0.144 HD
ATOM     18  H   UNL     1      -0.892 -10.547  -4.151  0.00  0.00    +0.144 HD
ENDBRANCH  13  16
ENDBRANCH   9  13
BRANCH   1  19
ATOM     19  C   UNL     1      -0.058  -4.258   0.027  0.00  0.00    +0.108 C 
BRANCH  19  24
ATOM     20  C   UNL     1      -1.210  -3.859  -5.621  0.00  0.00    +0.044 C 
ATOM     21  C   UNL     1      -0.909  -3.963  -4.148  0.00  0.00    -0.050 A 
ATOM     22  C   UNL     1       0.116  -4.779  -3.708  0.00  0.00    +0.003 A 
ATOM     23  C   UNL     1       0.392  -4.875  -2.357  0.00  0.00    +0.004 A 
ATOM     24  C   UNL     1      -0.357  -4.154  -1.446  0.00  0.00    -0.035 A 
ATOM     25  C   UNL     1      -1.382  -3.337  -1.886  0.00  0.00    +0.004 A 
ATOM     26  C   UNL     1      -1.655  -3.238  -3.238  0.00  0.00    +0.003 A 
ENDBRANCH  19  24
BRANCH  19  27
ATOM     27  C   UNL     1       0.311  -2.877   0.572  0.00  0.00    -0.001 C 
ATOM     28  C   UNL     1       0.509  -2.963   2.087  0.00  0.00    +0.008 C 
ATOM     29  C   UNL     1       1.608  -2.399  -0.086  0.00  0.00    +0.008 C 
ENDBRANCH  19  27
ENDBRANCH   1  19
TORSDOF 5
