REMARK  Name = ZINC51562114
REMARK  6 active torsions:
REMARK  status: ('A' for Active; 'I' for Inactive)
REMARK    1  A    between atoms: C_1  and  C_2
REMARK    2  A    between atoms: C_3  and  S_8
REMARK    3  A    between atoms: C_4  and  C_7
REMARK    4  A    between atoms: S_8  and  N_11
REMARK    5  A    between atoms: N_11  and  C_12
REMARK    6  A    between atoms: C_13  and  C_15
REMARK                            x       y       z     vdW  Elec       q    Type
REMARK                         _______ _______ _______ _____ _____    ______ ____
ROOT
ATOM      1  N   UNL     1       1.302  -0.231  -3.427  0.00  0.00    -0.169 N 
ATOM      2  C   UNL     1       1.877  -1.366  -4.153  0.00  0.00    +0.161 C 
ATOM      3  C   UNL     1       1.906   0.973  -3.471  0.00  0.00    +0.283 C 
ATOM      4  O   UNL     1       1.495   1.885  -2.778  0.00  0.00    -0.267 OA
ENDROOT
BRANCH   3   5
ATOM      5  C   UNL     1       3.059   1.184  -4.355  0.00  0.00    +0.123 A 
ATOM      6  C   UNL     1       3.834   2.303  -4.384  0.00  0.00    +0.078 A 
ATOM      7  C   UNL     1       4.857   2.084  -5.403  0.00  0.00    +0.019 A 
ATOM      8  C   UNL     1       5.921   2.854  -5.886  0.00  0.00    +0.011 A 
ATOM      9  C   UNL     1       6.723   2.358  -6.873  0.00  0.00    +0.001 A 
ATOM     10  C   UNL     1       6.493   1.095  -7.402  0.00  0.00    +0.002 A 
ATOM     11  C   UNL     1       5.452   0.319  -6.943  0.00  0.00    +0.026 A 
ATOM     12  C   UNL     1       4.620   0.802  -5.936  0.00  0.00    +0.048 A 
ATOM     13  N   UNL     1       3.531   0.276  -5.284  0.00  0.00    -0.349 N 
ATOM     14  H   UNL     1       3.150  -0.600  -5.451  0.00  0.00    +0.166 HD
ATOM     15 CL   UNL     1       3.643   3.719  -3.398  0.00  0.00    -0.081 Cl
ENDBRANCH   3   5
BRANCH   1  16
ATOM     16  S   UNL     1      -0.090  -0.428  -2.552  0.00  0.00    +0.082 S 
ATOM     17  O   UNL     1      -0.697  -1.625  -3.018  0.00  0.00    -0.150 OA
ATOM     18  O   UNL     1      -0.761   0.824  -2.569  0.00  0.00    -0.150 OA
BRANCH  16  21
ATOM     19  C   UNL     1       0.135   1.709  -0.005  0.00  0.00    +0.071 C 
ATOM     20  C   UNL     1       0.452   0.243   0.141  0.00  0.00    +0.107 A 
ATOM     21  C   UNL     1       0.383  -0.723  -0.880  0.00  0.00    +0.173 A 
ATOM     22  C   UNL     1       0.741  -1.911  -0.357  0.00  0.00    +0.161 A 
ATOM     23  O   UNL     1       1.028  -1.724   0.940  0.00  0.00    -0.358 OA
ATOM     24  N   UNL     1       0.843  -0.350   1.233  0.00  0.00    -0.081 NA
ATOM     25  C   UNL     1       0.807  -3.221  -1.099  0.00  0.00    +0.091 C 
ENDBRANCH  16  21
ENDBRANCH   1  16
TORSDOF 3
