REMARK  Name = ZINC28530288
REMARK  8 active torsions:
REMARK  status: ('A' for Active; 'I' for Inactive)
REMARK    1  A    between atoms: C_1  and  C_2
REMARK    2  A    between atoms: C_2  and  C_3
REMARK    3  A    between atoms: C_2  and  C_4
REMARK    4  A    between atoms: C_8  and  C_21
REMARK    5  A    between atoms: C_9  and  N_10
REMARK    6  A    between atoms: C_17  and  N_18
REMARK    7  A    between atoms: C_21  and  C_22
REMARK    8  A    between atoms: C_21  and  C_23
REMARK                            x       y       z     vdW  Elec       q    Type
REMARK                         _______ _______ _______ _____ _____    ______ ____
ROOT
ATOM      1  N   UNL     1      -0.016   1.340   0.009  0.00  0.00    -0.262 N 
ATOM      2  C   UNL     1       1.367   1.830  -0.001  0.00  0.00    +0.151 C 
ATOM      3  C   UNL     1       2.248   0.607  -0.016  0.00  0.00    +0.003 A 
ATOM      4  C   UNL     1       1.393  -0.497  -0.014  0.00  0.00    +0.044 A 
ATOM      5  C   UNL     1       1.934  -1.784  -0.026  0.00  0.00    +0.013 A 
ATOM      6  C   UNL     1       3.303  -1.957  -0.041  0.00  0.00    +0.003 A 
ATOM      7  C   UNL     1       4.146  -0.862  -0.043  0.00  0.00    +0.023 A 
ATOM      8  C   UNL     1       3.618   0.426  -0.031  0.00  0.00    +0.030 A 
ATOM      9  C   UNL     1       0.002  -0.004   0.002  0.00  0.00    +0.252 C 
ATOM     10  O   UNL     1      -0.986  -0.712   0.008  0.00  0.00    -0.270 OA
ENDROOT
BRANCH   1  16
ATOM     11  C   UNL     1      -1.738   2.548  -1.177  0.00  0.00    -0.023 A 
ATOM     12  C   UNL     1      -2.874   3.332  -1.164  0.00  0.00    +0.006 A 
ATOM     13  C   UNL     1      -3.434   3.720   0.039  0.00  0.00    +0.001 A 
ATOM     14  C   UNL     1      -2.862   3.320   1.233  0.00  0.00    +0.006 A 
ATOM     15  C   UNL     1      -1.729   2.531   1.226  0.00  0.00    -0.023 A 
ATOM     16  C   UNL     1      -1.164   2.139   0.019  0.00  0.00    +0.044 A 
BRANCH  11  18
ATOM     17  C   UNL     1      -2.144   1.325  -3.296  0.00  0.00    +0.012 C 
ATOM     18  C   UNL     1      -1.124   2.131  -2.489  0.00  0.00    +0.015 C 
ATOM     19  C   UNL     1      -0.717   3.376  -3.280  0.00  0.00    +0.012 C 
ENDBRANCH  11  18
BRANCH  15  20
ATOM     20  C   UNL     1      -1.105   2.095   2.527  0.00  0.00    +0.015 C 
ATOM     21  C   UNL     1      -0.692   3.329   3.333  0.00  0.00    +0.012 C 
ATOM     22  C   UNL     1      -2.119   1.278   3.330  0.00  0.00    +0.012 C 
ENDBRANCH  15  20
ENDBRANCH   1  16
BRANCH   8  23
ATOM     23  N   UNL     1       4.471   1.533  -0.033  0.00  0.00    -0.358 N 
ATOM     24  H   UNL     1       5.561   1.387  -0.045  0.00  0.00    +0.142 HD
ATOM     25  H   UNL     1       4.052   2.550  -0.024  0.00  0.00    +0.142 HD
ENDBRANCH   8  23
TORSDOF 4
