REMARK  Name = ZINC02664585
REMARK  9 active torsions:
REMARK  status: ('A' for Active; 'I' for Inactive)
REMARK    1  A    between atoms: C_1  and  C_2
REMARK    2  A    between atoms: C_2  and  O_3
REMARK    3  A    between atoms: O_3  and  C_4
REMARK    4  A    between atoms: C_4  and  C_6
REMARK    5  A    between atoms: C_7  and  C_32
REMARK    6  A    between atoms: C_8  and  C_13
REMARK    7  A    between atoms: C_11  and  C_12
REMARK    8  A    between atoms: C_13  and  C_15
REMARK    9  A    between atoms: C_15  and  N_16
REMARK                            x       y       z     vdW  Elec       q    Type
REMARK                         _______ _______ _______ _____ _____    ______ ____
ROOT
ATOM      1  C   UNL     1       3.529   2.968  -0.016  0.00  0.00    +0.199 C 
ENDROOT
BRANCH   1   2
ATOM      2  N   UNL     1       4.832   2.299  -0.032  0.00  0.00    -0.216 N 
ATOM      3  C   UNL     1       5.497   1.958  -1.157  0.00  0.00    +0.251 C 
ATOM      4  O   UNL     1       5.145   2.139  -2.303  0.00  0.00    -0.272 OA
ATOM      5  C   UNL     1       6.769   1.305  -0.683  0.00  0.00    +0.138 C 
ATOM      6  C   UNL     1       8.004   2.057  -1.195  0.00  0.00    +0.045 C 
ATOM      7  C   UNL     1       8.376   1.251  -2.460  0.00  0.00    +0.038 C 
ATOM      8  C   UNL     1       7.823  -0.139  -2.222  0.00  0.00    -0.042 A 
ATOM      9  C   UNL     1       6.893  -0.105  -1.196  0.00  0.00    -0.012 A 
ATOM     10  C   UNL     1       6.255  -1.271  -0.809  0.00  0.00    +0.006 A 
ATOM     11  C   UNL     1       6.542  -2.466  -1.440  0.00  0.00    +0.000 A 
ATOM     12  C   UNL     1       7.470  -2.499  -2.463  0.00  0.00    +0.000 A 
ATOM     13  C   UNL     1       8.109  -1.337  -2.852  0.00  0.00    +0.004 A 
ATOM     14  N   UNL     1       6.684   1.347   0.777  0.00  0.00    -0.281 N 
ATOM     15  H   UNL     1       7.338   1.011   1.409  0.00  0.00    +0.152 HD
ATOM     16  C   UNL     1       5.515   1.954   1.068  0.00  0.00    +0.310 C 
ATOM     17  O   UNL     1       5.124   2.162   2.200  0.00  0.00    -0.252 OA
ENDBRANCH   1   2
BRANCH   1  18
ATOM     18  C   UNL     1       2.433   1.934  -0.011  0.00  0.00    +0.197 C 
ATOM     19  O   UNL     1       2.713   0.752  -0.020  0.00  0.00    -0.289 OA
BRANCH  18  22
ATOM     20  C   UNL     1      -1.163   2.329   0.019  0.00  0.00    +0.083 A 
ATOM     21  C   UNL     1      -0.018   1.503   0.010  0.00  0.00    -0.008 A 
ATOM     22  C   UNL     1       1.077   2.339   0.004  0.00  0.00    +0.088 A 
ATOM     23  N   UNL     1       0.620   3.642   0.015  0.00  0.00    -0.355 N 
ATOM     24  H   UNL     1       1.181   4.433   0.014  0.00  0.00    +0.166 HD
ATOM     25  C   UNL     1      -0.721   3.640   0.027  0.00  0.00    +0.028 A 
ATOM     26  C   UNL     1      -1.600   4.864   0.041  0.00  0.00    +0.064 C 
ATOM     27  C   UNL     1       0.002  -0.004   0.002  0.00  0.00    +0.047 C 
BRANCH  20  28
ATOM     28  C   UNL     1      -2.565   1.879   0.023  0.00  0.00    +0.341 C 
ATOM     29  O   UNL     1      -3.139   1.688   1.077  0.00  0.00    -0.245 OA
BRANCH  28  30
ATOM     30  O   UNL     1      -3.212   1.679  -1.142  0.00  0.00    -0.461 OA
BRANCH  30  32
ATOM     31  C   UNL     1      -5.155   1.065  -2.475  0.00  0.00    +0.048 C 
ATOM     32  C   UNL     1      -4.592   1.236  -1.063  0.00  0.00    +0.229 C 
ENDBRANCH  30  32
ENDBRANCH  28  30
ENDBRANCH  20  28
ENDBRANCH  18  22
ENDBRANCH   1  18
TORSDOF 6
