REMARK  Name = ZINC26975521
REMARK  8 active torsions:
REMARK  status: ('A' for Active; 'I' for Inactive)
REMARK    1  A    between atoms: C_1  and  C_2
REMARK    2  A    between atoms: C_2  and  C_3
REMARK    3  A    between atoms: C_2  and  C_4
REMARK    4  A    between atoms: C_4  and  C_6
REMARK    5  A    between atoms: C_4  and  N_23
REMARK    6  A    between atoms: N_8  and  N_9
REMARK    7  A    between atoms: C_10  and  C_12
REMARK    8  A    between atoms: C_24  and  C_26
REMARK                            x       y       z     vdW  Elec       q    Type
REMARK                         _______ _______ _______ _____ _____    ______ ____
ROOT
ATOM      1  C   UNL     1       0.762  -2.018   1.233  0.00  0.00    +0.250 C 
ATOM      2  O   UNL     1       1.821  -2.610   1.220  0.00  0.00    -0.272 OA
ATOM      3  N   UNL     1      -0.395  -2.707   1.241  0.00  0.00    -0.233 N 
ATOM      4  H   UNL     1      -1.242  -2.234   1.251  0.00  0.00    +0.173 HD
ENDROOT
BRANCH   3   5
ATOM      5  N   UNL     1      -0.376  -4.108   1.233  0.00  0.00    -0.231 N 
ATOM      6  C   UNL     1      -1.534  -4.798   1.240  0.00  0.00    +0.273 C 
ATOM      7  O   UNL     1      -2.593  -4.206   1.254  0.00  0.00    -0.270 OA
ATOM      8  H   UNL     1       0.470  -4.582   1.222  0.00  0.00    +0.173 HD
BRANCH   6   9
ATOM      9  C   UNL     1      -1.514  -6.305   1.232  0.00  0.00    +0.297 C 
ATOM     10  C   UNL     1      -0.922  -6.807  -0.092  0.00  0.00    +0.283 C 
ATOM     11  O   UNL     1      -0.930  -8.239  -0.072  0.00  0.00    -0.484 OA
ATOM     12  C   UNL     1      -2.079  -8.838   0.345  0.00  0.00    +0.162 A 
ATOM     13  C   UNL     1      -2.293 -10.177   0.055  0.00  0.00    +0.049 A 
ATOM     14  C   UNL     1      -3.453 -10.800   0.475  0.00  0.00    +0.004 A 
ATOM     15  C   UNL     1      -4.403 -10.090   1.185  0.00  0.00    +0.004 A 
ATOM     16  C   UNL     1      -4.197  -8.755   1.477  0.00  0.00    +0.049 A 
ATOM     17  C   UNL     1      -3.035  -8.124   1.058  0.00  0.00    +0.163 A 
ATOM     18  O   UNL     1      -2.850  -6.806   1.346  0.00  0.00    -0.472 OA
ENDBRANCH   6   9
ENDBRANCH   3   5
BRANCH   1  19
ATOM     19  C   UNL     1       0.742  -0.511   1.242  0.00  0.00    +0.163 C 
BRANCH  19  20
ATOM     20  N   UNL     1       2.116  -0.004   1.231  0.00  0.00    -0.300 N 
ATOM     21  C   UNL     1       2.387   1.219   1.728  0.00  0.00    +0.245 C 
ATOM     22  O   UNL     1       1.491   1.902   2.186  0.00  0.00    -0.270 OA
ATOM     23  H   UNL     1       2.832  -0.548   0.866  0.00  0.00    +0.150 HD
BRANCH  21  24
ATOM     24  C   UNL     1       3.774   1.731   1.718  0.00  0.00    +0.037 A 
ATOM     25  C   UNL     1       4.804   0.952   1.188  0.00  0.00    +0.014 A 
ATOM     26  C   UNL     1       6.096   1.435   1.181  0.00  0.00    +0.021 A 
ATOM     27  C   UNL     1       6.372   2.690   1.698  0.00  0.00    +0.041 A 
ATOM     28  C   UNL     1       5.354   3.467   2.225  0.00  0.00    +0.021 A 
ATOM     29  C   UNL     1       4.057   2.997   2.232  0.00  0.00    +0.014 A 
ATOM     30 CL   UNL     1       8.001   3.290   1.686  0.00  0.00    -0.084 Cl
ENDBRANCH  21  24
ENDBRANCH  19  20
BRANCH  19  32
ATOM     31  C   UNL     1      -0.019   1.526   0.010  0.00  0.00    +0.009 C 
ATOM     32  C   UNL     1       0.002  -0.004   0.002  0.00  0.00    +0.012 C 
ATOM     33  C   UNL     1       0.718  -0.497  -1.257  0.00  0.00    +0.009 C 
ENDBRANCH  19  32
ENDBRANCH   1  19
TORSDOF 6
