REMARK  Name = ZINC23143331
REMARK  4 active torsions:
REMARK  status: ('A' for Active; 'I' for Inactive)
REMARK    1  A    between atoms: C_8  and  S_10
REMARK    2  A    between atoms: S_10  and  C_11
REMARK    3  A    between atoms: C_11  and  C_12
REMARK    4  A    between atoms: C_15  and  C_18
REMARK                            x       y       z     vdW  Elec       q    Type
REMARK                         _______ _______ _______ _____ _____    ______ ____
ROOT
ATOM      1  C   UNL     1       5.389  -5.692  -0.080  0.00  0.00    -0.037 A 
ATOM      2  C   UNL     1       5.631  -6.347   1.115  0.00  0.00    +0.005 A 
ATOM      3  C   UNL     1       6.104  -7.643   1.111  0.00  0.00    +0.013 A 
ATOM      4  C   UNL     1       6.338  -8.293  -0.102  0.00  0.00    +0.037 A 
ATOM      5  C   UNL     1       6.091  -7.627  -1.303  0.00  0.00    +0.013 A 
ATOM      6  C   UNL     1       5.613  -6.333  -1.285  0.00  0.00    +0.005 A 
ENDROOT
BRANCH   4   7
ATOM      7  C   UNL     1       6.845  -9.682  -0.114  0.00  0.00    +0.250 C 
ATOM      8  O   UNL     1       7.059 -10.260   0.934  0.00  0.00    -0.270 OA
ATOM      9  N   UNL     1       7.069 -10.307  -1.286  0.00  0.00    -0.249 N 
ATOM     10  C   UNL     1       7.549 -11.620  -1.298  0.00  0.00    +0.241 A 
ATOM     11  N   UNL     1       7.810 -12.344  -2.390  0.00  0.00    -0.202 NA
ATOM     12  H   UNL     1       8.548 -14.345  -0.160  0.00  0.00    +0.190 HD
ATOM     13  C   UNL     1       8.243 -13.529  -2.044  0.00  0.00    +0.217 A 
ATOM     14  N   UNL     1       8.270 -13.590  -0.702  0.00  0.00    -0.264 N 
ATOM     15  N   UNL     1       7.822 -12.343  -0.237  0.00  0.00    -0.136 NA
ATOM     16  H   UNL     1       6.898  -9.846  -2.123  0.00  0.00    +0.158 HD
ENDBRANCH   4   7
BRANCH   1  17
ATOM     17  C   UNL     1       4.873  -4.276  -0.067  0.00  0.00    +0.111 C 
BRANCH  17  18
ATOM     18  S   UNL     1       3.059  -4.293  -0.050  0.00  0.00    -0.094 S 
BRANCH  18  26
ATOM     19  C   UNL     1      -0.017   1.366   0.010  0.00  0.00    +0.002 A 
ATOM     20  C   UNL     1       1.156   2.107   0.002  0.00  0.00    +0.001 A 
ATOM     21  C   UNL     1       2.373   1.449  -0.013  0.00  0.00    +0.017 A 
ATOM     22  C   UNL     1       2.401   0.077  -0.021  0.00  0.00    +0.040 A 
ATOM     23  C   UNL     1       1.227  -0.710  -0.013  0.00  0.00    +0.079 A 
ATOM     24  C   UNL     1       0.002  -0.004   0.002  0.00  0.00    +0.029 A 
ATOM     25  N   UNL     1       1.419  -2.047  -0.023  0.00  0.00    -0.233 NA
ATOM     26  C   UNL     1       2.617  -2.588  -0.037  0.00  0.00    +0.136 A 
ATOM     27  S   UNL     1       3.683  -1.153  -0.039  0.00  0.00    -0.061 S 
ENDBRANCH  18  26
ENDBRANCH  17  18
ENDBRANCH   1  17
TORSDOF 4
