REMARK  Name = ZINC37695762
REMARK  4 active torsions:
REMARK  status: ('A' for Active; 'I' for Inactive)
REMARK    1  A    between atoms: C_4  and  O_10
REMARK    2  A    between atoms: C_5  and  N_7
REMARK    3  A    between atoms: O_10  and  C_11
REMARK    4  A    between atoms: C_16  and  O_18
REMARK                            x       y       z     vdW  Elec       q    Type
REMARK                         _______ _______ _______ _____ _____    ______ ____
ROOT
ATOM      1  C   UNL     1       0.041   1.381   0.599  0.00  0.00    +0.002 A 
ATOM      2  C   UNL     1       1.237   2.075   0.590  0.00  0.00    +0.004 A 
ATOM      3  C   UNL     1       2.425   1.403   0.377  0.00  0.00    +0.048 A 
ATOM      4  C   UNL     1       2.418   0.031   0.173  0.00  0.00    +0.151 A 
ATOM      5  C   UNL     1       1.217  -0.663   0.183  0.00  0.00    +0.168 A 
ATOM      6  C   UNL     1       0.031   0.013   0.396  0.00  0.00    +0.036 A 
ENDROOT
BRANCH   5   7
ATOM      7  N   UNL     1       1.206  -2.127  -0.035  0.00  0.00    +0.060 N 
ATOM      8  O   UNL     1       0.159  -2.732  -0.025  0.00  0.00    -0.126 OA
ATOM      9  O   UNL     1       2.244  -2.719  -0.221  0.00  0.00    -0.126 OA
ENDBRANCH   5   7
BRANCH   4  10
ATOM     10  O   UNL     1       3.586  -0.632  -0.037  0.00  0.00    -0.484 OA
BRANCH  10  11
ATOM     11  C   UNL     1       4.769   0.160  -0.156  0.00  0.00    +0.202 C 
ATOM     12  C   UNL     1       5.410   0.390   1.235  0.00  0.00    +0.047 C 
ATOM     13  C   UNL     1       6.889   0.686   0.886  0.00  0.00    +0.006 C 
ATOM     14  C   UNL     1       7.199  -0.267  -0.287  0.00  0.00    +0.035 C 
ATOM     15  C   UNL     1       5.849  -0.600  -0.953  0.00  0.00    +0.155 C 
BRANCH  15  16
ATOM     16  O   UNL     1       5.851  -0.165  -2.314  0.00  0.00    -0.388 OA
ATOM     17  H   UNL     1       6.509  -0.606  -2.867  0.00  0.00    +0.210 HD
ENDBRANCH  15  16
ENDBRANCH  10  11
ENDBRANCH   4  10
TORSDOF 4
