REMARK  Name = ZINC40398910
REMARK  5 active torsions:
REMARK  status: ('A' for Active; 'I' for Inactive)
REMARK    1  A    between atoms: C_1  and  C_2
REMARK    2  A    between atoms: C_2  and  S_3
REMARK    3  A    between atoms: S_3  and  C_4
REMARK    4  A    between atoms: N_23  and  C_26
REMARK    5  A    between atoms: C_32  and  C_34
REMARK                            x       y       z     vdW  Elec       q    Type
REMARK                         _______ _______ _______ _____ _____    ______ ____
ROOT
ATOM      1  C   UNL     1       0.298  -2.374  -1.638  0.00  0.00    +0.210 A 
ATOM      2  N   UNL     1       0.873  -3.236  -2.482  0.00  0.00    -0.185 NA
ATOM      3  C   UNL     1       0.748  -4.460  -2.019  0.00  0.00    +0.234 A 
ATOM      4  N   UNL     1       0.078  -4.398  -0.850  0.00  0.00    -0.243 N 
ATOM      5  H   UNL     1      -0.162  -5.144  -0.278  0.00  0.00    +0.192 HD
ATOM      6  N   UNL     1      -0.198  -3.040  -0.622  0.00  0.00    -0.144 NA
ATOM      7  N   UNL     1       1.223  -5.617  -2.628  0.00  0.00    -0.252 N 
ATOM      8  C   UNL     1       1.006  -6.821  -2.019  0.00  0.00    +0.100 A 
ATOM      9  C   UNL     1       1.432  -7.982  -2.542  0.00  0.00    +0.047 A 
ATOM     10  C   UNL     1       2.160  -7.979  -3.813  0.00  0.00    +0.078 A 
ATOM     11  C   UNL     1       2.386  -6.728  -4.447  0.00  0.00    +0.066 A 
ATOM     12  C   UNL     1       1.877  -5.514  -3.801  0.00  0.00    +0.267 A 
ATOM     13  O   UNL     1       2.048  -4.424  -4.318  0.00  0.00    -0.267 OA
ATOM     14  C   UNL     1       3.074  -6.681  -5.657  0.00  0.00    +0.030 A 
ATOM     15  C   UNL     1       3.515  -7.887  -6.197  0.00  0.00    +0.066 A 
ATOM     16  C   UNL     1       3.255  -9.102  -5.510  0.00  0.00    +0.078 A 
ATOM     17  N   UNL     1       2.596  -9.106  -4.359  0.00  0.00    -0.246 NA
ATOM     18  C   UNL     1       3.737 -10.347  -6.114  0.00  0.00    +0.046 A 
ATOM     19  C   UNL     1       4.400 -10.304  -7.281  0.00  0.00    +0.091 A 
ATOM     20  N   UNL     1       4.650  -9.138  -7.941  0.00  0.00    -0.311 N 
ATOM     21  C   UNL     1       4.247  -7.943  -7.466  0.00  0.00    +0.261 A 
ATOM     22  O   UNL     1       4.488  -6.921  -8.083  0.00  0.00    -0.267 OA
ENDROOT
BRANCH  20  23
ATOM     23  C   UNL     1       5.382  -9.185  -9.210  0.00  0.00    +0.093 C 
ATOM     24  C   UNL     1       4.605 -10.037 -10.215  0.00  0.00    +0.025 C 
ATOM     25  C   UNL     1       4.446 -11.456  -9.665  0.00  0.00    +0.002 C 
ATOM     26  C   UNL     1       5.827 -12.072  -9.435  0.00  0.00    +0.000 C 
ATOM     27  C   UNL     1       6.604 -11.219  -8.429  0.00  0.00    +0.005 C 
ATOM     28  C   UNL     1       6.763  -9.800  -8.979  0.00  0.00    +0.009 C 
ATOM     29  C   UNL     1       7.540  -8.948  -7.974  0.00  0.00    +0.009 C 
ENDBRANCH  20  23
BRANCH   1  30
ATOM     30  S   UNL     1       0.224  -0.627  -1.851  0.00  0.00    -0.085 S 
BRANCH  30  32
ATOM     31  C   UNL     1      -0.802   1.480  -0.440  0.00  0.00    +0.016 C 
ATOM     32  C   UNL     1      -0.665  -0.043  -0.382  0.00  0.00    +0.074 C 
ENDBRANCH  30  32
ENDBRANCH   1  30
TORSDOF 3
