REMARK  Name = ZINC12481979
REMARK  12 active torsions:
REMARK  status: ('A' for Active; 'I' for Inactive)
REMARK    1  A    between atoms: C_1  and  C_2
REMARK    2  A    between atoms: C_2  and  C_3
REMARK    3  A    between atoms: C_2  and  C_4
REMARK    4  A    between atoms: C_7  and  C_10
REMARK    5  A    between atoms: C_10  and  C_12
REMARK    6  A    between atoms: C_10  and  N_22
REMARK    7  A    between atoms: N_14  and  C_15
REMARK    8  A    between atoms: C_15  and  C_16
REMARK    9  A    between atoms: N_22  and  C_23
REMARK   10  A    between atoms: C_23  and  C_24
REMARK   11  A    between atoms: C_29  and  C_31
REMARK   12  A    between atoms: C_31  and  N_32
REMARK                            x       y       z     vdW  Elec       q    Type
REMARK                         _______ _______ _______ _____ _____    ______ ____
ROOT
ATOM      1  C   UNL     1       2.362   1.534   0.037  0.00  0.00    +0.193 C 
ENDROOT
BRANCH   1   5
ATOM      2  C   UNL     1       3.555   5.636   0.092  0.00  0.00    -0.045 A 
ATOM      3  C   UNL     1       2.507   5.210   0.887  0.00  0.00    +0.004 A 
ATOM      4  C   UNL     1       2.124   3.881   0.873  0.00  0.00    +0.006 A 
ATOM      5  C   UNL     1       2.783   2.981   0.057  0.00  0.00    -0.018 A 
ATOM      6  C   UNL     1       3.827   3.408  -0.742  0.00  0.00    +0.006 A 
ATOM      7  C   UNL     1       4.213   4.735  -0.725  0.00  0.00    +0.004 A 
BRANCH   2   9
ATOM      8  C   UNL     1       2.799   7.962  -0.317  0.00  0.00    +0.012 C 
ATOM      9  C   UNL     1       3.976   7.082   0.112  0.00  0.00    +0.013 C 
ATOM     10  C   UNL     1       4.411   7.468   1.527  0.00  0.00    +0.012 C 
ENDBRANCH   2   9
ENDBRANCH   1   5
BRANCH   1  11
ATOM     11  C   UNL     1       3.009   0.807   1.188  0.00  0.00    +0.238 C 
ATOM     12  O   UNL     1       4.202   0.585   1.171  0.00  0.00    -0.273 OA
ATOM     13  N   UNL     1       2.264   0.404   2.235  0.00  0.00    -0.311 N 
ATOM     14  H   UNL     1       1.310   0.581   2.248  0.00  0.00    +0.149 HD
BRANCH  13  15
ATOM     15  C   UNL     1       2.893  -0.303   3.353  0.00  0.00    +0.135 C 
BRANCH  15  16
ATOM     16  C   UNL     1       1.832  -0.646   4.402  0.00  0.00    +0.135 C 
ATOM     17  C   UNL     1       2.487  -1.316   5.630  0.00  0.00    +0.035 C 
ATOM     18  C   UNL     1       1.461  -2.385   6.066  0.00  0.00    +0.031 C 
ATOM     19  C   UNL     1       0.307  -2.236   5.050  0.00  0.00    +0.160 C 
ATOM     20  O   UNL     1       0.916  -1.635   3.884  0.00  0.00    -0.375 OA
ENDBRANCH  15  16
ENDBRANCH  13  15
ENDBRANCH   1  11
BRANCH   1  21
ATOM     21  N   UNL     1       2.781   0.921  -1.226  0.00  0.00    -0.280 N 
ATOM     22  C   UNL     1       1.867   0.653  -2.180  0.00  0.00    +0.238 C 
ATOM     23  O   UNL     1       0.699   0.919  -1.993  0.00  0.00    -0.274 OA
BRANCH  21  24
ATOM     24  C   UNL     1       4.192   0.599  -1.451  0.00  0.00    +0.151 C 
BRANCH  24  25
ATOM     25  C   UNL     1       4.398  -0.887  -1.304  0.00  0.00    +0.007 A 
ATOM     26  C   UNL     1       4.440  -1.842  -2.265  0.00  0.00    +0.013 A 
ATOM     27  C   UNL     1       4.647  -3.158  -1.894  0.00  0.00    +0.008 A 
ATOM     28  C   UNL     1       4.791  -3.455  -0.579  0.00  0.00    +0.045 A 
ATOM     29  S   UNL     1       4.643  -1.846   0.181  0.00  0.00    -0.100 S 
ENDBRANCH  24  25
ENDBRANCH  21  24
BRANCH  22  30
ATOM     30  C   UNL     1       2.298   0.022  -3.479  0.00  0.00    +0.241 C 
BRANCH  30  31
ATOM     31  N   UNL     1       1.129  -0.166  -4.342  0.00  0.00    -0.235 N 
ATOM     32  C   UNL     1       0.317  -1.274  -4.397  0.00  0.00    +0.090 A 
ATOM     33  C   UNL     1       0.301  -2.495  -3.731  0.00  0.00    +0.029 A 
ATOM     34  C   UNL     1      -0.668  -3.414  -4.021  0.00  0.00    +0.002 A 
ATOM     35  C   UNL     1      -1.639  -3.140  -4.976  0.00  0.00    +0.002 A 
ATOM     36  C   UNL     1      -1.649  -1.948  -5.638  0.00  0.00    +0.032 A 
ATOM     37  C   UNL     1      -0.664  -0.990  -5.362  0.00  0.00    +0.113 A 
ATOM     38  N   UNL     1      -0.413   0.241  -5.851  0.00  0.00    -0.129 NA
ATOM     39  N   UNL     1       0.622   0.747  -5.278  0.00  0.00    -0.064 NA
ENDBRANCH  30  31
ENDBRANCH  22  30
ENDBRANCH   1  21
TORSDOF 10
