REMARK  Name = ZINC16474683
REMARK  14 active torsions:
REMARK  status: ('A' for Active; 'I' for Inactive)
REMARK    1  A    between atoms: C_1  and  C_2
REMARK    2  A    between atoms: C_2  and  C_3
REMARK    3  A    between atoms: C_3  and  C_4
REMARK    4  A    between atoms: C_4  and  N_5
REMARK    5  A    between atoms: N_5  and  C_6
REMARK    6  A    between atoms: C_7  and  N_19
REMARK    7  A    between atoms: N_8  and  C_15
REMARK    8  A    between atoms: C_15  and  C_16
REMARK    9  A    between atoms: C_16  and  C_17
REMARK   10  A    between atoms: C_16  and  C_18
REMARK   11  A    between atoms: C_20  and  C_22
REMARK   12  A    between atoms: C_22  and  N_73
REMARK   13  A    between atoms: C_25  and  C_28
REMARK   14  A    between atoms: C_28  and  C_29
REMARK                            x       y       z     vdW  Elec       q    Type
REMARK                         _______ _______ _______ _____ _____    ______ ____
ROOT
ATOM      1  N   UNL     1       1.097   1.818  -0.055  0.00  0.00    -0.266 N 
ATOM      2  C   UNL     1      -0.013   1.077  -0.253  0.00  0.00    +0.203 C 
ATOM      3  O   UNL     1       0.082  -0.115  -0.458  0.00  0.00    -0.277 OA
ENDROOT
BRANCH   1   4
ATOM      4  C   UNL     1       2.361   1.193   0.009  0.00  0.00    +0.140 A 
ATOM      5  C   UNL     1       2.647   0.290   1.012  0.00  0.00    +0.127 A 
ATOM      6  N   UNL     1       3.888  -0.303   1.048  0.00  0.00    -0.280 N 
ATOM      7  C   UNL     1       4.811  -0.006   0.115  0.00  0.00    +0.331 A 
ATOM      8  O   UNL     1       5.902  -0.540   0.165  0.00  0.00    -0.246 OA
ATOM      9  N   UNL     1       4.550   0.871  -0.870  0.00  0.00    -0.273 N 
ATOM     10  H   UNL     1       5.255   1.077  -1.548  0.00  0.00    +0.173 HD
ATOM     11  C   UNL     1       3.348   1.475  -0.954  0.00  0.00    +0.277 A 
ATOM     12  O   UNL     1       3.120   2.265  -1.854  0.00  0.00    -0.266 OA
BRANCH   5  13
ATOM     13  N   UNL     1       1.704  -0.012   1.965  0.00  0.00    -0.343 N 
ATOM     14  H   UNL     1       0.874   0.487   2.002  0.00  0.00    +0.144 HD
ATOM     15  H   UNL     1       1.869  -0.726   2.601  0.00  0.00    +0.144 HD
ENDBRANCH   5  13
BRANCH   6  16
ATOM     16  C   UNL     1       4.206  -1.263   2.107  0.00  0.00    +0.131 C 
BRANCH  16  17
ATOM     17  C   UNL     1       3.826  -2.672   1.649  0.00  0.00    +0.003 C 
ATOM     18  C   UNL     1       4.703  -3.075   0.461  0.00  0.00    +0.009 C 
ATOM     19  C   UNL     1       4.041  -3.658   2.799  0.00  0.00    +0.009 C 
ENDBRANCH  16  17
ENDBRANCH   6  16
ENDBRANCH   1   4
BRANCH   1  20
ATOM     20  C   UNL     1       0.991   3.271   0.093  0.00  0.00    +0.114 C 
BRANCH  20  21
ATOM     21  C   UNL     1       0.861   3.625   1.576  0.00  0.00    +0.019 C 
BRANCH  21  23
ATOM     22  C   UNL     1       0.621   5.496   3.214  0.00  0.00    +0.004 C 
ATOM     23  C   UNL     1       0.750   5.143   1.731  0.00  0.00    -0.002 C 
ENDBRANCH  21  23
ENDBRANCH  20  21
ENDBRANCH   1  20
BRANCH   2  24
ATOM     24  C   UNL     1      -1.371   1.730  -0.224  0.00  0.00    +0.019 C 
BRANCH  24  30
ATOM     25  C   UNL     1      -2.302   0.179  -1.832  0.00  0.00    -0.078 C 
ATOM     26  C   UNL     1      -3.298  -0.970  -2.005  0.00  0.00    -0.015 C 
ATOM     27  C   UNL     1      -4.716  -0.452  -1.749  0.00  0.00    -0.010 C 
ATOM     28  C   UNL     1      -4.785   0.148  -0.342  0.00  0.00    -0.015 C 
ATOM     29  C   UNL     1      -3.746   1.264  -0.217  0.00  0.00    -0.078 C 
ATOM     30  N   UNL     1      -2.401   0.697  -0.451  0.00  0.00    +0.385 N 
ATOM     31  H   UNL     1      -2.248  -0.077   0.207  0.00  0.00    -0.081 HD
BRANCH  27  32
ATOM     32  C   UNL     1      -5.712  -1.608  -1.861  0.00  0.00    +0.038 C 
BRANCH  32  33
ATOM     33  C   UNL     1      -5.731  -2.119  -3.279  0.00  0.00    -0.047 A 
ATOM     34  C   UNL     1      -6.615  -1.580  -4.195  0.00  0.00    +0.003 A 
ATOM     35  C   UNL     1      -6.630  -2.045  -5.497  0.00  0.00    +0.000 A 
ATOM     36  C   UNL     1      -5.768  -3.055  -5.880  0.00  0.00    +0.000 A 
ATOM     37  C   UNL     1      -4.887  -3.597  -4.963  0.00  0.00    +0.000 A 
ATOM     38  C   UNL     1      -4.869  -3.129  -3.662  0.00  0.00    +0.003 A 
ENDBRANCH  32  33
ENDBRANCH  27  32
ENDBRANCH  24  30
ENDBRANCH   2  24
TORSDOF 11
