REMARK  Name = ZINC63270204
REMARK  4 active torsions:
REMARK  status: ('A' for Active; 'I' for Inactive)
REMARK    1  A    between atoms: C_1  and  C_2
REMARK    2  A    between atoms: N_4  and  C_5
REMARK    3  A    between atoms: C_8  and  N_11
REMARK    4  A    between atoms: C_15  and  N_19
REMARK                            x       y       z     vdW  Elec       q    Type
REMARK                         _______ _______ _______ _____ _____    ______ ____
ROOT
ATOM      1  N   UNL     1      -1.501  -6.255  -0.007  0.00  0.00    -0.209 N 
ATOM      2  C   UNL     1      -0.432  -7.048   0.137  0.00  0.00    +0.228 C 
ATOM      3  O   UNL     1       0.710  -6.668   0.285  0.00  0.00    -0.275 OA
ATOM      4  C   UNL     1      -0.874  -8.494   0.086  0.00  0.00    +0.125 C 
ATOM      5  C   UNL     1      -2.400  -8.399  -0.114  0.00  0.00    +0.153 C 
ATOM      6  C   UNL     1      -2.660  -6.909  -0.150  0.00  0.00    +0.244 C 
ATOM      7  O   UNL     1      -3.747  -6.389  -0.289  0.00  0.00    -0.273 OA
ENDROOT
BRANCH   5   8
ATOM      8  N   UNL     1      -3.109  -9.020   1.012  0.00  0.00    -0.287 NA
ATOM      9  C   UNL     1      -2.662 -10.399   1.219  0.00  0.00    +0.088 C 
ATOM     10  C   UNL     1      -3.210 -10.978   2.529  0.00  0.00    +0.044 C 
ATOM     11  C   UNL     1      -4.735 -11.049   2.418  0.00  0.00    +0.109 C 
ATOM     12  C   UNL     1      -5.194  -9.657   1.998  0.00  0.00    -0.024 C 
ATOM     13  C   UNL     1      -6.098  -9.276   2.890  0.00  0.00    +0.000 A 
ATOM     14  C   UNL     1      -6.952  -8.080   2.973  0.00  0.00    +0.010 A 
ATOM     15  C   UNL     1      -7.773  -8.003   4.053  0.00  0.00    +0.001 A 
ATOM     16  C   UNL     1      -7.831  -8.985   5.048  0.00  0.00    +0.002 A 
ATOM     17  C   UNL     1      -7.087 -10.119   5.049  0.00  0.00    +0.026 A 
ATOM     18  C   UNL     1      -6.188 -10.316   3.961  0.00  0.00    +0.043 A 
ATOM     19  N   UNL     1      -5.379 -11.326   3.701  0.00  0.00    -0.377 N 
ATOM     20  C   UNL     1      -4.573  -8.933   0.829  0.00  0.00    +0.118 C 
ATOM     21  H   UNL     1      -5.228 -12.109   4.254  0.00  0.00    +0.160 HD
ENDBRANCH   5   8
BRANCH   1  25
ATOM     22  C   UNL     1      -1.242  -2.091   0.006  0.00  0.00    +0.033 A 
ATOM     23  C   UNL     1      -1.921  -2.748   1.024  0.00  0.00    +0.025 A 
ATOM     24  C   UNL     1      -2.007  -4.126   1.019  0.00  0.00    +0.026 A 
ATOM     25  C   UNL     1      -1.414  -4.855  -0.003  0.00  0.00    +0.044 A 
ATOM     26  C   UNL     1      -0.734  -4.199  -1.020  0.00  0.00    +0.026 A 
ATOM     27  C   UNL     1      -0.653  -2.821  -1.018  0.00  0.00    +0.025 A 
BRANCH  22  31
ATOM     28  C   UNL     1      -1.192   1.494  -1.144  0.00  0.00    +0.109 C 
ATOM     29  C   UNL     1      -1.181  -0.013  -1.152  0.00  0.00    +0.214 C 
ATOM     30  O   UNL     1      -1.197  -0.614  -2.206  0.00  0.00    -0.276 OA
ATOM     31  N   UNL     1      -1.155  -0.694   0.011  0.00  0.00    -0.286 N 
ATOM     32  H   UNL     1      -1.076  -0.215   0.851  0.00  0.00    +0.155 HD
ENDBRANCH  22  31
ENDBRANCH   1  25
TORSDOF 3
