REMARK  Name = ZINC39675522
REMARK  9 active torsions:
REMARK  status: ('A' for Active; 'I' for Inactive)
REMARK    1  A    between atoms: C_1  and  C_2
REMARK    2  A    between atoms: C_2  and  C_4
REMARK    3  A    between atoms: C_2  and  N_14
REMARK    4  A    between atoms: C_4  and  C_5
REMARK    5  A    between atoms: C_5  and  C_6
REMARK    6  A    between atoms: C_9  and  O_12
REMARK    7  A    between atoms: O_12  and  C_13
REMARK    8  A    between atoms: C_15  and  C_17
REMARK    9  A    between atoms: C_28  and  C_30
REMARK                            x       y       z     vdW  Elec       q    Type
REMARK                         _______ _______ _______ _____ _____    ______ ____
ROOT
ATOM      1  C   UNL     1       0.780  -1.133   3.576  0.00  0.00    +0.100 C 
ATOM      2  C   UNL     1       1.189  -2.611   3.392  0.00  0.00    +0.121 C 
ATOM      3  N   UNL     1       1.007  -3.220   4.731  0.00  0.00    -0.296 N 
ATOM      4  C   UNL     1      -0.237  -2.602   5.250  0.00  0.00    +0.115 C 
ATOM      5  C   UNL     1      -0.156  -1.131   4.797  0.00  0.00    -0.004 C 
ATOM      6  C   UNL     1       0.429  -0.267   5.910  0.00  0.00    -0.010 C 
ATOM      7  C   UNL     1      -0.546  -0.235   7.090  0.00  0.00    -0.082 C 
ATOM      8  N   UNL     1      -1.836   0.308   6.647  0.00  0.00    +0.379 N 
ATOM      9  C   UNL     1      -2.435  -0.578   5.643  0.00  0.00    -0.082 C 
ATOM     10  C   UNL     1      -1.540  -0.625   4.401  0.00  0.00    -0.010 C 
ATOM     11  C   UNL     1       1.794  -4.130   5.338  0.00  0.00    +0.252 C 
ATOM     12  O   UNL     1       1.508  -4.537   6.448  0.00  0.00    -0.270 OA
ATOM     13  H   UNL     1      -2.457   0.385   7.439  0.00  0.00    -0.086 HD
ATOM     14  H   UNL     1      -1.694   1.223   6.245  0.00  0.00    -0.086 HD
ENDROOT
BRANCH  11  15
ATOM     15  C   UNL     1       3.002  -4.632   4.657  0.00  0.00    +0.108 A 
ATOM     16  C   UNL     1       4.229  -3.983   4.832  0.00  0.00    +0.138 A 
ATOM     17  C   UNL     1       5.357  -4.460   4.191  0.00  0.00    +0.041 A 
ATOM     18  C   UNL     1       5.275  -5.576   3.378  0.00  0.00    +0.026 A 
ATOM     19  C   UNL     1       4.066  -6.225   3.199  0.00  0.00    +0.077 A 
ATOM     20  C   UNL     1       2.929  -5.764   3.838  0.00  0.00    +0.156 A 
ATOM     21  F   UNL     1       1.750  -6.401   3.667  0.00  0.00    -0.203 F 
ATOM     22 CL   UNL     1       3.977  -7.624   2.176  0.00  0.00    -0.081 Cl
ATOM     23  F   UNL     1       4.312  -2.892   5.624  0.00  0.00    -0.205 F 
ENDBRANCH  11  15
BRANCH   1  25
ATOM     24  N   UNL     1       0.108   0.671   2.023  0.00  0.00    -0.312 N 
ATOM     25  C   UNL     1       0.051  -0.633   2.355  0.00  0.00    +0.218 C 
ATOM     26  O   UNL     1      -0.587  -1.406   1.672  0.00  0.00    -0.275 OA
ATOM     27  H   UNL     1       0.619   1.289   2.570  0.00  0.00    +0.149 HD
BRANCH  24  29
ATOM     28  C   UNL     1      -2.054   1.464   1.200  0.00  0.00    +0.028 C 
ATOM     29  C   UNL     1      -0.600   1.157   0.836  0.00  0.00    +0.070 C 
BRANCH  29  30
ATOM     30  C   UNL     1       0.077   2.429   0.323  0.00  0.00    +0.026 C 
BRANCH  30  31
ATOM     31  C   UNL     1       1.491   2.096  -0.158  0.00  0.00    +0.037 C 
BRANCH  31  32
ATOM     32  C   UNL     1       2.158   3.349  -0.664  0.00  0.00    -0.047 A 
ATOM     33  C   UNL     1       2.034   3.709  -1.993  0.00  0.00    +0.007 A 
ATOM     34  C   UNL     1       2.644   4.857  -2.459  0.00  0.00    +0.046 A 
ATOM     35  C   UNL     1       3.382   5.649  -1.592  0.00  0.00    +0.120 A 
ATOM     36  C   UNL     1       3.505   5.287  -0.259  0.00  0.00    +0.046 A 
ATOM     37  C   UNL     1       2.888   4.141   0.204  0.00  0.00    +0.007 A 
BRANCH  35  38
ATOM     38  O   UNL     1       3.984   6.779  -2.049  0.00  0.00    -0.495 OA
ATOM     39  C   UNL     1       4.728   7.547  -1.100  0.00  0.00    +0.277 C 
ENDBRANCH  35  38
ENDBRANCH  31  32
ENDBRANCH  30  31
ENDBRANCH  29  30
ENDBRANCH  24  29
ENDBRANCH   1  25
TORSDOF 7
