REMARK  Name = ZINC09108800
REMARK  6 active torsions:
REMARK  status: ('A' for Active; 'I' for Inactive)
REMARK    1  A    between atoms: C_1  and  C_2
REMARK    2  A    between atoms: C_5  and  C_8
REMARK    3  A    between atoms: C_12  and  C_16
REMARK    4  A    between atoms: N_17  and  N_18
REMARK    5  A    between atoms: C_21  and  C_26
REMARK    6  A    between atoms: C_23  and  C_25
REMARK                            x       y       z     vdW  Elec       q    Type
REMARK                         _______ _______ _______ _____ _____    ______ ____
ROOT
ATOM      1  C   UNL     1       0.059  -4.275  -0.021  0.00  0.00    +0.034 C 
ATOM      2  C   UNL     1      -1.177  -4.808   0.708  0.00  0.00    +0.088 C 
ATOM      3  C   UNL     1      -1.124  -6.312   0.747  0.00  0.00    +0.169 C 
ATOM      4  C   UNL     1       0.098  -6.979   0.759  0.00  0.00    +0.079 C 
ATOM      5  C   UNL     1       1.302  -6.281   0.735  0.00  0.00    +0.169 C 
ATOM      6  O   UNL     1       2.358  -6.896   0.746  0.00  0.00    -0.292 OA
ATOM      7  C   UNL     1       1.317  -4.775   0.694  0.00  0.00    +0.088 C 
ATOM      8  O   UNL     1      -2.163  -6.954   0.767  0.00  0.00    -0.292 OA
ENDROOT
BRANCH   1  13
ATOM      9  C   UNL     1      -0.018   1.503   0.010  0.00  0.00    +0.044 C 
ATOM     10  C   UNL     1       0.002  -0.004   0.002  0.00  0.00    -0.050 A 
ATOM     11  C   UNL     1       0.006  -0.689  -1.199  0.00  0.00    +0.003 A 
ATOM     12  C   UNL     1       0.025  -2.071  -1.206  0.00  0.00    +0.004 A 
ATOM     13  C   UNL     1       0.040  -2.768  -0.013  0.00  0.00    -0.043 A 
ATOM     14  C   UNL     1       0.037  -2.084   1.188  0.00  0.00    +0.004 A 
ATOM     15  C   UNL     1       0.023  -0.702   1.195  0.00  0.00    +0.003 A 
ENDBRANCH   1  13
BRANCH   4  16
ATOM     16  C   UNL     1       0.117  -8.454   0.799  0.00  0.00    +0.145 C 
ATOM     17  N   UNL     1       1.249  -9.088   0.811  0.00  0.00    -0.187 NA
BRANCH  17  18
ATOM     18  N   UNL     1       1.268 -10.488   0.848  0.00  0.00    -0.205 N 
ATOM     19  C   UNL     1       2.475 -11.164   0.861  0.00  0.00    +0.235 A 
ATOM     20  N   UNL     1       3.605 -10.472   0.843  0.00  0.00    -0.218 NA
ATOM     21  C   UNL     1       4.775 -11.087   0.854  0.00  0.00    +0.044 A 
ATOM     22  C   UNL     1       4.811 -12.473   0.886  0.00  0.00    +0.046 A 
ATOM     23  C   UNL     1       3.610 -13.166   0.905  0.00  0.00    +0.044 A 
ATOM     24  N   UNL     1       2.474 -12.489   0.897  0.00  0.00    -0.218 NA
ATOM     25  C   UNL     1       3.601 -14.673   0.940  0.00  0.00    +0.066 C 
ATOM     26  C   UNL     1       6.055 -10.292   0.833  0.00  0.00    +0.066 C 
ATOM     27  H   UNL     1       0.434 -10.984   0.866  0.00  0.00    +0.177 HD
ENDBRANCH  17  18
ENDBRANCH   4  16
TORSDOF 3
