REMARK  Name = ZINC12981659
REMARK  6 active torsions:
REMARK  status: ('A' for Active; 'I' for Inactive)
REMARK    1  A    between atoms: C_5  and  N_7
REMARK    2  A    between atoms: N_7  and  S_8
REMARK    3  A    between atoms: S_8  and  C_11
REMARK    4  A    between atoms: C_14  and  C_17
REMARK    5  A    between atoms: N_19  and  C_20
REMARK    6  A    between atoms: C_20  and  C_21
REMARK                            x       y       z     vdW  Elec       q    Type
REMARK                         _______ _______ _______ _____ _____    ______ ____
ROOT
ATOM      1  C   UNL     1       0.233  -4.641  -0.026  0.00  0.00    +0.110 A 
ATOM      2  C   UNL     1       0.390  -5.302  -1.231  0.00  0.00    +0.029 A 
ATOM      3  C   UNL     1       0.717  -6.643  -1.249  0.00  0.00    +0.015 A 
ATOM      4  C   UNL     1       0.889  -7.332  -0.048  0.00  0.00    +0.037 A 
ATOM      5  C   UNL     1       0.730  -6.659   1.165  0.00  0.00    +0.015 A 
ATOM      6  C   UNL     1       0.408  -5.317   1.169  0.00  0.00    +0.029 A 
ENDROOT
BRANCH   4   7
ATOM      7  C   UNL     1       1.239  -8.768  -0.059  0.00  0.00    +0.244 C 
ATOM      8  O   UNL     1       1.378  -9.351  -1.117  0.00  0.00    -0.270 OA
ATOM      9  N   UNL     1       1.405  -9.431   1.103  0.00  0.00    -0.309 N 
ATOM     10  H   UNL     1       1.295  -8.965   1.946  0.00  0.00    +0.149 HD
BRANCH   9  11
ATOM     11  C   UNL     1       1.752 -10.854   1.091  0.00  0.00    +0.136 C 
BRANCH  11  12
ATOM     12  C   UNL     1       1.880 -11.359   2.530  0.00  0.00    +0.135 C 
ATOM     13  C   UNL     1       2.281 -12.856   2.540  0.00  0.00    +0.035 C 
ATOM     14  C   UNL     1       2.963 -12.969   3.931  0.00  0.00    +0.031 C 
ATOM     15  C   UNL     1       3.629 -11.584   4.083  0.00  0.00    +0.160 C 
ATOM     16  O   UNL     1       2.950 -10.677   3.204  0.00  0.00    -0.375 OA
ENDBRANCH  11  12
ENDBRANCH   9  11
ENDBRANCH   4   7
BRANCH   1  17
ATOM     17  S   UNL     1      -0.184  -2.930  -0.012  0.00  0.00    +0.092 S 
ATOM     18  O   UNL     1      -0.804  -2.673   1.241  0.00  0.00    -0.148 OA
ATOM     19  O   UNL     1      -0.828  -2.659  -1.250  0.00  0.00    -0.148 OA
BRANCH  17  20
ATOM     20  N   UNL     1       1.236  -2.079  -0.021  0.00  0.00    -0.095 NA
BRANCH  20  25
ATOM     21  C   UNL     1      -0.017   1.377   0.010  0.00  0.00    +0.002 A 
ATOM     22  C   UNL     1       1.170   2.087   0.002  0.00  0.00    +0.003 A 
ATOM     23  C   UNL     1       2.380   1.418  -0.013  0.00  0.00    +0.040 A 
ATOM     24  C   UNL     1       2.406   0.035  -0.021  0.00  0.00    +0.148 A 
ATOM     25  C   UNL     1       1.214  -0.681  -0.013  0.00  0.00    +0.109 A 
ATOM     26  C   UNL     1       0.002  -0.004   0.002  0.00  0.00    +0.029 A 
ATOM     27  F   UNL     1       3.588  -0.619  -0.036  0.00  0.00    -0.203 F 
ENDBRANCH  20  25
ENDBRANCH  17  20
ENDBRANCH   1  17
TORSDOF 6
