REMARK  Name = ZINC65964609
REMARK  6 active torsions:
REMARK  status: ('A' for Active; 'I' for Inactive)
REMARK    1  A    between atoms: C_1  and  C_2
REMARK    2  A    between atoms: C_3  and  C_26
REMARK    3  A    between atoms: C_8  and  C_10
REMARK    4  A    between atoms: C_10  and  N_11
REMARK    5  A    between atoms: C_14  and  C_17
REMARK    6  A    between atoms: N_19  and  C_20
REMARK                            x       y       z     vdW  Elec       q    Type
REMARK                         _______ _______ _______ _____ _____    ______ ____
ROOT
ATOM      1  N   UNL     1       0.068  -2.595   5.869  0.00  0.00    +0.385 N 
ATOM      2  C   UNL     1      -1.193  -1.851   5.982  0.00  0.00    -0.077 C 
ATOM      3  C   UNL     1      -1.169  -0.988   7.246  0.00  0.00    -0.006 C 
ATOM      4  C   UNL     1      -0.995  -1.891   8.471  0.00  0.00    +0.071 C 
ATOM      5  C   UNL     1       0.284  -2.716   8.307  0.00  0.00    -0.006 C 
ATOM      6  C   UNL     1       0.207  -3.515   7.004  0.00  0.00    -0.077 C 
ATOM      7  H   UNL     1       0.840  -1.945   5.868  0.00  0.00    -0.081 HD
ENDROOT
BRANCH   4   8
ATOM      8  C   UNL     1      -0.892  -1.043   9.712  0.00  0.00    +0.216 C 
ATOM      9  O   UNL     1      -0.952   0.166   9.627  0.00  0.00    -0.276 OA
ATOM     10  N   UNL     1      -0.734  -1.627  10.916  0.00  0.00    -0.312 N 
ATOM     11  H   UNL     1      -0.686  -2.593  10.984  0.00  0.00    +0.149 HD
BRANCH  10  12
ATOM     12  C   UNL     1      -0.634  -0.802  12.123  0.00  0.00    +0.073 C 
ATOM     13  C   UNL     1       0.816  -0.352  12.314  0.00  0.00    +0.022 C 
ATOM     14  C   UNL     1       0.920   0.509  13.574  0.00  0.00    +0.002 C 
ATOM     15  C   UNL     1       0.475  -0.308  14.789  0.00  0.00    +0.000 C 
ATOM     16  C   UNL     1      -0.975  -0.758  14.598  0.00  0.00    +0.002 C 
ATOM     17  C   UNL     1      -1.079  -1.619  13.337  0.00  0.00    +0.022 C 
ENDBRANCH  10  12
ENDBRANCH   4   8
BRANCH   1  18
ATOM     18  C   UNL     1       0.072  -3.361   4.616  0.00  0.00    +0.019 C 
BRANCH  18  26
ATOM     19  C   UNL     1      -0.018   1.503   0.010  0.00  0.00    +0.066 C 
ATOM     20  C   UNL     1       0.002  -0.004   0.002  0.00  0.00    +0.050 A 
ATOM     21  C   UNL     1       0.006  -0.706  -1.158  0.00  0.00    +0.011 A 
ATOM     22  S   UNL     1       0.032  -2.379  -0.535  0.00  0.00    -0.057 S 
ATOM     23  C   UNL     1       0.036  -2.015   1.108  0.00  0.00    +0.165 A 
ATOM     24  N   UNL     1       0.023  -0.700   1.124  0.00  0.00    -0.230 NA
ATOM     25  N   UNL     1       0.053  -2.891   2.187  0.00  0.00    -0.266 N 
ATOM     26  C   UNL     1       0.053  -2.410   3.446  0.00  0.00    +0.202 C 
ATOM     27  O   UNL     1       0.038  -1.213   3.638  0.00  0.00    -0.277 OA
ATOM     28  C   UNL     1      -0.009  -0.210  -2.581  0.00  0.00    +0.053 C 
ATOM     29  H   UNL     1       0.065  -3.849   2.034  0.00  0.00    +0.157 HD
ENDBRANCH  18  26
ENDBRANCH   1  18
TORSDOF 4
