REMARK  Name = ZINC22323849
REMARK  10 active torsions:
REMARK  status: ('A' for Active; 'I' for Inactive)
REMARK    1  A    between atoms: C_1  and  C_2
REMARK    2  A    between atoms: C_2  and  C_3
REMARK    3  A    between atoms: C_2  and  C_4
REMARK    4  A    between atoms: C_4  and  N_5
REMARK    5  A    between atoms: C_15  and  S_16
REMARK    6  A    between atoms: S_16  and  C_17
REMARK    7  A    between atoms: C_17  and  C_19
REMARK    8  A    between atoms: C_17  and  C_22
REMARK    9  A    between atoms: C_19  and  C_20
REMARK   10  A    between atoms: C_19  and  C_21
REMARK                            x       y       z     vdW  Elec       q    Type
REMARK                         _______ _______ _______ _____ _____    ______ ____
ROOT
ATOM      1  N   UNL     1      -2.165   0.946   1.154  0.00  0.00    -0.287 N 
ATOM      2  C   UNL     1      -2.472  -0.225   1.759  0.00  0.00    +0.262 A 
ATOM      3  O   UNL     1      -1.608  -0.927   2.250  0.00  0.00    -0.267 OA
ATOM      4  C   UNL     1      -3.887  -0.618   1.799  0.00  0.00    +0.066 A 
ATOM      5  C   UNL     1      -4.305  -1.805   2.399  0.00  0.00    +0.030 A 
ATOM      6  C   UNL     1      -5.646  -2.124   2.407  0.00  0.00    +0.019 A 
ATOM      7  C   UNL     1      -6.578  -1.273   1.825  0.00  0.00    +0.017 A 
ATOM      8  C   UNL     1      -6.190  -0.105   1.233  0.00  0.00    +0.029 A 
ATOM      9  C   UNL     1      -4.837   0.246   1.208  0.00  0.00    +0.079 A 
ATOM     10  N   UNL     1      -4.414   1.395   0.630  0.00  0.00    -0.223 NA
ATOM     11  C   UNL     1      -3.146   1.725   0.611  0.00  0.00    +0.173 A 
ATOM     12 BR   UNL     1      -6.222  -3.732   3.217  0.00  0.00    -0.050 Br
ENDROOT
BRANCH   1  13
ATOM     13  C   UNL     1      -0.768   1.384   1.087  0.00  0.00    +0.130 C 
BRANCH  13  15
ATOM     14  C   UNL     1       1.332   1.304  -0.264  0.00  0.00    +0.009 C 
ATOM     15  C   UNL     1      -0.126   0.847  -0.194  0.00  0.00    +0.003 C 
ATOM     16  C   UNL     1      -0.887   1.381  -1.409  0.00  0.00    +0.009 C 
ENDBRANCH  13  15
ENDBRANCH   1  13
BRANCH  11  17
ATOM     17  S   UNL     1      -2.685   3.243  -0.157  0.00  0.00    -0.075 S 
BRANCH  17  18
ATOM     18  C   UNL     1      -4.301   3.795  -0.757  0.00  0.00    +0.143 C 
BRANCH  18  19
ATOM     19  C   UNL     1      -5.170   4.172   0.415  0.00  0.00    +0.234 C 
ATOM     20  O   UNL     1      -4.662   4.517   1.460  0.00  0.00    -0.274 OA
ATOM     21  N   UNL     1      -6.512   4.126   0.301  0.00  0.00    -0.239 N 
ATOM     22  C   UNL     1      -7.289   4.464   1.349  0.00  0.00    +0.303 C 
ATOM     23  O   UNL     1      -6.780   4.810   2.397  0.00  0.00    -0.253 OA
ATOM     24  N   UNL     1      -8.632   4.418   1.235  0.00  0.00    -0.313 N 
ATOM     25  H   UNL     1      -6.973   3.813  -0.647  0.00  0.00    +0.159 HD
ATOM     26  H   UNL     1      -9.266   4.693   2.091  0.00  0.00    +0.146 HD
ATOM     27  H   UNL     1      -9.093   4.105   0.287  0.00  0.00    +0.146 HD
ENDBRANCH  18  19
BRANCH  18  28
ATOM     28  C   UNL     1      -4.119   5.010  -1.669  0.00  0.00    +0.005 C 
ATOM     29  C   UNL     1      -3.238   4.626  -2.860  0.00  0.00    +0.009 C 
ATOM     30  C   UNL     1      -5.485   5.478  -2.174  0.00  0.00    +0.009 C 
ENDBRANCH  18  28
ENDBRANCH  17  18
ENDBRANCH  11  17
TORSDOF 6
