REMARK  Name = ZINC35744083
REMARK  15 active torsions:
REMARK  status: ('A' for Active; 'I' for Inactive)
REMARK    1  A    between atoms: C_1  and  C_2
REMARK    2  A    between atoms: C_2  and  C_3
REMARK    3  A    between atoms: C_2  and  C_4
REMARK    4  A    between atoms: C_4  and  C_5
REMARK    5  A    between atoms: C_5  and  N_6
REMARK    6  A    between atoms: N_6  and  C_7
REMARK    7  A    between atoms: N_6  and  C_30
REMARK    8  A    between atoms: C_7  and  C_8
REMARK    9  A    between atoms: N_20  and  C_23
REMARK   10  A    between atoms: C_23  and  C_24
REMARK   11  A    between atoms: C_30  and  C_31
REMARK   12  A    between atoms: C_31  and  C_33
REMARK   13  A    between atoms: C_31  and  O_36
REMARK   14  A    between atoms: C_33  and  O_34
REMARK   15  A    between atoms: O_34  and  C_35
REMARK                            x       y       z     vdW  Elec       q    Type
REMARK                         _______ _______ _______ _____ _____    ______ ____
ROOT
ATOM      1  C   UNL     1      -3.744  -0.491  -0.884  0.00  0.00    +0.094 A 
ATOM      2  N   UNL     1      -4.464   0.201  -1.804  0.00  0.00    -0.312 N 
ATOM      3  H   UNL     1      -4.907  -0.281  -2.520  0.00  0.00    +0.170 HD
ATOM      4  C   UNL     1      -4.574   1.541  -1.744  0.00  0.00    +0.260 A 
ATOM      5  O   UNL     1      -5.225   2.147  -2.578  0.00  0.00    -0.267 OA
ATOM      6  C   UNL     1      -3.915   2.244  -0.683  0.00  0.00    +0.075 A 
ATOM      7  C   UNL     1      -3.893   3.680  -0.420  0.00  0.00    -0.020 A 
ATOM      8  C   UNL     1      -3.190   4.097   0.657  0.00  0.00    +0.010 A 
ATOM      9  S   UNL     1      -2.527   2.618   1.371  0.00  0.00    -0.072 S 
ATOM     10  C   UNL     1      -3.195   1.444   0.219  0.00  0.00    +0.116 A 
ATOM     11  N   UNL     1      -3.137   0.121   0.098  0.00  0.00    -0.229 NA
ATOM     12  C   UNL     1      -3.022   5.510   1.121  0.00  0.00    +0.127 C 
ATOM     13  N   UNL     1      -3.443   6.408   0.029  0.00  0.00    -0.293 NA
ATOM     14  C   UNL     1      -4.753   6.001  -0.500  0.00  0.00    +0.090 C 
ATOM     15  C   UNL     1      -4.619   4.699  -1.294  0.00  0.00    +0.052 C 
ENDROOT
BRANCH   1  16
ATOM     16  C   UNL     1      -3.649  -1.991  -0.993  0.00  0.00    -0.003 C 
BRANCH  16  17
ATOM     17  N   UNL     1      -2.712  -2.497   0.018  0.00  0.00    +0.386 N 
ATOM     18  H   UNL     1      -2.986  -2.162   0.929  0.00  0.00    -0.081 HD
BRANCH  17  19
ATOM     19  C   UNL     1      -1.356  -2.023  -0.290  0.00  0.00    -0.078 C 
BRANCH  19  20
ATOM     20  C   UNL     1      -0.886  -2.642  -1.607  0.00  0.00    -0.016 C 
BRANCH  20  22
ATOM     21  C   UNL     1       1.005  -2.772  -3.235  0.00  0.00    +0.007 C 
ATOM     22  C   UNL     1       0.479  -2.063  -1.985  0.00  0.00    -0.019 C 
ATOM     23  C   UNL     1       0.336  -0.566  -2.270  0.00  0.00    +0.007 C 
ENDBRANCH  20  22
ENDBRANCH  19  20
ENDBRANCH  17  19
BRANCH  17  24
ATOM     24  C   UNL     1      -2.730  -3.966   0.012  0.00  0.00    -0.044 C 
BRANCH  24  25
ATOM     25  C   UNL     1      -1.890  -4.492   1.177  0.00  0.00    +0.124 C 
BRANCH  25  26
ATOM     26  O   UNL     1      -0.515  -4.167   0.958  0.00  0.00    -0.391 OA
ATOM     27  H   UNL     1      -0.146  -4.543   0.147  0.00  0.00    +0.210 HD
ENDBRANCH  25  26
BRANCH  25  28
ATOM     28  C   UNL     1      -2.045  -6.011   1.273  0.00  0.00    +0.188 C 
BRANCH  28  29
ATOM     29  O   UNL     1      -1.355  -6.488   2.429  0.00  0.00    -0.381 OA
ATOM     30  C   UNL     1      -1.438  -7.903   2.613  0.00  0.00    +0.194 C 
ENDBRANCH  28  29
ENDBRANCH  25  28
ENDBRANCH  24  25
ENDBRANCH  17  24
ENDBRANCH  16  17
ENDBRANCH   1  16
BRANCH  13  31
ATOM     31  C   UNL     1      -3.467   7.807   0.476  0.00  0.00    +0.120 C 
BRANCH  31  32
ATOM     32  C   UNL     1      -2.063   8.257   0.790  0.00  0.00    -0.033 A 
ATOM     33  C   UNL     1      -1.554   8.095   2.064  0.00  0.00    +0.005 A 
ATOM     34  C   UNL     1      -0.267   8.508   2.352  0.00  0.00    +0.000 A 
ATOM     35  C   UNL     1       0.511   9.084   1.365  0.00  0.00    +0.000 A 
ATOM     36  C   UNL     1       0.002   9.246   0.090  0.00  0.00    +0.000 A 
ATOM     37  C   UNL     1      -1.284   8.829  -0.199  0.00  0.00    +0.005 A 
ENDBRANCH  31  32
ENDBRANCH  13  31
TORSDOF 12
