REMARK  Name = ZINC65410832
REMARK  9 active torsions:
REMARK  status: ('A' for Active; 'I' for Inactive)
REMARK    1  A    between atoms: C_1  and  C_2
REMARK    2  A    between atoms: C_2  and  C_3
REMARK    3  A    between atoms: C_2  and  C_4
REMARK    4  A    between atoms: C_4  and  C_5
REMARK    5  A    between atoms: N_7  and  C_8
REMARK    6  A    between atoms: C_13  and  O_14
REMARK    7  A    between atoms: O_14  and  C_15
REMARK    8  A    between atoms: C_20  and  C_22
REMARK    9  A    between atoms: C_25  and  N_28
REMARK                            x       y       z     vdW  Elec       q    Type
REMARK                         _______ _______ _______ _____ _____    ______ ____
ROOT
ATOM      1  C   UNL     1      -4.121  -0.077  -2.610  0.00  0.00    +0.076 A 
ATOM      2  C   UNL     1      -3.483   0.647  -3.606  0.00  0.00    +0.032 A 
ATOM      3  C   UNL     1      -4.187   1.065  -4.719  0.00  0.00    -0.020 A 
ATOM      4  C   UNL     1      -5.538   0.767  -4.840  0.00  0.00    +0.040 A 
ATOM      5  C   UNL     1      -6.178   0.034  -3.849  0.00  0.00    +0.071 A 
ATOM      6  C   UNL     1      -5.472  -0.393  -2.738  0.00  0.00    +0.143 A 
ATOM      7  N   UNL     1      -6.261   1.221  -5.948  0.00  0.00    -0.285 N 
ATOM      8  C   UNL     1      -5.752   2.161  -6.763  0.00  0.00    +0.218 C 
ATOM      9  O   UNL     1      -6.348   2.465  -7.775  0.00  0.00    -0.275 OA
ATOM     10  C   UNL     1      -4.450   2.842  -6.431  0.00  0.00    +0.104 C 
ATOM     11  C   UNL     1      -3.484   1.835  -5.807  0.00  0.00    +0.033 C 
ATOM     12  H   UNL     1      -7.140   0.853  -6.131  0.00  0.00    +0.155 HD
ENDROOT
BRANCH  11  13
ATOM     13  C   UNL     1      -2.994   0.865  -6.883  0.00  0.00    -0.003 C 
ATOM     14  C   UNL     1      -2.022  -0.140  -6.259  0.00  0.00    +0.002 C 
ATOM     15  C   UNL     1      -1.532  -1.110  -7.335  0.00  0.00    -0.016 C 
ATOM     16  C   UNL     1      -0.818  -0.329  -8.440  0.00  0.00    -0.075 C 
ATOM     17  C   UNL     1      -1.789   0.676  -9.064  0.00  0.00    -0.016 C 
ATOM     18  C   UNL     1      -2.280   1.646  -7.988  0.00  0.00    +0.002 C 
BRANCH  16  19
ATOM     19  N   UNL     1      -0.347  -1.261  -9.473  0.00  0.00    +0.380 N 
ATOM     20  H   UNL     1      -1.135  -1.754  -9.866  0.00  0.00    -0.090 HD
ATOM     21  H   UNL     1       0.124  -0.745 -10.202  0.00  0.00    -0.090 HD
ATOM     22  H   UNL     1       0.294  -1.923  -9.062  0.00  0.00    -0.090 HD
ENDBRANCH  16  19
ENDBRANCH  11  13
BRANCH   1  25
ATOM     23  C   UNL     1      -2.427   0.280  -0.974  0.00  0.00    +0.218 C 
ATOM     24  O   UNL     1      -2.109   1.302  -1.544  0.00  0.00    -0.275 OA
ATOM     25  N   UNL     1      -3.406  -0.497  -1.479  0.00  0.00    -0.283 N 
ATOM     26  H   UNL     1      -3.616  -1.346  -1.060  0.00  0.00    +0.155 HD
BRANCH  23  27
ATOM     27  C   UNL     1      -1.727  -0.123   0.298  0.00  0.00    +0.099 C 
BRANCH  27  29
ATOM     28  C   UNL     1      -1.349   2.255   0.967  0.00  0.00    +0.008 C 
ATOM     29  C   UNL     1      -0.666   0.923   0.649  0.00  0.00    -0.008 C 
ATOM     30  C   UNL     1       0.128   0.454   1.869  0.00  0.00    +0.008 C 
ENDBRANCH  27  29
ENDBRANCH  23  27
ENDBRANCH   1  25
BRANCH   6  31
ATOM     31  O   UNL     1      -6.097  -1.113  -1.769  0.00  0.00    -0.493 OA
ATOM     32  C   UNL     1      -7.483  -1.400  -1.966  0.00  0.00    +0.277 C 
ENDBRANCH   6  31
TORSDOF 6
