REMARK  Name = ZINC48705840
REMARK  5 active torsions:
REMARK  status: ('A' for Active; 'I' for Inactive)
REMARK    1  A    between atoms: C_1  and  C_2
REMARK    2  A    between atoms: C_5  and  S_8
REMARK    3  A    between atoms: S_8  and  C_9
REMARK    4  A    between atoms: C_9  and  C_11
REMARK    5  A    between atoms: C_9  and  C_12
REMARK                            x       y       z     vdW  Elec       q    Type
REMARK                         _______ _______ _______ _____ _____    ______ ____
ROOT
ATOM      1  C   UNL     1      -5.030   2.422  -1.621  0.00  0.00    +0.081 C 
ATOM      2  C   UNL     1      -5.050   0.933  -1.274  0.00  0.00    +0.024 C 
ENDROOT
BRANCH   1   3
ATOM      3  C   UNL     1      -6.430   2.883  -1.937  0.00  0.00    -0.033 A 
ATOM      4  C   UNL     1      -7.130   2.302  -2.978  0.00  0.00    +0.006 A 
ATOM      5  C   UNL     1      -8.414   2.724  -3.269  0.00  0.00    +0.022 A 
ATOM      6  C   UNL     1      -8.998   3.728  -2.519  0.00  0.00    +0.059 A 
ATOM      7  C   UNL     1      -8.297   4.310  -1.477  0.00  0.00    +0.060 A 
ATOM      8  C   UNL     1      -7.015   3.883  -1.183  0.00  0.00    +0.026 A 
ATOM      9 CL   UNL     1      -9.030   5.571  -0.535  0.00  0.00    -0.082 Cl
ATOM     10 CL   UNL     1     -10.610   4.259  -2.885  0.00  0.00    -0.082 Cl
ENDBRANCH   1   3
BRANCH   1  11
ATOM     11  S   UNL     1      -3.964   2.692  -3.064  0.00  0.00    -0.079 S 
BRANCH  11  16
ATOM     12  C   UNL     1      -0.013   1.086   0.008  0.00  0.00    +0.090 C 
ATOM     13  C   UNL     1      -0.742   1.585  -1.213  0.00  0.00    +0.149 A 
ATOM     14  N   UNL     1      -2.051   1.825  -1.287  0.00  0.00    -0.206 NA
ATOM     15  H   UNL     1      -1.127   2.558  -4.147  0.00  0.00    +0.191 HD
ATOM     16  C   UNL     1      -2.356   2.250  -2.495  0.00  0.00    +0.185 A 
ATOM     17  N   UNL     1      -1.218   2.286  -3.221  0.00  0.00    -0.254 N 
ATOM     18  N   UNL     1      -0.191   1.857  -2.365  0.00  0.00    -0.157 NA
ENDBRANCH  11  16
ENDBRANCH   1  11
TORSDOF 3
