REMARK  Name = ZINC08772603
REMARK  12 active torsions:
REMARK  status: ('A' for Active; 'I' for Inactive)
REMARK    1  A    between atoms: C_1  and  C_2
REMARK    2  A    between atoms: C_2  and  C_3
REMARK    3  A    between atoms: C_3  and  C_4
REMARK    4  A    between atoms: C_4  and  N_5
REMARK    5  A    between atoms: C_6  and  N_32
REMARK    6  A    between atoms: C_7  and  N_14
REMARK    7  A    between atoms: N_14  and  C_15
REMARK    8  A    between atoms: C_16  and  C_18
REMARK    9  A    between atoms: C_18  and  C_19
REMARK   10  A    between atoms: C_22  and  C_24
REMARK   11  A    between atoms: C_27  and  C_31
REMARK   12  A    between atoms: C_29  and  C_30
REMARK                            x       y       z     vdW  Elec       q    Type
REMARK                         _______ _______ _______ _____ _____    ______ ____
ROOT
ATOM      1  N   UNL     1       1.170  -1.435  -7.519  0.00  0.00    -0.267 N 
ATOM      2  C   UNL     1       0.224  -1.120  -8.592  0.00  0.00    +0.138 C 
ATOM      3  C   UNL     1       1.231  -0.653  -6.421  0.00  0.00    +0.226 C 
ATOM      4  O   UNL     1       2.077  -0.858  -5.576  0.00  0.00    -0.275 OA
ENDROOT
BRANCH   1   7
ATOM      5  N   UNL     1       2.712  -4.716  -6.920  0.00  0.00    -0.280 N 
ATOM      6  C   UNL     1       1.875  -3.634  -6.780  0.00  0.00    +0.127 A 
ATOM      7  C   UNL     1       2.017  -2.558  -7.633  0.00  0.00    +0.139 A 
ATOM      8  C   UNL     1       3.026  -2.597  -8.614  0.00  0.00    +0.277 A 
ATOM      9  O   UNL     1       3.176  -1.658  -9.377  0.00  0.00    -0.266 OA
ATOM     10  N   UNL     1       3.823  -3.680  -8.704  0.00  0.00    -0.273 N 
ATOM     11  H   UNL     1       4.540  -3.708  -9.401  0.00  0.00    +0.173 HD
ATOM     12  C   UNL     1       3.666  -4.721  -7.869  0.00  0.00    +0.331 A 
ATOM     13  O   UNL     1       4.399  -5.686  -7.973  0.00  0.00    -0.246 OA
BRANCH   6  14
ATOM     14  N   UNL     1       0.904  -3.626  -5.807  0.00  0.00    -0.343 N 
ATOM     15  H   UNL     1       0.249  -2.912  -5.781  0.00  0.00    +0.144 HD
ATOM     16  H   UNL     1       0.875  -4.336  -5.146  0.00  0.00    +0.144 HD
ENDBRANCH   6  14
BRANCH   5  17
ATOM     17  C   UNL     1       2.569  -5.868  -6.026  0.00  0.00    +0.128 C 
BRANCH  17  18
ATOM     18  C   UNL     1       3.444  -5.664  -4.787  0.00  0.00    +0.021 C 
BRANCH  18  20
ATOM     19  C   UNL     1       4.169  -6.663  -2.615  0.00  0.00    +0.004 C 
ATOM     20  C   UNL     1       3.294  -6.867  -3.853  0.00  0.00    -0.002 C 
ENDBRANCH  18  20
ENDBRANCH  17  18
ENDBRANCH   5  17
ENDBRANCH   1   7
BRANCH   3  21
ATOM     21  C   UNL     1       0.249   0.477  -6.246  0.00  0.00    +0.152 C 
BRANCH  21  22
ATOM     22  C   UNL     1       0.530   1.190  -4.948  0.00  0.00    +0.058 A 
ATOM     23  C   UNL     1       0.750   2.532  -4.943  0.00  0.00    +0.071 A 
ATOM     24  S   UNL     1       1.018   2.815  -3.197  0.00  0.00    -0.075 S 
ATOM     25  C   UNL     1       0.809   1.120  -2.667  0.00  0.00    +0.109 A 
ATOM     26  N   UNL     1       0.569   0.516  -3.823  0.00  0.00    -0.243 NA
BRANCH  25  27
ATOM     27  C   UNL     1       0.890   0.545  -1.307  0.00  0.00    +0.010 A 
ATOM     28  C   UNL     1       0.199   1.143  -0.252  0.00  0.00    +0.011 A 
ATOM     29  C   UNL     1       0.282   0.604   1.015  0.00  0.00    +0.004 A 
ATOM     30  C   UNL     1       1.044  -0.528   1.241  0.00  0.00    -0.050 A 
ATOM     31  C   UNL     1       1.728  -1.128   0.198  0.00  0.00    +0.007 A 
ATOM     32  C   UNL     1       1.653  -0.600  -1.074  0.00  0.00    -0.041 A 
ATOM     33  C   UNL     1       2.398  -1.254  -2.209  0.00  0.00    +0.044 C 
ATOM     34  C   UNL     1       1.131  -1.111   2.628  0.00  0.00    +0.044 C 
ENDBRANCH  25  27
ENDBRANCH  21  22
ENDBRANCH   3  21
TORSDOF 8
