REMARK  Name = ZINC20509272
REMARK  6 active torsions:
REMARK  status: ('A' for Active; 'I' for Inactive)
REMARK    1  A    between atoms: C_1  and  C_2
REMARK    2  A    between atoms: C_5  and  C_8
REMARK    3  A    between atoms: C_12  and  O_13
REMARK    4  A    between atoms: N_14  and  C_15
REMARK    5  A    between atoms: C_18  and  O_21
REMARK    6  A    between atoms: O_21  and  C_22
REMARK                            x       y       z     vdW  Elec       q    Type
REMARK                         _______ _______ _______ _____ _____    ______ ____
ROOT
ATOM      1  C   UNL     1       0.058  -4.248  -0.021  0.00  0.00    +0.055 C 
ATOM      2  C   UNL     1      -0.889  -5.288   0.420  0.00  0.00    +0.102 C 
ATOM      3  C   UNL     1       0.092  -6.301  -0.037  0.00  0.00    +0.244 C 
ATOM      4  O   UNL     1       0.144  -7.516  -0.062  0.00  0.00    -0.282 OA
ATOM      5  C   UNL     1       0.972  -5.199  -0.452  0.00  0.00    +0.176 C 
ATOM      6  N   UNL     1      -2.077  -5.309   0.973  0.00  0.00    -0.351 N 
ATOM      7  H   UNL     1      -2.529  -4.476   1.184  0.00  0.00    +0.166 HD
ENDROOT
BRANCH   1  12
ATOM      8  C   UNL     1      -0.018   1.503   0.010  0.00  0.00    +0.044 C 
ATOM      9  C   UNL     1       0.002  -0.004   0.002  0.00  0.00    -0.050 A 
ATOM     10  C   UNL     1       0.006  -0.686  -1.202  0.00  0.00    +0.004 A 
ATOM     11  C   UNL     1       0.024  -2.065  -1.218  0.00  0.00    +0.009 A 
ATOM     12  C   UNL     1       0.039  -2.774  -0.013  0.00  0.00    -0.012 A 
ATOM     13  C   UNL     1       0.036  -2.078   1.199  0.00  0.00    +0.009 A 
ATOM     14  C   UNL     1       0.023  -0.699   1.199  0.00  0.00    +0.004 A 
ENDBRANCH   1  12
BRANCH   6  15
ATOM     15  C   UNL     1      -2.681  -6.503   1.254  0.00  0.00    +0.040 A 
ATOM     16  C   UNL     1      -2.669  -7.533   0.310  0.00  0.00    +0.029 A 
ATOM     17  C   UNL     1      -3.278  -8.736   0.597  0.00  0.00    +0.048 A 
ATOM     18  C   UNL     1      -3.902  -8.925   1.823  0.00  0.00    +0.130 A 
ATOM     19  C   UNL     1      -3.917  -7.904   2.764  0.00  0.00    +0.048 A 
ATOM     20  C   UNL     1      -3.306  -6.700   2.488  0.00  0.00    +0.029 A 
BRANCH  18  21
ATOM     21  O   UNL     1      -4.502 -10.112   2.102  0.00  0.00    -0.406 OA
BRANCH  21  22
ATOM     22  C   UNL     1      -5.125 -10.240   3.381  0.00  0.00    +0.575 C 
ATOM     23  F   UNL     1      -6.129  -9.273   3.509  0.00  0.00    -0.133 F 
ATOM     24  F   UNL     1      -5.688 -11.515   3.501  0.00  0.00    -0.133 F 
ATOM     25  F   UNL     1      -4.170 -10.055   4.386  0.00  0.00    -0.133 F 
ENDBRANCH  21  22
ENDBRANCH  18  21
ENDBRANCH   6  15
BRANCH   5  26
ATOM     26  O   UNL     1       2.194  -5.136  -1.029  0.00  0.00    -0.503 OA
ATOM     27  H   UNL     1       2.586  -6.001  -1.214  0.00  0.00    +0.292 HD
ENDBRANCH   5  26
TORSDOF 5
