REMARK  Name = ZINC53778922
REMARK  3 active torsions:
REMARK  status: ('A' for Active; 'I' for Inactive)
REMARK    1  A    between atoms: C_9  and  C_13
REMARK    2  A    between atoms: C_13  and  N_14
REMARK    3  A    between atoms: C_20  and  C_22
REMARK                            x       y       z     vdW  Elec       q    Type
REMARK                         _______ _______ _______ _____ _____    ______ ____
ROOT
ATOM      1  C   UNL     1       0.508   1.964   0.022  0.00  0.00    +0.005 C 
ATOM      2  C   UNL     1       2.000   2.278  -0.123  0.00  0.00    +0.005 C 
ATOM      3  C   UNL     1       2.702   1.946   1.201  0.00  0.00    +0.043 C 
ATOM      4  C   UNL     1       2.257   0.588   1.648  0.00  0.00    -0.004 A 
ATOM      5  C   UNL     1       1.200  -0.120   1.189  0.00  0.00    -0.025 A 
ATOM      6  C   UNL     1       0.979  -1.425   1.789  0.00  0.00    +0.051 A 
ATOM      7  C   UNL     1      -0.059  -2.350   1.479  0.00  0.00    +0.128 A 
ATOM      8  N   UNL     1      -0.048  -3.488   2.170  0.00  0.00    -0.216 NA
ATOM      9  C   UNL     1       0.847  -3.781   3.092  0.00  0.00    +0.146 A 
ATOM     10  N   UNL     1       1.838  -2.965   3.431  0.00  0.00    -0.223 NA
ATOM     11  C   UNL     1       1.902  -1.813   2.793  0.00  0.00    +0.114 A 
ATOM     12  S   UNL     1       3.004  -0.439   2.889  0.00  0.00    -0.073 S 
ATOM     13  N   UNL     1      -1.019  -2.083   0.519  0.00  0.00    -0.343 N 
ATOM     14  C   UNL     1       0.301   0.451   0.095  0.00  0.00    +0.037 C 
ATOM     15  H   UNL     1      -0.874  -1.374  -0.127  0.00  0.00    +0.144 HD
ATOM     16  H   UNL     1      -1.836  -2.604   0.492  0.00  0.00    +0.144 HD
ENDROOT
BRANCH   9  17
ATOM     17  C   UNL     1       0.740  -5.108   3.799  0.00  0.00    +0.160 C 
BRANCH  17  18
ATOM     18  N   UNL     1       1.511  -6.118   3.062  0.00  0.00    -0.292 NA
ATOM     19  C   UNL     1       0.922  -6.369   1.740  0.00  0.00    +0.104 C 
ATOM     20  C   UNL     1       1.850  -7.286   0.936  0.00  0.00    +0.123 C 
ATOM     21  N   UNL     1       2.122  -8.491   1.735  0.00  0.00    -0.297 N 
ATOM     22  C   UNL     1       2.585  -8.318   3.120  0.00  0.00    +0.123 C 
ATOM     23  C   UNL     1       1.628  -7.360   3.837  0.00  0.00    +0.104 C 
ATOM     24  C   UNL     1       1.951  -9.721   1.211  0.00  0.00    +0.245 C 
ATOM     25  O   UNL     1       2.090 -10.703   1.910  0.00  0.00    -0.273 OA
BRANCH  24  26
ATOM     26  C   UNL     1       1.587  -9.877  -0.243  0.00  0.00    +0.204 C 
ATOM     27  C   UNL     1       2.793  -9.504  -1.142  0.00  0.00    +0.043 C 
ATOM     28  C   UNL     1       2.465 -10.313  -2.426  0.00  0.00    +0.031 C 
ATOM     29  C   UNL     1       1.788 -11.577  -1.853  0.00  0.00    +0.161 C 
ATOM     30  O   UNL     1       1.307 -11.254  -0.541  0.00  0.00    -0.367 OA
ENDBRANCH  24  26
ENDBRANCH  17  18
ENDBRANCH   9  17
TORSDOF 3
