REMARK  Name = ZINC14084808
REMARK  3 active torsions:
REMARK  status: ('A' for Active; 'I' for Inactive)
REMARK    1  A    between atoms: C_4  and  C_7
REMARK    2  A    between atoms: C_12  and  C_14
REMARK    3  A    between atoms: C_14  and  N_15
REMARK                            x       y       z     vdW  Elec       q    Type
REMARK                         _______ _______ _______ _____ _____    ______ ____
ROOT
ATOM      1  N   UNL     1       7.868   2.585  -0.054  0.00  0.00    -0.215 N 
ATOM      2  C   UNL     1       8.636   2.555   1.057  0.00  0.00    +0.251 C 
ATOM      3  O   UNL     1       8.263   2.562   2.211  0.00  0.00    -0.272 OA
ATOM      4  C   UNL     1      10.056   2.514   0.555  0.00  0.00    +0.138 C 
ATOM      5  C   UNL     1      10.859   3.720   1.058  0.00  0.00    +0.045 C 
ATOM      6  C   UNL     1      11.566   3.144   2.305  0.00  0.00    +0.038 C 
ATOM      7  C   UNL     1      11.658   1.653   2.057  0.00  0.00    -0.042 A 
ATOM      8  C   UNL     1      10.783   1.291   1.046  0.00  0.00    -0.012 A 
ATOM      9  C   UNL     1      10.698  -0.034   0.654  0.00  0.00    +0.006 A 
ATOM     10  C   UNL     1      11.482  -0.994   1.264  0.00  0.00    +0.000 A 
ATOM     11  C   UNL     1      12.357  -0.632   2.271  0.00  0.00    +0.000 A 
ATOM     12  C   UNL     1      12.443   0.689   2.666  0.00  0.00    +0.004 A 
ATOM     13  N   UNL     1       9.933   2.525  -0.903  0.00  0.00    -0.281 N 
ATOM     14  C   UNL     1       8.611   2.562  -1.168  0.00  0.00    +0.310 C 
ATOM     15  O   UNL     1       8.147   2.577  -2.291  0.00  0.00    -0.252 OA
ATOM     16  H   UNL     1      10.656   2.505  -1.549  0.00  0.00    +0.152 HD
ENDROOT
BRANCH   1  17
ATOM     17  C   UNL     1       6.404   2.630  -0.041  0.00  0.00    +0.215 C 
BRANCH  17  23
ATOM     18  C   UNL     1       2.417   3.937   0.001  0.00  0.00    +0.068 C 
ATOM     19  N   UNL     1       3.595   3.418  -0.007  0.00  0.00    -0.181 NA
ATOM     20  N   UNL     1       4.629   4.353  -0.017  0.00  0.00    -0.191 N 
ATOM     21  C   UNL     1       4.047   5.705  -0.004  0.00  0.00    +0.141 C 
ATOM     22  C   UNL     1       2.528   5.445   0.008  0.00  0.00    +0.078 C 
ATOM     23  C   UNL     1       5.946   4.066  -0.029  0.00  0.00    +0.253 C 
ATOM     24  O   UNL     1       6.762   4.963  -0.031  0.00  0.00    -0.272 OA
BRANCH  18  28
ATOM     25  C   UNL     1      -1.221   1.750   0.017  0.00  0.00    +0.000 A 
ATOM     26  C   UNL     1      -0.013   1.076   0.008  0.00  0.00    +0.001 A 
ATOM     27  C   UNL     1       1.173   1.780   0.000  0.00  0.00    +0.010 A 
ATOM     28  C   UNL     1       1.153   3.177   0.008  0.00  0.00    -0.002 A 
ATOM     29  C   UNL     1      -0.071   3.850   0.023  0.00  0.00    +0.010 A 
ATOM     30  C   UNL     1      -1.249   3.133   0.031  0.00  0.00    +0.001 A 
ENDBRANCH  18  28
ENDBRANCH  17  23
ENDBRANCH   1  17
TORSDOF 3
