REMARK  Name = ZINC07728239
REMARK  13 active torsions:
REMARK  status: ('A' for Active; 'I' for Inactive)
REMARK    1  A    between atoms: C_1  and  C_2
REMARK    2  A    between atoms: C_3  and  C_28
REMARK    3  A    between atoms: C_4  and  C_27
REMARK    4  A    between atoms: C_5  and  S_10
REMARK    5  A    between atoms: C_6  and  C_9
REMARK    6  A    between atoms: C_7  and  C_8
REMARK    7  A    between atoms: S_10  and  N_13
REMARK    8  A    between atoms: C_19  and  C_20
REMARK    9  A    between atoms: C_19  and  N_66
REMARK   10  A    between atoms: N_22  and  C_23
REMARK   11  A    between atoms: C_23  and  C_24
REMARK   12  A    between atoms: C_23  and  C_25
REMARK   13  A    between atoms: C_23  and  C_26
REMARK                            x       y       z     vdW  Elec       q    Type
REMARK                         _______ _______ _______ _____ _____    ______ ____
ROOT
ATOM      1  N   UNL     1      -0.390   1.758   1.226  0.00  0.00    -0.178 NA
ATOM      2  C   UNL     1       0.234   3.019   1.511  0.00  0.00    +0.107 C 
ATOM      3  C   UNL     1      -0.577   4.286   1.140  0.00  0.00    -0.001 C 
ATOM      4  C   UNL     1      -1.267   4.081  -0.231  0.00  0.00    -0.077 C 
ATOM      5  C   UNL     1      -0.851   1.974  -1.106  0.00  0.00    -0.061 C 
ATOM      6  C   UNL     1      -0.170   1.127  -0.119  0.00  0.00    +0.091 C 
ATOM      7  N   UNL     1      -0.402   3.358  -1.112  0.00  0.00    +0.386 N 
ATOM      8  H   UNL     1       0.565   3.411  -0.769  0.00  0.00    -0.081 HD
ENDROOT
BRANCH   1   9
ATOM      9  S   UNL     1      -1.340   1.013   2.360  0.00  0.00    +0.061 S 
ATOM     10  O   UNL     1      -1.912   2.045   3.152  0.00  0.00    -0.153 OA
ATOM     11  O   UNL     1      -2.131   0.060   1.664  0.00  0.00    -0.153 OA
BRANCH   9  16
ATOM     12  C   UNL     1       2.333  -2.111   5.987  0.00  0.00    +0.044 C 
ATOM     13  C   UNL     1       1.415  -1.330   5.082  0.00  0.00    -0.044 A 
ATOM     14  C   UNL     1       1.088  -1.829   3.834  0.00  0.00    -0.043 A 
ATOM     15  C   UNL     1       0.247  -1.113   3.003  0.00  0.00    -0.021 A 
ATOM     16  C   UNL     1      -0.268   0.101   3.420  0.00  0.00    +0.112 A 
ATOM     17  C   UNL     1       0.063   0.601   4.665  0.00  0.00    -0.021 A 
ATOM     18  C   UNL     1       0.901  -0.116   5.497  0.00  0.00    -0.043 A 
ATOM     19  C   UNL     1       1.259   0.427   6.857  0.00  0.00    +0.044 C 
ATOM     20  C   UNL     1      -0.493   1.927   5.116  0.00  0.00    +0.046 C 
ATOM     21  C   UNL     1      -0.110  -1.655   1.643  0.00  0.00    +0.046 C 
ATOM     22  C   UNL     1       1.648  -3.152   3.381  0.00  0.00    +0.044 C 
ENDBRANCH   9  16
ENDBRANCH   1   9
BRANCH   7  23
ATOM     23  C   UNL     1      -0.461   3.920  -2.484  0.00  0.00    +0.019 C 
BRANCH  23  24
ATOM     24  C   UNL     1       0.238   5.254  -2.514  0.00  0.00    +0.197 C 
ATOM     25  O   UNL     1       0.741   5.699  -1.504  0.00  0.00    -0.278 OA
ATOM     26  N   UNL     1       0.303   5.955  -3.664  0.00  0.00    -0.312 N 
ATOM     27  H   UNL     1      -0.099   5.599  -4.472  0.00  0.00    +0.149 HD
BRANCH  26  28
ATOM     28  C   UNL     1       0.983   7.252  -3.694  0.00  0.00    +0.026 C 
ATOM     29  C   UNL     1       2.447   7.071  -3.287  0.00  0.00    +0.031 C 
ATOM     30  C   UNL     1       0.914   7.832  -5.108  0.00  0.00    +0.031 C 
ATOM     31  C   UNL     1       0.297   8.209  -2.717  0.00  0.00    +0.031 C 
ENDBRANCH  26  28
ENDBRANCH  23  24
ENDBRANCH   7  23
TORSDOF 5
