REMARK  Name = ZINC38740428
REMARK  5 active torsions:
REMARK  status: ('A' for Active; 'I' for Inactive)
REMARK    1  A    between atoms: C_1  and  C_2
REMARK    2  A    between atoms: C_10  and  N_19
REMARK    3  A    between atoms: C_12  and  C_14
REMARK    4  A    between atoms: C_20  and  C_22
REMARK    5  A    between atoms: C_24  and  C_34
REMARK                            x       y       z     vdW  Elec       q    Type
REMARK                         _______ _______ _______ _____ _____    ______ ____
ROOT
ATOM      1  C   UNL     1      -0.454   1.475  -0.052  0.00  0.00    +0.066 C 
ATOM      2  C   UNL     1      -0.363  -0.029  -0.056  0.00  0.00    +0.047 A 
ATOM      3  C   UNL     1      -0.327  -0.724  -1.251  0.00  0.00    +0.095 A 
ATOM      4  C   UNL     1      -0.243  -2.115  -1.209  0.00  0.00    +0.275 A 
ATOM      5  O   UNL     1      -0.205  -2.836  -2.356  0.00  0.00    -0.266 OA
ATOM      6  N   UNL     1      -0.200  -2.722  -0.029  0.00  0.00    -0.172 NA
ATOM      7  C   UNL     1      -0.237  -2.022   1.093  0.00  0.00    +0.256 A 
ATOM      8  N   UNL     1      -0.311  -0.700   1.084  0.00  0.00    -0.216 NA
ATOM      9  N   UNL     1      -0.191  -2.691   2.313  0.00  0.00    -0.183 N 
ATOM     10  C   UNL     1      -0.103  -4.042   2.483  0.00  0.00    +0.132 A 
ATOM     11  C   UNL     1      -0.083  -4.288   3.818  0.00  0.00    +0.074 A 
ATOM     12  C   UNL     1      -0.162  -3.050   4.487  0.00  0.00    +0.102 A 
ATOM     13  N   UNL     1      -0.220  -2.095   3.580  0.00  0.00    -0.162 NA
ENDROOT
BRANCH  12  14
ATOM     14  C   UNL     1      -0.171  -2.854   5.953  0.00  0.00    +0.039 A 
ATOM     15  C   UNL     1      -0.250  -1.689   6.668  0.00  0.00    +0.018 A 
ATOM     16  C   UNL     1      -0.241  -1.755   8.044  0.00  0.00    +0.008 A 
ATOM     17  C   UNL     1      -0.155  -2.968   8.648  0.00  0.00    +0.046 A 
ATOM     18  S   UNL     1      -0.089  -4.077   7.251  0.00  0.00    -0.095 S 
ENDBRANCH  12  14
BRANCH  10  19
ATOM     19  N   UNL     1      -0.044  -4.996   1.470  0.00  0.00    -0.267 N 
ATOM     20  C   UNL     1       0.041  -6.305   1.781  0.00  0.00    +0.263 C 
ATOM     21  O   UNL     1       0.160  -6.647   2.938  0.00  0.00    -0.271 OA
ATOM     22  H   UNL     1      -0.065  -4.719   0.540  0.00  0.00    +0.156 HD
BRANCH  20  23
ATOM     23  C   UNL     1      -0.010  -7.343   0.690  0.00  0.00    +0.299 C 
ATOM     24  C   UNL     1       1.315  -7.346  -0.085  0.00  0.00    +0.220 C 
ATOM     25  O   UNL     1       1.237  -8.351  -1.102  0.00  0.00    -0.481 OA
ATOM     26  C   UNL     1       0.751  -9.566  -0.725  0.00  0.00    +0.163 A 
ATOM     27  C   UNL     1       0.979 -10.670  -1.533  0.00  0.00    +0.049 A 
ATOM     28  C   UNL     1       0.490 -11.909  -1.166  0.00  0.00    +0.004 A 
ATOM     29  C   UNL     1      -0.229 -12.051   0.006  0.00  0.00    +0.004 A 
ATOM     30  C   UNL     1      -0.459 -10.955   0.816  0.00  0.00    +0.049 A 
ATOM     31  C   UNL     1       0.033  -9.709   0.455  0.00  0.00    +0.163 A 
ATOM     32  O   UNL     1      -0.196  -8.640   1.267  0.00  0.00    -0.472 OA
ATOM     33  C   UNL     1       1.539  -5.976  -0.728  0.00  0.00    +0.056 C 
ENDBRANCH  20  23
ENDBRANCH  10  19
TORSDOF 3
