REMARK  Name = ZINC63708314
REMARK  11 active torsions:
REMARK  status: ('A' for Active; 'I' for Inactive)
REMARK    1  A    between atoms: C_1  and  C_2
REMARK    2  A    between atoms: C_2  and  C_3
REMARK    3  A    between atoms: C_3  and  C_5
REMARK    4  A    between atoms: C_3  and  S_15
REMARK    5  A    between atoms: N_7  and  C_8
REMARK    6  A    between atoms: S_15  and  C_16
REMARK    7  A    between atoms: C_28  and  C_30
REMARK    8  A    between atoms: C_30  and  C_31
REMARK    9  A    between atoms: C_31  and  C_32
REMARK   10  A    between atoms: C_33  and  C_39
REMARK   11  A    between atoms: C_36  and  C_38
REMARK                            x       y       z     vdW  Elec       q    Type
REMARK                         _______ _______ _______ _____ _____    ______ ____
ROOT
ATOM      1  C   UNL     1      -0.072   2.028  -2.942  0.00  0.00    +0.249 C 
ATOM      2  N   UNL     1      -0.596   2.480  -1.647  0.00  0.00    -0.356 N 
ATOM      3  C   UNL     1       0.170   3.212  -0.850  0.00  0.00    +0.048 A 
ATOM      4  C   UNL     1      -0.313   3.658   0.400  0.00  0.00    +0.026 A 
ATOM      5  C   UNL     1       0.489   4.408   1.202  0.00  0.00    +0.002 A 
ATOM      6  C   UNL     1       1.784   4.752   0.822  0.00  0.00    +0.001 A 
ATOM      7  C   UNL     1       2.308   4.354  -0.370  0.00  0.00    +0.013 A 
ATOM      8  C   UNL     1       1.534   3.576  -1.247  0.00  0.00    +0.038 A 
ATOM      9  C   UNL     1       2.059   3.155  -2.485  0.00  0.00    +0.128 C 
ATOM     10  N   UNL     1       1.289   2.398  -3.327  0.00  0.00    -0.204 N 
ATOM     11  N   UNL     1       2.076   2.141  -4.457  0.00  0.00    -0.249 N 
ATOM     12  C   UNL     1       3.264   2.748  -4.244  0.00  0.00    +0.090 C 
ATOM     13  N   UNL     1       3.244   3.342  -3.079  0.00  0.00    -0.332 N 
ATOM     14  H   UNL     1       1.819   1.628  -5.239  0.00  0.00    +0.171 HD
ATOM     15  H   UNL     1      -1.497   2.244  -1.375  0.00  0.00    +0.162 HD
ATOM     16  H   UNL     1       3.981   3.847  -2.700  0.00  0.00    +0.168 HD
ENDROOT
BRANCH   1  17
ATOM     17  S   UNL     1      -0.175   0.217  -2.970  0.00  0.00    -0.103 S 
BRANCH  17  18
ATOM     18  C   UNL     1       0.935  -0.306  -1.634  0.00  0.00    +0.136 C 
BRANCH  18  19
ATOM     19  C   UNL     1       2.366  -0.132  -2.072  0.00  0.00    +0.230 C 
ATOM     20  O   UNL     1       2.634  -0.053  -3.253  0.00  0.00    -0.274 OA
ATOM     21  N   UNL     1       3.349  -0.062  -1.153  0.00  0.00    -0.285 N 
ATOM     22  H   UNL     1       3.129  -0.055  -0.208  0.00  0.00    +0.155 HD
BRANCH  21  23
ATOM     23  C   UNL     1       4.687  -0.001  -1.561  0.00  0.00    +0.034 A 
ATOM     24  C   UNL     1       5.610   0.717  -0.812  0.00  0.00    +0.026 A 
ATOM     25  C   UNL     1       6.929   0.776  -1.217  0.00  0.00    +0.040 A 
ATOM     26  C   UNL     1       7.332   0.121  -2.368  0.00  0.00    +0.124 A 
ATOM     27  C   UNL     1       6.413  -0.596  -3.116  0.00  0.00    +0.040 A 
ATOM     28  C   UNL     1       5.094  -0.663  -2.712  0.00  0.00    +0.026 A 
ATOM     29  F   UNL     1       8.622   0.181  -2.763  0.00  0.00    -0.205 F 
ENDBRANCH  21  23
ENDBRANCH  18  19
BRANCH  18  31
ATOM     30  C   UNL     1      -0.732  -1.934  -0.732  0.00  0.00    +0.005 C 
ATOM     31  C   UNL     1       0.678  -1.778  -1.305  0.00  0.00    +0.020 C 
ENDBRANCH  18  31
ENDBRANCH  17  18
ENDBRANCH   1  17
BRANCH  12  32
ATOM     32  C   UNL     1       4.431   2.741  -5.198  0.00  0.00    +0.075 C 
BRANCH  32  33
ATOM     33  C   UNL     1       4.324   3.939  -6.144  0.00  0.00    +0.042 C 
BRANCH  33  34
ATOM     34  C   UNL     1       5.490   3.931  -7.098  0.00  0.00    -0.021 C 
ATOM     35  C   UNL     1       5.539   3.428  -8.333  0.00  0.00    +0.061 C 
ATOM     36  N   UNL     1       6.762   3.611  -8.879  0.00  0.00    -0.159 NA
ATOM     37  N   UNL     1       7.567   4.191  -8.146  0.00  0.00    -0.180 NA
ATOM     38  C   UNL     1       6.881   4.500  -6.880  0.00  0.00    +0.153 C 
ATOM     39  C   UNL     1       7.574   3.802  -5.708  0.00  0.00    +0.039 C 
ATOM     40  C   UNL     1       4.387   2.748  -9.026  0.00  0.00    +0.067 C 
ENDBRANCH  33  34
ENDBRANCH  32  33
ENDBRANCH  12  32
TORSDOF 8
