REMARK  Name = ZINC04259062
REMARK  5 active torsions:
REMARK  status: ('A' for Active; 'I' for Inactive)
REMARK    1  A    between atoms: C_1  and  O_2
REMARK    2  A    between atoms: O_2  and  C_3
REMARK    3  A    between atoms: C_6  and  N_9
REMARK    4  A    between atoms: C_23  and  N_28
REMARK    5  A    between atoms: C_29  and  C_31
REMARK                            x       y       z     vdW  Elec       q    Type
REMARK                         _______ _______ _______ _____ _____    ______ ____
ROOT
ATOM      1  N   UNL     1       1.912   1.029   3.669  0.00  0.00    -0.269 N 
ATOM      2  C   UNL     1       2.295   2.321   3.643  0.00  0.00    +0.306 C 
ATOM      3  O   UNL     1       1.992   3.063   4.557  0.00  0.00    -0.252 OA
ATOM      4  N   UNL     1       3.015   2.790   2.604  0.00  0.00    -0.284 N 
ATOM      5  C   UNL     1       3.483   1.885   1.547  0.00  0.00    +0.114 C 
ATOM      6  C   UNL     1       3.118   2.441   0.178  0.00  0.00    +0.027 C 
ATOM      7  C   UNL     1       3.547   3.903   0.045  0.00  0.00    +0.018 C 
ATOM      8  C   UNL     1       2.845   4.713   1.138  0.00  0.00    +0.054 C 
ATOM      9  C   UNL     1       3.349   4.220   2.505  0.00  0.00    +0.119 C 
ATOM     10  C   UNL     1       1.355   4.465   1.080  0.00  0.00    +0.027 A 
ATOM     11  C   UNL     1       0.542   5.437   1.573  0.00  0.00    +0.024 A 
ATOM     12  C   UNL     1      -0.841   5.239   1.650  0.00  0.00    +0.030 A 
ATOM     13  C   UNL     1      -1.362   4.046   1.227  0.00  0.00    +0.099 A 
ATOM     14  C   UNL     1      -0.492   3.065   0.713  0.00  0.00    +0.273 A 
ATOM     15  O   UNL     1      -0.938   1.982   0.369  0.00  0.00    -0.266 OA
ATOM     16  N   UNL     1       0.835   3.313   0.591  0.00  0.00    -0.310 N 
ATOM     17  C   UNL     1       1.634   2.310  -0.114  0.00  0.00    +0.130 C 
ATOM     18  H   UNL     1       2.246   0.410   3.001  0.00  0.00    +0.156 HD
ENDROOT
BRANCH   1  22
ATOM     19  C   UNL     1      -0.707  -0.310   6.625  0.00  0.00    +0.120 A 
ATOM     20  C   UNL     1       0.265  -1.162   6.123  0.00  0.00    +0.047 A 
ATOM     21  C   UNL     1       1.133  -0.719   5.144  0.00  0.00    +0.027 A 
ATOM     22  C   UNL     1       1.032   0.579   4.662  0.00  0.00    +0.035 A 
ATOM     23  C   UNL     1       0.061   1.433   5.169  0.00  0.00    +0.027 A 
ATOM     24  C   UNL     1      -0.809   0.987   6.144  0.00  0.00    +0.047 A 
BRANCH  19  26
ATOM     25  C   UNL     1      -2.538   0.184   8.060  0.00  0.00    +0.277 C 
ATOM     26  O   UNL     1      -1.561  -0.746   7.589  0.00  0.00    -0.495 OA
ENDBRANCH  19  26
ENDBRANCH   1  22
BRANCH  13  27
ATOM     27  N   UNL     1      -2.739   3.803   1.308  0.00  0.00    -0.277 N 
ATOM     28  C   UNL     1      -3.438   3.505   0.195  0.00  0.00    +0.255 C 
ATOM     29  O   UNL     1      -2.859   3.360  -0.866  0.00  0.00    -0.269 OA
ATOM     30  H   UNL     1      -3.190   3.850   2.166  0.00  0.00    +0.155 HD
BRANCH  28  31
ATOM     31  C   UNL     1      -4.894   3.354   0.262  0.00  0.00    +0.074 A 
ATOM     32  C   UNL     1      -5.789   3.052  -0.752  0.00  0.00    +0.021 A 
ATOM     33  C   UNL     1      -7.116   2.969  -0.411  0.00  0.00    +0.008 A 
ATOM     34  C   UNL     1      -7.484   3.182   0.879  0.00  0.00    +0.046 A 
ATOM     35  S   UNL     1      -5.976   3.502   1.673  0.00  0.00    -0.092 S 
ENDBRANCH  28  31
ENDBRANCH  13  27
TORSDOF 4
