REMARK  Name = ZINC66494512
REMARK  3 active torsions:
REMARK  status: ('A' for Active; 'I' for Inactive)
REMARK    1  A    between atoms: C_11  and  C_12
REMARK    2  A    between atoms: N_15  and  C_18
REMARK    3  A    between atoms: C_18  and  C_19
REMARK                            x       y       z     vdW  Elec       q    Type
REMARK                         _______ _______ _______ _____ _____    ______ ____
ROOT
ATOM      1  C   UNL     1       4.288   3.233  -0.021  0.00  0.00    -0.046 C 
ATOM      2  C   UNL     1       4.207   3.940  -1.130  0.00  0.00    -0.041 C 
ATOM      3  C   UNL     1       4.692   5.357  -1.232  0.00  0.00    -0.050 C 
ATOM      4  N   UNL     1       4.837   5.946   0.104  0.00  0.00    +0.386 N 
ATOM      5  C   UNL     1       5.671   5.058   0.931  0.00  0.00    -0.073 C 
ATOM      6  C   UNL     1       4.866   3.794   1.250  0.00  0.00    +0.017 C 
ATOM      7  H   UNL     1       3.928   6.047   0.529  0.00  0.00    -0.081 HD
ENDROOT
BRANCH   1  18
ATOM      8  C   UNL     1      -0.017   1.385   0.010  0.00  0.00    +0.039 A 
ATOM      9  C   UNL     1       1.163   2.096   0.002  0.00  0.00    +0.013 A 
ATOM     10  C   UNL     1       2.379   1.417  -0.013  0.00  0.00    +0.007 A 
ATOM     11  C   UNL     1       2.400   0.012  -0.021  0.00  0.00    +0.050 A 
ATOM     12  C   UNL     1       1.199  -0.690  -0.014  0.00  0.00    +0.064 A 
ATOM     13  C   UNL     1       0.002  -0.004   0.002  0.00  0.00    +0.125 A 
ATOM     14  F   UNL     1      -1.162  -0.690   0.010  0.00  0.00    -0.205 F 
ATOM     15  N   UNL     1       3.722  -0.381  -0.035  0.00  0.00    -0.360 N 
ATOM     16  H   UNL     1       4.027  -1.301  -0.043  0.00  0.00    +0.165 HD
ATOM     17  C   UNL     1       4.538   0.713  -0.036  0.00  0.00    +0.091 A 
ATOM     18  C   UNL     1       3.788   1.845  -0.023  0.00  0.00    +0.003 A 
ENDBRANCH   1  18
BRANCH   4  19
ATOM     19  C   UNL     1       5.480   7.262  -0.006  0.00  0.00    -0.022 C 
BRANCH  19  20
ATOM     20  C   UNL     1       4.574   8.202  -0.758  0.00  0.00    +0.032 A 
ATOM     21  C   UNL     1       4.979   9.518  -0.992  0.00  0.00    +0.093 A 
ATOM     22  C   UNL     1       4.151  10.363  -1.675  0.00  0.00    +0.275 A 
ATOM     23  O   UNL     1       4.521  11.642  -1.914  0.00  0.00    -0.266 OA
ATOM     24  N   UNL     1       2.942   9.896  -2.113  0.00  0.00    -0.178 N 
ATOM     25  C   UNL     1       2.583   8.597  -1.862  0.00  0.00    +0.159 A 
ATOM     26  N   UNL     1       3.409   7.778  -1.195  0.00  0.00    -0.234 NA
ATOM     27  C   UNL     1       1.325   8.412  -2.417  0.00  0.00    +0.069 A 
ATOM     28  C   UNL     1       0.941   9.612  -2.999  0.00  0.00    +0.137 A 
ATOM     29  N   UNL     1       1.896  10.496  -2.822  0.00  0.00    -0.170 NA
ENDBRANCH  19  20
ENDBRANCH   4  19
TORSDOF 3
