REMARK  Name = ZINC25574183
REMARK  8 active torsions:
REMARK  status: ('A' for Active; 'I' for Inactive)
REMARK    1  A    between atoms: C_1  and  C_2
REMARK    2  A    between atoms: C_2  and  N_3
REMARK    3  A    between atoms: C_9  and  C_15
REMARK    4  A    between atoms: N_17  and  C_18
REMARK    5  A    between atoms: C_18  and  C_20
REMARK    6  A    between atoms: C_18  and  C_30
REMARK    7  A    between atoms: C_30  and  C_31
REMARK    8  A    between atoms: C_30  and  C_32
REMARK                            x       y       z     vdW  Elec       q    Type
REMARK                         _______ _______ _______ _____ _____    ______ ____
ROOT
ATOM      1  C   UNL     1      -5.643  -0.864   1.476  0.00  0.00    +0.245 C 
ATOM      2  O   UNL     1      -5.749  -2.050   1.236  0.00  0.00    -0.270 OA
ATOM      3  N   UNL     1      -4.647  -0.149   0.915  0.00  0.00    -0.304 N 
ATOM      4  H   UNL     1      -4.552   0.925   1.132  0.00  0.00    +0.150 HD
ENDROOT
BRANCH   1  11
ATOM      5  N   UNL     1     -10.343   0.922   5.505  0.00  0.00    -0.287 N 
ATOM      6  C   UNL     1      -9.371   1.703   4.981  0.00  0.00    +0.262 A 
ATOM      7  O   UNL     1      -9.302   2.889   5.248  0.00  0.00    -0.267 OA
ATOM      8  C   UNL     1      -8.399   1.067   4.077  0.00  0.00    +0.065 A 
ATOM      9  C   UNL     1      -7.363   1.792   3.489  0.00  0.00    +0.016 A 
ATOM     10  C   UNL     1      -6.482   1.165   2.656  0.00  0.00    +0.014 A 
ATOM     11  C   UNL     1      -6.609  -0.203   2.383  0.00  0.00    +0.039 A 
ATOM     12  C   UNL     1      -7.636  -0.943   2.953  0.00  0.00    +0.041 A 
ATOM     13  C   UNL     1      -8.541  -0.314   3.812  0.00  0.00    +0.080 A 
ATOM     14  N   UNL     1      -9.556  -0.996   4.394  0.00  0.00    -0.222 NA
ATOM     15  C   UNL     1     -10.408  -0.406   5.196  0.00  0.00    +0.183 A 
ATOM     16  S   UNL     1     -11.697  -1.373   5.908  0.00  0.00    -0.011 S 
BRANCH   5  18
ATOM     17  C   UNL     1     -10.831   1.406   7.852  0.00  0.00    +0.027 C 
ATOM     18  C   UNL     1     -11.335   1.506   6.411  0.00  0.00    +0.124 C 
ENDBRANCH   5  18
ENDBRANCH   1  11
BRANCH   3  19
ATOM     19  C   UNL     1      -3.692  -0.803   0.018  0.00  0.00    +0.106 C 
BRANCH  19  20
ATOM     20  C   UNL     1      -2.397  -0.033   0.016  0.00  0.00    -0.023 A 
ATOM     21  C   UNL     1      -2.415   1.349   0.025  0.00  0.00    +0.009 A 
ATOM     22  C   UNL     1      -1.229   2.059   0.019  0.00  0.00    +0.050 A 
ATOM     23  C   UNL     1      -0.017   1.385   0.010  0.00  0.00    +0.162 A 
ATOM     24  C   UNL     1       0.002  -0.004   0.002  0.00  0.00    +0.162 A 
ATOM     25  C   UNL     1      -1.192  -0.710   0.004  0.00  0.00    +0.055 A 
ATOM     26  O   UNL     1       1.181  -0.685  -0.007  0.00  0.00    -0.485 OA
ATOM     27  C   UNL     1       2.347   0.053  -0.387  0.00  0.00    +0.270 C 
ATOM     28  C   UNL     1       2.334   1.392   0.364  0.00  0.00    +0.270 C 
ATOM     29  O   UNL     1       1.143   2.098   0.002  0.00  0.00    -0.485 OA
ENDBRANCH  19  20
BRANCH  19  30
ATOM     30  C   UNL     1      -4.266  -0.838  -1.400  0.00  0.00    +0.008 C 
ATOM     31  C   UNL     1      -3.269  -1.521  -2.338  0.00  0.00    +0.009 C 
ATOM     32  C   UNL     1      -5.582  -1.620  -1.398  0.00  0.00    +0.009 C 
ENDBRANCH  19  30
ENDBRANCH   3  19
TORSDOF 5
