REMARK  Name = ZINC59204428
REMARK  6 active torsions:
REMARK  status: ('A' for Active; 'I' for Inactive)
REMARK    1  A    between atoms: C_1  and  C_2
REMARK    2  A    between atoms: C_2  and  C_3
REMARK    3  A    between atoms: C_2  and  C_4
REMARK    4  A    between atoms: C_2  and  C_5
REMARK    5  A    between atoms: C_8  and  C_9
REMARK    6  A    between atoms: C_18  and  C_19
REMARK                            x       y       z     vdW  Elec       q    Type
REMARK                         _______ _______ _______ _____ _____    ______ ____
ROOT
ATOM      1  C   UNL     1       1.019   0.028  -1.233  0.00  0.00    +0.003 C 
ATOM      2  C   UNL     1       0.029  -0.248  -2.368  0.00  0.00    +0.043 C 
ATOM      3  C   UNL     1       0.691  -1.112  -3.409  0.00  0.00    +0.002 C 
ATOM      4  C   UNL     1      -0.058  -1.966  -4.151  0.00  0.00    +0.033 C 
ATOM      5  C   UNL     1       2.089  -1.038  -3.618  0.00  0.00    +0.185 C 
ATOM      6  O   UNL     1       2.612  -1.742  -4.467  0.00  0.00    -0.287 OA
ATOM      7  C   UNL     1       2.887  -0.154  -2.851  0.00  0.00    +0.002 C 
ATOM      8  C   UNL     1       4.226  -0.098  -3.063  0.00  0.00    +0.033 C 
ATOM      9  C   UNL     1       2.257   0.724  -1.802  0.00  0.00    +0.043 C 
ENDROOT
BRANCH   4  10
ATOM     10  C   UNL     1      -1.468  -1.843  -4.165  0.00  0.00    +0.040 A 
ATOM     11  C   UNL     1      -2.360  -2.708  -4.773  0.00  0.00    +0.027 A 
ATOM     12  C   UNL     1      -3.643  -2.208  -4.539  0.00  0.00    +0.019 A 
ATOM     13  C   UNL     1      -3.521  -1.073  -3.809  0.00  0.00    +0.083 A 
ATOM     14  N   UNL     1      -2.204  -0.842  -3.571  0.00  0.00    -0.361 N 
ATOM     15  H   UNL     1      -1.842  -0.096  -3.068  0.00  0.00    +0.165 HD
ENDBRANCH   4  10
BRANCH   8  16
ATOM     16  C   UNL     1       4.731  -0.035  -4.385  0.00  0.00    +0.040 A 
ATOM     17  C   UNL     1       6.056   0.132  -4.747  0.00  0.00    +0.027 A 
ATOM     18  C   UNL     1       6.103   0.137  -6.144  0.00  0.00    +0.019 A 
ATOM     19  C   UNL     1       4.838  -0.023  -6.604  0.00  0.00    +0.083 A 
ATOM     20  N   UNL     1       3.995  -0.134  -5.544  0.00  0.00    -0.361 N 
ATOM     21  H   UNL     1       3.035  -0.260  -5.596  0.00  0.00    +0.165 HD
ENDBRANCH   8  16
BRANCH   1  23
ATOM     22  C   UNL     1      -0.053   2.251  -0.843  0.00  0.00    +0.011 C 
ATOM     23  C   UNL     1       0.359   0.931  -0.188  0.00  0.00    -0.034 C 
ATOM     24  C   UNL     1       1.351   1.211   0.943  0.00  0.00    +0.011 C 
ATOM     25  C   UNL     1      -0.878   0.235   0.380  0.00  0.00    +0.011 C 
ENDBRANCH   1  23
TORSDOF 3
