REMARK  Name = ZINC09442128
REMARK  13 active torsions:
REMARK  status: ('A' for Active; 'I' for Inactive)
REMARK    1  A    between atoms: C_1  and  C_2
REMARK    2  A    between atoms: C_2  and  C_4
REMARK    3  A    between atoms: C_2  and  N_11
REMARK    4  A    between atoms: C_12  and  C_14
REMARK    5  A    between atoms: C_14  and  N_65
REMARK    6  A    between atoms: C_15  and  N_65
REMARK    7  A    between atoms: C_16  and  C_17
REMARK    8  A    between atoms: C_16  and  N_65
REMARK    9  A    between atoms: N_19  and  C_20
REMARK   10  A    between atoms: N_19  and  C_21
REMARK   11  A    between atoms: C_22  and  N_37
REMARK   12  A    between atoms: N_23  and  C_30
REMARK   13  A    between atoms: C_30  and  C_31
REMARK                            x       y       z     vdW  Elec       q    Type
REMARK                         _______ _______ _______ _____ _____    ______ ____
ROOT
ATOM      1  C   UNL     1      -1.262   1.958  -0.014  0.00  0.00    +0.203 C 
ATOM      2  O   UNL     1      -1.431   3.156  -0.112  0.00  0.00    -0.277 OA
ATOM      3  N   UNL     1      -0.011   1.452  -0.005  0.00  0.00    -0.269 N 
ATOM      4  C   UNL     1       0.192   0.001  -0.007  0.00  0.00    +0.138 C 
ENDROOT
BRANCH   3   5
ATOM      5  C   UNL     1       1.101   2.320  -0.001  0.00  0.00    +0.139 A 
ATOM      6  C   UNL     1       1.958   2.369  -1.082  0.00  0.00    +0.128 A 
ATOM      7  N   UNL     1       3.030   3.229  -1.050  0.00  0.00    -0.276 N 
ATOM      8  C   UNL     1       3.248   4.007   0.026  0.00  0.00    +0.331 A 
ATOM      9  O   UNL     1       4.204   4.758   0.036  0.00  0.00    -0.246 OA
ATOM     10  N   UNL     1       2.427   3.969   1.090  0.00  0.00    -0.273 N 
ATOM     11  H   UNL     1       2.611   4.557   1.878  0.00  0.00    +0.173 HD
ATOM     12  C   UNL     1       1.359   3.148   1.108  0.00  0.00    +0.277 A 
ATOM     13  O   UNL     1       0.620   3.122   2.078  0.00  0.00    -0.266 OA
BRANCH   6  14
ATOM     14  N   UNL     1       1.739   1.570  -2.179  0.00  0.00    -0.343 N 
ATOM     15  H   UNL     1       1.022   0.917  -2.168  0.00  0.00    +0.144 HD
ATOM     16  H   UNL     1       2.302   1.660  -2.964  0.00  0.00    +0.144 HD
ENDBRANCH   6  14
BRANCH   7  17
ATOM     17  C   UNL     1       3.945   3.295  -2.193  0.00  0.00    +0.163 C 
BRANCH  17  18
ATOM     18  C   UNL     1       5.055   2.293  -2.006  0.00  0.00    -0.028 A 
ATOM     19  C   UNL     1       6.218   2.663  -1.356  0.00  0.00    +0.005 A 
ATOM     20  C   UNL     1       7.234   1.743  -1.180  0.00  0.00    +0.000 A 
ATOM     21  C   UNL     1       7.092   0.456  -1.663  0.00  0.00    +0.000 A 
ATOM     22  C   UNL     1       5.932   0.087  -2.317  0.00  0.00    +0.000 A 
ATOM     23  C   UNL     1       4.913   1.006  -2.489  0.00  0.00    +0.005 A 
ENDBRANCH  17  18
ENDBRANCH   7  17
ENDBRANCH   3   5
BRANCH   1  24
ATOM     24  C   UNL     1      -2.449   1.036   0.097  0.00  0.00    +0.019 C 
BRANCH  24  26
ATOM     25  C   UNL     1      -3.797   2.682   1.252  0.00  0.00    -0.095 C 
ATOM     26  N   UNL     1      -3.686   1.843   0.041  0.00  0.00    +0.389 N 
ATOM     27  H   UNL     1      -3.650   2.452  -0.785  0.00  0.00    -0.081 HD
BRANCH  26  28
ATOM     28  C   UNL     1      -4.863   0.955  -0.069  0.00  0.00    +0.019 C 
BRANCH  28  30
ATOM     29  N   UNL     1      -7.285   1.209  -0.505  0.00  0.00    -0.310 N 
ATOM     30  C   UNL     1      -6.082   1.796  -0.345  0.00  0.00    +0.197 C 
ATOM     31  O   UNL     1      -5.982   3.002  -0.424  0.00  0.00    -0.278 OA
ATOM     32  H   UNL     1      -7.365   0.244  -0.442  0.00  0.00    +0.149 HD
BRANCH  29  34
ATOM     33  C   UNL     1      -9.054   2.528   0.549  0.00  0.00    +0.033 C 
ATOM     34  C   UNL     1      -8.470   2.026  -0.773  0.00  0.00    +0.100 C 
BRANCH  34  35
ATOM     35  C   UNL     1      -9.500   1.196  -1.495  0.00  0.00    -0.027 A 
ATOM     36  C   UNL     1      -9.703  -0.122  -1.131  0.00  0.00    +0.008 A 
ATOM     37  C   UNL     1     -10.652  -0.882  -1.789  0.00  0.00    +0.038 A 
ATOM     38  C   UNL     1     -11.390  -0.327  -2.820  0.00  0.00    +0.123 A 
ATOM     39  C   UNL     1     -11.181   0.992  -3.187  0.00  0.00    +0.038 A 
ATOM     40  C   UNL     1     -10.237   1.752  -2.525  0.00  0.00    +0.008 A 
ATOM     41  F   UNL     1     -12.313  -1.071  -3.468  0.00  0.00    -0.205 F 
ENDBRANCH  34  35
ENDBRANCH  29  34
ENDBRANCH  28  30
ENDBRANCH  26  28
ENDBRANCH  24  26
ENDBRANCH   1  24
TORSDOF 10
