REMARK  Name = ZINC35999563
REMARK  5 active torsions:
REMARK  status: ('A' for Active; 'I' for Inactive)
REMARK    1  A    between atoms: C_1  and  C_2
REMARK    2  A    between atoms: C_7  and  C_8
REMARK    3  A    between atoms: C_8  and  N_9
REMARK    4  A    between atoms: C_15  and  C_17
REMARK    5  A    between atoms: C_24  and  C_26
REMARK                            x       y       z     vdW  Elec       q    Type
REMARK                         _______ _______ _______ _____ _____    ______ ____
ROOT
ATOM      1  N   UNL     1      -1.353   0.379   2.912  0.00  0.00    -0.265 N 
ATOM      2  C   UNL     1      -1.957   0.061   4.076  0.00  0.00    +0.110 A 
ATOM      3  C   UNL     1      -3.223   0.534   4.030  0.00  0.00    +0.065 A 
ATOM      4  C   UNL     1      -3.401   1.168   2.789  0.00  0.00    +0.147 A 
ATOM      5  N   UNL     1      -2.274   1.078   2.122  0.00  0.00    -0.156 NA
ATOM      6  N   UNL     1      -4.574   1.791   2.344  0.00  0.00    -0.269 N 
ATOM      7  C   UNL     1      -5.665   1.817   3.135  0.00  0.00    +0.223 C 
ATOM      8  O   UNL     1      -5.663   1.220   4.191  0.00  0.00    -0.275 OA
ATOM      9  H   UNL     1      -4.601   2.204   1.467  0.00  0.00    +0.156 HD
ENDROOT
BRANCH   7  10
ATOM     10  C   UNL     1      -6.887   2.589   2.708  0.00  0.00    +0.097 C 
ATOM     11  C   UNL     1      -8.017   2.465   3.779  0.00  0.00    +0.025 C 
ATOM     12  C   UNL     1      -9.286   2.716   2.884  0.00  0.00    +0.016 C 
ATOM     13  C   UNL     1      -8.942   1.532   1.907  0.00  0.00    +0.027 C 
ATOM     14  C   UNL     1      -7.511   1.960   1.438  0.00  0.00    +0.121 C 
ATOM     15  C   UNL     1      -8.685   0.417   2.927  0.00  0.00    -0.027 C 
ATOM     16  C   UNL     1      -8.136   0.955   4.023  0.00  0.00    -0.027 C 
BRANCH  14  17
ATOM     17  C   UNL     1      -6.716   0.758   0.996  0.00  0.00    +0.360 C 
ATOM     18  O   UNL     1      -6.657  -0.229   1.709  0.00  0.00    -0.246 OA
ATOM     19  O   UNL     1      -6.132   0.774  -0.074  0.00  0.00    -0.246 OA
ENDBRANCH  14  17
ENDBRANCH   7  10
BRANCH   1  20
ATOM     20  C   UNL     1       0.028   0.057   2.542  0.00  0.00    +0.178 C 
BRANCH  20  27
ATOM     21  C   UNL     1      -0.004   1.521   0.052  0.00  0.00    +0.044 C 
ATOM     22  C   UNL     1       0.021   0.015   0.040  0.00  0.00    -0.046 A 
ATOM     23  C   UNL     1       0.034  -0.667  -1.163  0.00  0.00    +0.004 A 
ATOM     24  C   UNL     1       0.057  -2.049  -1.175  0.00  0.00    +0.000 A 
ATOM     25  C   UNL     1       0.067  -2.750   0.017  0.00  0.00    +0.000 A 
ATOM     26  C   UNL     1       0.054  -2.068   1.219  0.00  0.00    +0.006 A 
ATOM     27  C   UNL     1       0.036  -0.686   1.231  0.00  0.00    -0.023 A 
ENDBRANCH  20  27
ENDBRANCH   1  20
TORSDOF 4
