REMARK  Name = ZINC23716425
REMARK  8 active torsions:
REMARK  status: ('A' for Active; 'I' for Inactive)
REMARK    1  A    between atoms: C_1  and  C_2
REMARK    2  A    between atoms: C_5  and  C_7
REMARK    3  A    between atoms: C_9  and  C_16
REMARK    4  A    between atoms: C_10  and  C_15
REMARK    5  A    between atoms: N_18  and  C_19
REMARK    6  A    between atoms: C_24  and  C_25
REMARK    7  A    between atoms: C_25  and  C_26
REMARK    8  A    between atoms: C_25  and  C_27
REMARK                            x       y       z     vdW  Elec       q    Type
REMARK                         _______ _______ _______ _____ _____    ______ ____
ROOT
ATOM      1  C   UNL     1      -1.369   2.132   0.059  0.00  0.00    +0.146 C 
ATOM      2  C   UNL     1      -0.043   1.400   0.027  0.00  0.00    +0.056 C 
ATOM      3  C   UNL     1       1.084   2.143   0.008  0.00  0.00    +0.017 C 
ATOM      4  N   UNL     1       1.030   3.507   0.022  0.00  0.00    -0.300 N 
ATOM      5  C   UNL     1      -0.113   4.205   0.056  0.00  0.00    +0.135 C 
ATOM      6  S   UNL     1      -0.039   5.915   0.070  0.00  0.00    -0.019 S 
ATOM      7  N   UNL     1      -1.319   3.604   0.079  0.00  0.00    -0.315 N 
ATOM      8  C   UNL     1       2.425   1.455  -0.031  0.00  0.00    +0.061 C 
ATOM      9  H   UNL     1       1.960   4.095   0.006  0.00  0.00    +0.154 HD
ATOM     10  H   UNL     1      -2.252   4.186   0.112  0.00  0.00    +0.149 HD
ENDROOT
BRANCH   1  15
ATOM     11  C   UNL     1      -3.741   1.116  -4.984  0.00  0.00    +0.051 C 
ATOM     12  C   UNL     1      -3.293   1.222  -3.549  0.00  0.00    -0.013 A 
ATOM     13  C   UNL     1      -3.805   0.619  -2.449  0.00  0.00    +0.011 A 
ATOM     14  C   UNL     1      -3.226   0.867  -1.218  0.00  0.00    +0.013 A 
ATOM     15  C   UNL     1      -2.164   1.706  -1.148  0.00  0.00    +0.015 A 
ATOM     16  S   UNL     1      -1.956   2.182  -2.857  0.00  0.00    -0.096 S 
ENDBRANCH   1  15
BRANCH   2  17
ATOM     17  C   UNL     1       0.012  -0.015   0.011  0.00  0.00    +0.248 C 
ATOM     18  O   UNL     1      -0.125  -0.641   1.047  0.00  0.00    -0.270 OA
ATOM     19  N   UNL     1       0.217  -0.669  -1.149  0.00  0.00    -0.281 N 
ATOM     20  H   UNL     1       0.431  -0.104  -2.068  0.00  0.00    +0.155 HD
BRANCH  19  21
ATOM     21  C   UNL     1       0.156  -2.065  -1.185  0.00  0.00    +0.037 A 
ATOM     22  C   UNL     1      -0.737  -2.744  -0.365  0.00  0.00    +0.023 A 
ATOM     23  C   UNL     1      -0.795  -4.123  -0.404  0.00  0.00    +0.002 A 
ATOM     24  C   UNL     1       0.034  -4.829  -1.257  0.00  0.00    +0.000 A 
ATOM     25  C   UNL     1       0.923  -4.156  -2.075  0.00  0.00    +0.006 A 
ATOM     26  C   UNL     1       0.983  -2.776  -2.045  0.00  0.00    -0.024 A 
BRANCH  26  27
ATOM     27  C   UNL     1       1.948  -2.043  -2.940  0.00  0.00    +0.015 C 
ATOM     28  C   UNL     1       3.382  -2.393  -2.539  0.00  0.00    +0.012 C 
ATOM     29  C   UNL     1       1.710  -2.457  -4.394  0.00  0.00    +0.012 C 
ENDBRANCH  26  27
ENDBRANCH  19  21
ENDBRANCH   2  17
TORSDOF 4
