REMARK  Name = ZINC36514987
REMARK  18 active torsions:
REMARK  status: ('A' for Active; 'I' for Inactive)
REMARK    1  A    between atoms: C_1  and  C_2
REMARK    2  A    between atoms: C_2  and  C_3
REMARK    3  A    between atoms: C_3  and  C_4
REMARK    4  A    between atoms: C_4  and  C_5
REMARK    5  A    between atoms: C_5  and  C_6
REMARK    6  A    between atoms: C_6  and  N_7
REMARK    7  A    between atoms: N_7  and  C_8
REMARK    8  A    between atoms: C_8  and  C_10
REMARK    9  A    between atoms: C_8  and  C_19
REMARK   10  A    between atoms: C_11  and  O_18
REMARK   11  A    between atoms: C_13  and  O_17
REMARK   12  A    between atoms: C_15  and  O_16
REMARK   13  A    between atoms: N_21  and  C_22
REMARK   14  A    between atoms: C_22  and  C_23
REMARK   15  A    between atoms: C_22  and  C_24
REMARK   16  A    between atoms: C_22  and  C_25
REMARK   17  A    between atoms: C_26  and  C_28
REMARK   18  A    between atoms: C_28  and  C_29
REMARK                            x       y       z     vdW  Elec       q    Type
REMARK                         _______ _______ _______ _____ _____    ______ ____
ROOT
ATOM      1  C   UNL     1       3.475  -4.854  -3.869  0.00  0.00    +0.199 C 
ENDROOT
BRANCH   1   2
ATOM      2  C   UNL     1       3.795  -6.224  -4.408  0.00  0.00    +0.065 A 
ATOM      3  C   UNL     1       4.646  -6.361  -5.495  0.00  0.00    +0.129 A 
ATOM      4  C   UNL     1       4.940  -7.622  -5.990  0.00  0.00    +0.091 A 
ATOM      5  C   UNL     1       4.385  -8.747  -5.399  0.00  0.00    +0.124 A 
ATOM      6  C   UNL     1       3.535  -8.610  -4.311  0.00  0.00    +0.091 A 
ATOM      7  C   UNL     1       3.244  -7.349  -3.813  0.00  0.00    +0.129 A 
BRANCH   7   8
ATOM      8  O   UNL     1       2.415  -7.216  -2.744  0.00  0.00    -0.506 OA
ATOM      9  H   UNL     1       1.482  -7.126  -2.979  0.00  0.00    +0.292 HD
ENDBRANCH   7   8
BRANCH   5  10
ATOM     10  O   UNL     1       4.673  -9.983  -5.885  0.00  0.00    -0.507 OA
ATOM     11  H   UNL     1       5.448 -10.394  -5.479  0.00  0.00    +0.292 HD
ENDBRANCH   5  10
BRANCH   3  12
ATOM     12  O   UNL     1       5.189  -5.259  -6.074  0.00  0.00    -0.506 OA
ATOM     13  H   UNL     1       6.073  -5.039  -5.749  0.00  0.00    +0.292 HD
ENDBRANCH   3  12
ENDBRANCH   1   2
BRANCH   1  14
ATOM     14  C   UNL     1       4.263  -4.613  -2.607  0.00  0.00    +0.239 C 
ATOM     15  O   UNL     1       3.690  -4.315  -1.581  0.00  0.00    -0.273 OA
ATOM     16  N   UNL     1       5.606  -4.729  -2.619  0.00  0.00    -0.309 N 
ATOM     17  H   UNL     1       6.065  -4.968  -3.440  0.00  0.00    +0.149 HD
BRANCH  16  18
ATOM     18  C   UNL     1       6.373  -4.495  -1.393  0.00  0.00    +0.026 C 
ATOM     19  C   UNL     1       5.926  -5.485  -0.316  0.00  0.00    +0.031 C 
ATOM     20  C   UNL     1       7.863  -4.690  -1.678  0.00  0.00    +0.031 C 
ATOM     21  C   UNL     1       6.130  -3.066  -0.905  0.00  0.00    +0.031 C 
ENDBRANCH  16  18
ENDBRANCH   1  14
BRANCH   1  22
ATOM     22  N   UNL     1       2.043  -4.768  -3.574  0.00  0.00    -0.285 N 
ATOM     23  C   UNL     1       1.160  -4.565  -4.571  0.00  0.00    +0.221 C 
ATOM     24  O   UNL     1       1.551  -4.454  -5.714  0.00  0.00    -0.275 OA
BRANCH  22  25
ATOM     25  C   UNL     1       1.570  -4.902  -2.193  0.00  0.00    +0.109 C 
BRANCH  25  26
ATOM     26  C   UNL     1       1.395  -3.513  -1.577  0.00  0.00    +0.019 C 
BRANCH  26  27
ATOM     27  C   UNL     1       1.094  -3.652  -0.083  0.00  0.00    +0.002 C 
BRANCH  27  28
ATOM     28  C   UNL     1       0.919  -2.262   0.533  0.00  0.00    -0.000 C 
BRANCH  28  30
ATOM     29  C   UNL     1       0.443  -1.012   2.643  0.00  0.00    +0.004 C 
ATOM     30  C   UNL     1       0.618  -2.401   2.027  0.00  0.00    -0.003 C 
ENDBRANCH  28  30
ENDBRANCH  27  28
ENDBRANCH  26  27
ENDBRANCH  25  26
ENDBRANCH  22  25
BRANCH  23  31
ATOM     31  C   UNL     1      -0.314  -4.477  -4.268  0.00  0.00    +0.132 C 
BRANCH  31  32
ATOM     32  C   UNL     1      -1.078  -4.249  -5.546  0.00  0.00    -0.019 A 
ATOM     33  C   UNL     1      -1.411  -2.964  -5.933  0.00  0.00    +0.005 A 
ATOM     34  C   UNL     1      -2.112  -2.754  -7.106  0.00  0.00    +0.002 A 
ATOM     35  C   UNL     1      -2.480  -3.829  -7.893  0.00  0.00    +0.021 A 
ATOM     36  C   UNL     1      -2.148  -5.115  -7.508  0.00  0.00    +0.060 A 
ATOM     37  C   UNL     1      -1.440  -5.325  -6.336  0.00  0.00    +0.063 A 
ATOM     38 CL   UNL     1      -1.015  -6.938  -5.856  0.00  0.00    -0.082 Cl
ATOM     39 CL   UNL     1      -2.611  -6.464  -8.497  0.00  0.00    -0.082 Cl
ENDBRANCH  31  32
ENDBRANCH  23  31
ENDBRANCH   1  22
TORSDOF 14
