REMARK  Name = ZINC39363402
REMARK  5 active torsions:
REMARK  status: ('A' for Active; 'I' for Inactive)
REMARK    1  A    between atoms: C_1  and  O_2
REMARK    2  A    between atoms: O_2  and  C_3
REMARK    3  A    between atoms: C_6  and  C_10
REMARK    4  A    between atoms: N_24  and  C_25
REMARK    5  A    between atoms: C_25  and  C_26
REMARK                            x       y       z     vdW  Elec       q    Type
REMARK                         _______ _______ _______ _____ _____    ______ ____
ROOT
ATOM      1  C   UNL     1       2.764  -2.754  -4.437  0.00  0.00    +0.013 C 
ATOM      2  C   UNL     1       1.798  -3.326  -5.447  0.00  0.00    +0.011 A 
ATOM      3  H   UNL     1       1.276  -5.197  -4.694  0.00  0.00    +0.166 HD
ATOM      4  C   UNL     1       1.427  -2.662  -6.566  0.00  0.00    -0.022 A 
ATOM      5  C   UNL     1       0.505  -3.514  -7.283  0.00  0.00    +0.003 A 
ATOM      6  C   UNL     1      -0.193  -3.361  -8.485  0.00  0.00    +0.010 A 
ATOM      7  C   UNL     1      -1.002  -4.401  -8.870  0.00  0.00    +0.001 A 
ATOM      8  C   UNL     1      -1.131  -5.553  -8.112  0.00  0.00    +0.002 A 
ATOM      9  C   UNL     1      -0.453  -5.731  -6.919  0.00  0.00    +0.026 A 
ATOM     10  C   UNL     1       0.376  -4.692  -6.502  0.00  0.00    +0.047 A 
ATOM     11  N   UNL     1       1.171  -4.541  -5.402  0.00  0.00    -0.359 N 
ATOM     12  C   UNL     1       1.934  -1.286  -6.917  0.00  0.00    +0.019 C 
ATOM     13  C   UNL     1       2.567  -0.683  -5.655  0.00  0.00    -0.073 C 
ATOM     14  N   UNL     1       3.507  -1.651  -5.064  0.00  0.00    +0.390 N 
ATOM     15  H   UNL     1       4.106  -2.019  -5.788  0.00  0.00    -0.080 HD
ENDROOT
BRANCH   1  19
ATOM     16  C   UNL     1       0.601  -1.288  -1.053  0.00  0.00    +0.123 A 
ATOM     17  C   UNL     1      -0.022  -1.386  -2.289  0.00  0.00    +0.046 A 
ATOM     18  C   UNL     1       0.679  -1.860  -3.381  0.00  0.00    +0.009 A 
ATOM     19  C   UNL     1       2.002  -2.237  -3.244  0.00  0.00    -0.020 A 
ATOM     20  C   UNL     1       2.628  -2.140  -2.013  0.00  0.00    +0.129 A 
ATOM     21  C   UNL     1       1.930  -1.661  -0.918  0.00  0.00    +0.084 A 
ATOM     22  F   UNL     1       3.921  -2.510  -1.881  0.00  0.00    -0.205 F 
BRANCH  16  24
ATOM     23  C   UNL     1      -1.452  -0.457  -0.192  0.00  0.00    +0.277 C 
ATOM     24  O   UNL     1      -0.087  -0.822   0.021  0.00  0.00    -0.495 OA
ENDBRANCH  16  24
ENDBRANCH   1  19
BRANCH  14  25
ATOM     25  C   UNL     1       4.331  -0.980  -4.050  0.00  0.00    -0.044 C 
BRANCH  25  26
ATOM     26  C   UNL     1       5.274   0.013  -4.734  0.00  0.00    +0.136 C 
ATOM     27  C   UNL     1       6.200   0.660  -3.719  0.00  0.00    +0.021 C 
ATOM     28  C   UNL     1       5.899   1.958  -3.791  0.00  0.00    +0.132 C 
ATOM     29  N   UNL     1       4.926   2.175  -4.704  0.00  0.00    -0.162 NA
ATOM     30  N   UNL     1       4.521   1.157  -5.277  0.00  0.00    -0.182 NA
ENDBRANCH  25  26
ENDBRANCH  14  25
TORSDOF 4
