REMARK  Name = ZINC37006604
REMARK  13 active torsions:
REMARK  status: ('A' for Active; 'I' for Inactive)
REMARK    1  A    between atoms: C_1  and  C_2
REMARK    2  A    between atoms: C_7  and  C_8
REMARK    3  A    between atoms: C_8  and  N_9
REMARK    4  A    between atoms: C_17  and  O_40
REMARK    5  A    between atoms: C_22  and  C_23
REMARK    6  A    between atoms: C_22  and  C_24
REMARK    7  A    between atoms: N_26  and  C_27
REMARK    8  A    between atoms: C_27  and  C_28
REMARK    9  A    between atoms: C_28  and  C_29
REMARK   10  A    between atoms: C_29  and  N_30
REMARK   11  A    between atoms: C_32  and  C_39
REMARK   12  A    between atoms: C_35  and  C_38
REMARK   13  A    between atoms: O_40  and  C_41
REMARK                            x       y       z     vdW  Elec       q    Type
REMARK                         _______ _______ _______ _____ _____    ______ ____
ROOT
ATOM      1  N   UNL     1      -1.046   0.616   3.124  0.00  0.00    -0.276 N 
ATOM      2  C   UNL     1      -1.623   1.775   2.733  0.00  0.00    +0.264 C 
ATOM      3  O   UNL     1      -1.127   2.478   1.872  0.00  0.00    -0.268 OA
ATOM      4  C   UNL     1      -2.883   2.142   3.402  0.00  0.00    +0.106 A 
ATOM      5  C   UNL     1      -3.766   3.119   3.108  0.00  0.00    +0.041 A 
ATOM      6  C   UNL     1      -4.812   3.037   4.045  0.00  0.00    +0.001 A 
ATOM      7  C   UNL     1      -5.981   3.796   4.202  0.00  0.00    +0.013 A 
ATOM      8  C   UNL     1      -6.814   3.451   5.234  0.00  0.00    +0.046 A 
ATOM      9  C   UNL     1      -6.525   2.397   6.095  0.00  0.00    +0.122 A 
ATOM     10  C   UNL     1      -5.375   1.630   5.964  0.00  0.00    +0.072 A 
ATOM     11  C   UNL     1      -4.509   1.959   4.923  0.00  0.00    +0.053 A 
ATOM     12  N   UNL     1      -3.326   1.432   4.523  0.00  0.00    -0.334 N 
ATOM     13  C   UNL     1      -2.542   0.328   5.087  0.00  0.00    +0.157 C 
ATOM     14  C   UNL     1      -1.746  -0.347   3.967  0.00  0.00    +0.129 C 
ATOM     15  C   UNL     1      -2.703  -1.162   3.095  0.00  0.00    +0.043 C 
ENDROOT
BRANCH  14  16
ATOM     16  C   UNL     1      -0.736  -1.281   4.582  0.00  0.00    +0.238 C 
ATOM     17  O   UNL     1      -0.929  -2.479   4.566  0.00  0.00    -0.273 OA
ATOM     18  N   UNL     1       0.382  -0.786   5.149  0.00  0.00    -0.314 N 
ATOM     19  H   UNL     1       0.505   0.173   5.223  0.00  0.00    +0.149 HD
BRANCH  18  20
ATOM     20  C   UNL     1       1.412  -1.698   5.655  0.00  0.00    +0.102 C 
BRANCH  20  21
ATOM     21  C   UNL     1       2.566  -0.885   6.246  0.00  0.00    +0.000 C 
BRANCH  21  22
ATOM     22  C   UNL     1       3.641  -1.837   6.774  0.00  0.00    -0.077 C 
BRANCH  22  23
ATOM     23  N   UNL     1       4.750  -1.057   7.341  0.00  0.00    +0.380 N 
ATOM     24  C   UNL     1       5.396  -0.281   6.275  0.00  0.00    -0.076 C 
ATOM     25  C   UNL     1       6.499   0.595   6.873  0.00  0.00    -0.031 C 
ATOM     26  C   UNL     1       7.537  -0.299   7.557  0.00  0.00    +0.003 C 
ATOM     27  C   UNL     1       6.839  -1.157   8.617  0.00  0.00    -0.031 C 
ATOM     28  C   UNL     1       5.724  -1.968   7.954  0.00  0.00    -0.076 C 
ATOM     29  C   UNL     1       7.854  -2.108   9.254  0.00  0.00    +0.005 C 
ATOM     30  C   UNL     1       5.891   1.552   7.899  0.00  0.00    +0.005 C 
ATOM     31  H   UNL     1       4.392  -0.426   8.043  0.00  0.00    -0.082 HD
ENDBRANCH  22  23
ENDBRANCH  21  22
ENDBRANCH  20  21
ENDBRANCH  18  20
ENDBRANCH  14  16
BRANCH   9  32
ATOM     32  O   UNL     1      -7.396   2.109   7.097  0.00  0.00    -0.495 OA
ATOM     33  C   UNL     1      -8.565   2.925   7.194  0.00  0.00    +0.277 C 
ENDBRANCH   9  32
BRANCH   1  34
ATOM     34  C   UNL     1       0.320   0.316   2.685  0.00  0.00    +0.144 C 
BRANCH  34  41
ATOM     35  C   UNL     1      -0.451   0.569  -0.088  0.00  0.00    +0.044 C 
ATOM     36  C   UNL     1      -0.064  -0.778   0.467  0.00  0.00    -0.046 A 
ATOM     37  C   UNL     1      -0.071  -1.891  -0.352  0.00  0.00    +0.003 A 
ATOM     38  C   UNL     1       0.284  -3.126   0.156  0.00  0.00    +0.000 A 
ATOM     39  C   UNL     1       0.648  -3.248   1.485  0.00  0.00    +0.000 A 
ATOM     40  C   UNL     1       0.656  -2.135   2.304  0.00  0.00    +0.005 A 
ATOM     41  C   UNL     1       0.305  -0.898   1.793  0.00  0.00    -0.027 A 
ENDBRANCH  34  41
ENDBRANCH   1  34
TORSDOF 8
