REMARK  Name = ZINC39533537
REMARK  13 active torsions:
REMARK  status: ('A' for Active; 'I' for Inactive)
REMARK    1  A    between atoms: C_1  and  C_2
REMARK    2  A    between atoms: C_2  and  O_3
REMARK    3  A    between atoms: O_3  and  C_4
REMARK    4  A    between atoms: N_7  and  C_11
REMARK    5  A    between atoms: C_11  and  C_13
REMARK    6  A    between atoms: C_11  and  C_22
REMARK    7  A    between atoms: C_13  and  N_14
REMARK    8  A    between atoms: N_14  and  C_15
REMARK    9  A    between atoms: C_20  and  O_21
REMARK   10  A    between atoms: C_25  and  C_28
REMARK   11  A    between atoms: C_28  and  C_29
REMARK   12  A    between atoms: C_29  and  C_30
REMARK   13  A    between atoms: C_29  and  C_31
REMARK                            x       y       z     vdW  Elec       q    Type
REMARK                         _______ _______ _______ _____ _____    ______ ____
ROOT
ATOM      1  C   UNL     1      -4.368  -4.209   0.511  0.00  0.00    -0.020 C 
ENDROOT
BRANCH   1   4
ATOM      2  C   UNL     1      -1.350  -1.977   0.492  0.00  0.00    +0.169 C 
ATOM      3  C   UNL     1      -2.825  -2.375   0.588  0.00  0.00    -0.029 C 
ATOM      4  N   UNL     1      -2.954  -3.826   0.401  0.00  0.00    +0.389 N 
ATOM      5  C   UNL     1      -2.448  -4.198  -0.927  0.00  0.00    -0.062 C 
ATOM      6  C   UNL     1      -0.970  -3.815  -1.035  0.00  0.00    +0.065 C 
ATOM      7  N   UNL     1      -0.824  -2.368  -0.824  0.00  0.00    -0.295 NA
ATOM      8  H   UNL     1      -1.274  -1.848  -1.562  0.00  0.00    +0.124 HD
ATOM      9  H   UNL     1      -2.420  -4.305   1.111  0.00  0.00    -0.081 HD
BRANCH   2  10
ATOM     10  O   UNL     1      -1.226  -0.563   0.654  0.00  0.00    -0.364 OA
BRANCH  10  12
ATOM     11  C   UNL     1       0.134   1.410   0.970  0.00  0.00    +0.034 C 
ATOM     12  C   UNL     1       0.122  -0.111   0.805  0.00  0.00    +0.158 C 
ENDBRANCH  10  12
ENDBRANCH   2  10
ENDBRANCH   1   4
BRANCH   1  13
ATOM     13  C   UNL     1      -4.897  -3.794   1.860  0.00  0.00    -0.059 A 
ATOM     14  C   UNL     1      -4.108  -3.937   2.986  0.00  0.00    +0.002 A 
ATOM     15  C   UNL     1      -4.594  -3.556   4.223  0.00  0.00    +0.004 A 
ATOM     16  C   UNL     1      -5.868  -3.032   4.334  0.00  0.00    -0.047 A 
ATOM     17  C   UNL     1      -6.657  -2.889   3.208  0.00  0.00    +0.004 A 
ATOM     18  C   UNL     1      -6.170  -3.266   1.970  0.00  0.00    +0.002 A 
BRANCH  16  19
ATOM     19  C   UNL     1      -6.398  -2.618   5.682  0.00  0.00    +0.038 C 
BRANCH  19  20
ATOM     20  C   UNL     1      -6.049  -1.151   5.939  0.00  0.00    -0.013 C 
ATOM     21  C   UNL     1      -6.693  -0.695   7.250  0.00  0.00    +0.007 C 
ATOM     22  C   UNL     1      -4.530  -0.997   6.036  0.00  0.00    +0.007 C 
ENDBRANCH  19  20
ENDBRANCH  16  19
ENDBRANCH   1  13
BRANCH   1  23
ATOM     23  C   UNL     1      -4.498  -5.726   0.357  0.00  0.00    +0.091 C 
BRANCH  23  24
ATOM     24  N   UNL     1      -5.914  -6.100   0.388  0.00  0.00    -0.342 N 
ATOM     25  H   UNL     1      -6.597  -5.412   0.419  0.00  0.00    +0.146 HD
BRANCH  24  26
ATOM     26  C   UNL     1      -6.282  -7.450   0.372  0.00  0.00    +0.069 A 
ATOM     27  C   UNL     1      -5.307  -8.436   0.334  0.00  0.00    +0.026 A 
ATOM     28  C   UNL     1      -5.673  -9.769   0.319  0.00  0.00    +0.002 A 
ATOM     29  C   UNL     1      -7.009 -10.123   0.342  0.00  0.00    +0.004 A 
ATOM     30  C   UNL     1      -7.987  -9.146   0.381  0.00  0.00    +0.047 A 
ATOM     31  C   UNL     1      -7.628  -7.808   0.401  0.00  0.00    +0.138 A 
BRANCH  31  32
ATOM     32  O   UNL     1      -8.588  -6.846   0.444  0.00  0.00    -0.505 OA
ATOM     33  H   UNL     1      -8.889  -6.551  -0.426  0.00  0.00    +0.292 HD
ENDBRANCH  31  32
ENDBRANCH  24  26
ENDBRANCH  23  24
ENDBRANCH   1  23
TORSDOF 10
