REMARK  Name = ZINC39324978
REMARK  10 active torsions:
REMARK  status: ('A' for Active; 'I' for Inactive)
REMARK    1  A    between atoms: C_1  and  O_2
REMARK    2  A    between atoms: O_2  and  C_3
REMARK    3  A    between atoms: C_3  and  C_5
REMARK    4  A    between atoms: C_9  and  S_11
REMARK    5  A    between atoms: S_11  and  N_14
REMARK    6  A    between atoms: N_14  and  C_15
REMARK    7  A    between atoms: N_14  and  C_23
REMARK    8  A    between atoms: C_15  and  C_16
REMARK    9  A    between atoms: C_16  and  C_17
REMARK   10  A    between atoms: C_23  and  C_24
REMARK                            x       y       z     vdW  Elec       q    Type
REMARK                         _______ _______ _______ _____ _____    ______ ____
ROOT
ATOM      1  N   UNL     1      -4.606  -5.208   1.695  0.00  0.00    -0.175 NA
ENDROOT
BRANCH   1   2
ATOM      2  S   UNL     1      -3.809  -4.585   0.384  0.00  0.00    +0.061 S 
ATOM      3  O   UNL     1      -4.721  -3.713  -0.269  0.00  0.00    -0.153 OA
ATOM      4  O   UNL     1      -3.198  -5.684  -0.279  0.00  0.00    -0.153 OA
BRANCH   2   9
ATOM      5  C   UNL     1      -1.682  -1.442   1.730  0.00  0.00    +0.061 A 
ATOM      6  C   UNL     1      -0.427  -2.008   1.965  0.00  0.00    +0.015 A 
ATOM      7  C   UNL     1      -0.222  -3.349   1.716  0.00  0.00    +0.003 A 
ATOM      8  C   UNL     1      -1.255  -4.133   1.234  0.00  0.00    +0.028 A 
ATOM      9  C   UNL     1      -2.501  -3.578   0.999  0.00  0.00    +0.106 A 
ATOM     10  C   UNL     1      -2.722  -2.240   1.249  0.00  0.00    +0.043 A 
BRANCH   5  11
ATOM     11  C   UNL     1      -1.910  -0.006   1.994  0.00  0.00    +0.339 C 
ATOM     12  O   UNL     1      -3.004   0.482   1.793  0.00  0.00    -0.245 OA
BRANCH  11  14
ATOM     13  C   UNL     1      -1.196   2.141   2.691  0.00  0.00    +0.280 C 
ATOM     14  O   UNL     1      -0.905   0.761   2.458  0.00  0.00    -0.464 OA
ENDBRANCH  11  14
ENDBRANCH   5  11
ENDBRANCH   2   9
ENDBRANCH   1   2
BRANCH   1  15
ATOM     15  C   UNL     1      -5.734  -4.479   2.281  0.00  0.00    +0.114 C 
BRANCH  15  16
ATOM     16  C   UNL     1      -7.040  -4.981   1.664  0.00  0.00    +0.052 C 
BRANCH  16  17
ATOM     17  C   UNL     1      -8.201  -4.231   2.266  0.00  0.00    -0.046 A 
ATOM     18  C   UNL     1      -8.818  -4.712   3.406  0.00  0.00    +0.003 A 
ATOM     19  C   UNL     1      -9.882  -4.024   3.958  0.00  0.00    +0.000 A 
ATOM     20  C   UNL     1     -10.329  -2.855   3.371  0.00  0.00    +0.000 A 
ATOM     21  C   UNL     1      -9.712  -2.374   2.232  0.00  0.00    +0.000 A 
ATOM     22  C   UNL     1      -8.645  -3.059   1.682  0.00  0.00    +0.003 A 
ENDBRANCH  16  17
ENDBRANCH  15  16
ENDBRANCH   1  15
BRANCH   1  23
ATOM     23  C   UNL     1      -4.183  -6.487   2.270  0.00  0.00    +0.126 C 
BRANCH  23  24
ATOM     24  C   UNL     1      -3.023  -6.252   3.241  0.00  0.00    +0.114 C 
ATOM     25  C   UNL     1      -2.431  -7.601   3.594  0.00  0.00    -0.003 C 
ATOM     26  C   UNL     1      -2.405  -7.948   4.909  0.00  0.00    -0.003 A 
ATOM     27  C   UNL     1      -1.850  -9.235   5.333  0.00  0.00    +0.059 A 
ATOM     28  C   UNL     1      -1.840  -9.551   6.654  0.00  0.00    +0.167 A 
ATOM     29  C   UNL     1      -2.353  -8.662   7.622  0.00  0.00    +0.168 A 
ATOM     30  C   UNL     1      -2.885  -7.438   7.274  0.00  0.00    +0.073 A 
ATOM     31  C   UNL     1      -2.936  -7.032   5.935  0.00  0.00    +0.044 A 
ATOM     32  N   UNL     1      -3.456  -5.843   5.619  0.00  0.00    -0.284 N 
ATOM     33  C   UNL     1      -3.537  -5.399   4.378  0.00  0.00    +0.225 C 
ATOM     34  O   UNL     1      -4.022  -4.306   4.152  0.00  0.00    -0.275 OA
ATOM     35  O   UNL     1      -2.211  -9.241   8.849  0.00  0.00    -0.453 OA
ATOM     36  C   UNL     1      -2.000 -10.641   8.596  0.00  0.00    +0.466 C 
ATOM     37  O   UNL     1      -1.387 -10.671   7.295  0.00  0.00    -0.453 OA
ATOM     38  H   UNL     1      -3.791  -5.280   6.335  0.00  0.00    +0.155 HD
ENDBRANCH  23  24
ENDBRANCH   1  23
TORSDOF 9
