REMARK  Name = ZINC15171877
REMARK  5 active torsions:
REMARK  status: ('A' for Active; 'I' for Inactive)
REMARK    1  A    between atoms: C_3  and  N_21
REMARK    2  A    between atoms: N_7  and  C_8
REMARK    3  A    between atoms: C_8  and  C_9
REMARK    4  A    between atoms: C_9  and  C_11
REMARK    5  A    between atoms: C_9  and  N_16
REMARK                            x       y       z     vdW  Elec       q    Type
REMARK                         _______ _______ _______ _____ _____    ______ ____
ROOT
ATOM      1  C   UNL     1       3.011   3.192   0.497  0.00  0.00    +0.095 C 
ENDROOT
BRANCH   1   8
ATOM      2  C   UNL     1       0.580  -0.866   2.118  0.00  0.00    +0.022 A 
ATOM      3  C   UNL     1       1.608  -0.709   3.038  0.00  0.00    +0.038 A 
ATOM      4  C   UNL     1       2.465   0.367   2.894  0.00  0.00    +0.166 A 
ATOM      5  C   UNL     1       2.273   1.248   1.835  0.00  0.00    +0.149 A 
ATOM      6  N   UNL     1       1.284   1.061   0.974  0.00  0.00    -0.238 NA
ATOM      7  C   UNL     1       0.451   0.044   1.087  0.00  0.00    +0.113 A 
ATOM      8  N   UNL     1       3.127   2.333   1.678  0.00  0.00    -0.328 N 
ATOM      9  H   UNL     1       3.890   2.547   2.441  0.00  0.00    +0.147 HD
BRANCH   4  10
ATOM     10  N   UNL     1       3.478   0.560   3.773  0.00  0.00    +0.060 N 
ATOM     11  O   UNL     1       4.561   0.952   3.377  0.00  0.00    -0.126 OA
ATOM     12  O   UNL     1       3.306   0.341   4.959  0.00  0.00    -0.126 OA
ENDBRANCH   4  10
ENDBRANCH   1   8
BRANCH   1  13
ATOM     13  C   UNL     1       4.141   4.224   0.503  0.00  0.00    +0.016 C 
BRANCH  13  14
ATOM     14  N   UNL     1       3.939   5.178  -0.595  0.00  0.00    +0.387 N 
ATOM     15  C   UNL     1       2.637   5.880  -0.458  0.00  0.00    -0.078 C 
ATOM     16  C   UNL     1       2.826   7.149  -1.326  0.00  0.00    -0.020 C 
ATOM     17  C   UNL     1       4.300   7.533  -1.062  0.00  0.00    -0.020 C 
ATOM     18  C   UNL     1       4.972   6.236  -0.575  0.00  0.00    -0.078 C 
ATOM     19  H   UNL     1       3.987   4.584  -1.520  0.00  0.00    -0.081 HD
ENDBRANCH  13  14
BRANCH  13  20
ATOM     20  C   UNL     1       5.462   3.523   0.324  0.00  0.00    +0.093 A 
ATOM     21  C   UNL     1       6.334   3.224   1.304  0.00  0.00    +0.043 A 
ATOM     22  C   UNL     1       7.429   2.571   0.693  0.00  0.00    +0.041 A 
ATOM     23  C   UNL     1       7.166   2.518  -0.625  0.00  0.00    +0.195 A 
ATOM     24  O   UNL     1       5.973   3.096  -0.843  0.00  0.00    -0.469 OA
ENDBRANCH  13  20
ENDBRANCH   1  13
TORSDOF 5
