REMARK  Name = ZINC22564704
REMARK  9 active torsions:
REMARK  status: ('A' for Active; 'I' for Inactive)
REMARK    1  A    between atoms: C_1  and  C_2
REMARK    2  A    between atoms: C_5  and  C_9
REMARK    3  A    between atoms: C_12  and  C_14
REMARK    4  A    between atoms: C_15  and  C_16
REMARK    5  A    between atoms: N_18  and  C_19
REMARK    6  A    between atoms: C_19  and  N_21
REMARK    7  A    between atoms: N_21  and  C_22
REMARK    8  A    between atoms: C_24  and  N_29
REMARK    9  A    between atoms: C_27  and  O_28
REMARK                            x       y       z     vdW  Elec       q    Type
REMARK                         _______ _______ _______ _____ _____    ______ ____
ROOT
ATOM      1  C   UNL     1       0.585  -8.261  -3.891  0.00  0.00    +0.242 C 
ATOM      2  O   UNL     1       0.837  -9.365  -3.441  0.00  0.00    -0.270 OA
ATOM      3  N   UNL     1       0.336  -8.111  -5.207  0.00  0.00    -0.264 N 
ATOM      4  H   UNL     1       0.136  -7.232  -5.565  0.00  0.00    +0.157 HD
ENDROOT
BRANCH   1   6
ATOM      5  C   UNL     1       0.804  -7.291  -1.706  0.00  0.00    +0.051 C 
ATOM      6  C   UNL     1       0.553  -7.139  -3.033  0.00  0.00    +0.071 C 
BRANCH   5  10
ATOM      7  C   UNL     1       0.566  -4.097  -0.139  0.00  0.00    +0.136 A 
ATOM      8  C   UNL     1       0.875  -4.865   0.961  0.00  0.00    +0.050 A 
ATOM      9  C   UNL     1       1.008  -6.183   0.514  0.00  0.00    +0.050 A 
ATOM     10  C   UNL     1       0.773  -6.168  -0.848  0.00  0.00    +0.129 A 
ATOM     11  O   UNL     1       0.503  -4.898  -1.217  0.00  0.00    -0.455 OA
BRANCH   7  16
ATOM     12  C   UNL     1      -0.336   1.585  -0.122  0.00  0.00    +0.045 C 
ATOM     13  C   UNL     1      -0.099   0.097  -0.126  0.00  0.00    -0.032 A 
ATOM     14  C   UNL     1      -0.194  -0.612  -1.311  0.00  0.00    +0.005 A 
ATOM     15  C   UNL     1       0.021  -1.974  -1.322  0.00  0.00    +0.012 A 
ATOM     16  C   UNL     1       0.335  -2.639  -0.134  0.00  0.00    +0.019 A 
ATOM     17  C   UNL     1       0.430  -1.918   1.058  0.00  0.00    +0.031 A 
ATOM     18  C   UNL     1       0.217  -0.554   1.054  0.00  0.00    +0.045 A 
ATOM     19 CL   UNL     1       0.340   0.346   2.534  0.00  0.00    -0.083 Cl
ENDBRANCH   7  16
ENDBRANCH   5  10
ENDBRANCH   1   6
BRANCH   3  20
ATOM     20  C   UNL     1       0.366  -9.182  -6.025  0.00  0.00    +0.141 C 
ATOM     21  S   UNL     1       0.720 -10.733  -5.393  0.00  0.00    -0.018 S 
BRANCH  20  22
ATOM     22  N   UNL     1       0.118  -9.031  -7.341  0.00  0.00    -0.294 N 
ATOM     23  H   UNL     1      -0.144  -8.165  -7.689  0.00  0.00    +0.154 HD
BRANCH  22  24
ATOM     24  C   UNL     1       0.237 -10.127  -8.206  0.00  0.00    +0.077 A 
ATOM     25  C   UNL     1      -0.338 -11.344  -7.870  0.00  0.00    +0.059 A 
ATOM     26  C   UNL     1      -0.219 -12.423  -8.726  0.00  0.00    +0.128 A 
ATOM     27  C   UNL     1       0.472 -12.293  -9.917  0.00  0.00    +0.036 A 
ATOM     28  C   UNL     1       1.048 -11.083 -10.258  0.00  0.00    +0.049 A 
ATOM     29  C   UNL     1       0.928  -9.995  -9.408  0.00  0.00    +0.138 A 
BRANCH  26  30
ATOM     30  N   UNL     1      -0.832 -13.721  -8.366  0.00  0.00    +0.056 N 
ATOM     31  O   UNL     1      -1.436 -13.837  -7.325  0.00  0.00    -0.126 OA
ATOM     32  O   UNL     1      -0.729 -14.666  -9.113  0.00  0.00    -0.126 OA
ENDBRANCH  26  30
BRANCH  29  33
ATOM     33  O   UNL     1       1.489  -8.803  -9.745  0.00  0.00    -0.505 OA
ATOM     34  H   UNL     1       2.400  -8.696  -9.438  0.00  0.00    +0.292 HD
ENDBRANCH  29  33
ENDBRANCH  22  24
ENDBRANCH  20  22
ENDBRANCH   3  20
TORSDOF 8
