REMARK  Name = ZINC10273039
REMARK  8 active torsions:
REMARK  status: ('A' for Active; 'I' for Inactive)
REMARK    1  A    between atoms: C_1  and  O_2
REMARK    2  A    between atoms: O_2  and  C_3
REMARK    3  A    between atoms: C_3  and  C_5
REMARK    4  A    between atoms: C_6  and  C_20
REMARK    5  A    between atoms: C_11  and  C_13
REMARK    6  A    between atoms: C_16  and  O_19
REMARK    7  A    between atoms: C_20  and  S_21
REMARK    8  A    between atoms: S_21  and  C_24
REMARK                            x       y       z     vdW  Elec       q    Type
REMARK                         _______ _______ _______ _____ _____    ______ ____
ROOT
ATOM      1  C   UNL     1       0.745  -2.016  -1.082  0.00  0.00    +0.080 C 
ATOM      2  C   UNL     1       1.167  -2.639  -2.204  0.00  0.00    +0.045 C 
ATOM      3  N   UNL     1       1.131  -3.999  -2.311  0.00  0.00    -0.271 N 
ATOM      4  C   UNL     1       0.688  -4.809  -1.341  0.00  0.00    +0.304 C 
ATOM      5  O   UNL     1       0.694  -6.010  -1.529  0.00  0.00    -0.252 OA
ATOM      6  N   UNL     1       0.235  -4.336  -0.163  0.00  0.00    -0.288 N 
ATOM      7  C   UNL     1       0.238  -2.880   0.055  0.00  0.00    +0.144 C 
ATOM      8  H   UNL     1       1.444  -4.402  -3.136  0.00  0.00    +0.156 HD
ATOM      9  H   UNL     1      -0.082  -4.941   0.526  0.00  0.00    +0.151 HD
ENDROOT
BRANCH   7  10
ATOM     10  C   UNL     1       1.079  -2.589   1.271  0.00  0.00    -0.022 A 
ATOM     11  C   UNL     1       2.328  -3.169   1.401  0.00  0.00    +0.009 A 
ATOM     12  C   UNL     1       3.101  -2.904   2.514  0.00  0.00    +0.046 A 
ATOM     13  C   UNL     1       2.624  -2.055   3.503  0.00  0.00    +0.117 A 
ATOM     14  C   UNL     1       1.371  -1.474   3.370  0.00  0.00    +0.046 A 
ATOM     15  C   UNL     1       0.604  -1.738   2.252  0.00  0.00    +0.009 A 
BRANCH  13  16
ATOM     16  O   UNL     1       3.383  -1.794   4.599  0.00  0.00    -0.507 OA
ATOM     17  H   UNL     1       3.966  -1.029   4.501  0.00  0.00    +0.292 HD
ENDBRANCH  13  16
ENDBRANCH   7  10
BRANCH   1  18
ATOM     18  C   UNL     1       0.782  -0.607  -0.970  0.00  0.00    +0.339 C 
ATOM     19  O   UNL     1      -0.234   0.043  -1.130  0.00  0.00    -0.245 OA
BRANCH  18  21
ATOM     20  C   UNL     1       1.909   1.442  -0.587  0.00  0.00    +0.280 C 
ATOM     21  O   UNL     1       1.944   0.017  -0.685  0.00  0.00    -0.465 OA
ENDBRANCH  18  21
ENDBRANCH   1  18
BRANCH   2  22
ATOM     22  C   UNL     1       1.684  -1.818  -3.357  0.00  0.00    +0.223 C 
BRANCH  22  23
ATOM     23  S   UNL     1       3.491  -1.955  -3.434  0.00  0.00    +0.002 S 
ATOM     24  O   UNL     1       4.079  -1.318  -2.308  0.00  0.00    -0.169 OA
ATOM     25  O   UNL     1       3.867  -3.276  -3.797  0.00  0.00    -0.169 OA
BRANCH  23  26
ATOM     26  C   UNL     1       3.963  -0.960  -4.810  0.00  0.00    +0.089 A 
ATOM     27  C   UNL     1       4.040  -1.518  -6.072  0.00  0.00    +0.028 A 
ATOM     28  C   UNL     1       4.409  -0.738  -7.152  0.00  0.00    +0.022 A 
ATOM     29  C   UNL     1       4.703   0.602  -6.968  0.00  0.00    +0.041 A 
ATOM     30  C   UNL     1       4.626   1.160  -5.705  0.00  0.00    +0.022 A 
ATOM     31  C   UNL     1       4.250   0.380  -4.627  0.00  0.00    +0.028 A 
ATOM     32 CL   UNL     1       5.168   1.582  -8.324  0.00  0.00    -0.084 Cl
ENDBRANCH  23  26
ENDBRANCH  22  23
ENDBRANCH   2  22
TORSDOF 7
