REMARK  Name = ZINC10467731
REMARK  7 active torsions:
REMARK  status: ('A' for Active; 'I' for Inactive)
REMARK    1  A    between atoms: C_1  and  C_2
REMARK    2  A    between atoms: C_2  and  C_4
REMARK    3  A    between atoms: C_2  and  N_10
REMARK    4  A    between atoms: N_13  and  C_14
REMARK    5  A    between atoms: C_14  and  C_15
REMARK    6  A    between atoms: C_15  and  C_17
REMARK    7  A    between atoms: C_15  and  C_22
REMARK                            x       y       z     vdW  Elec       q    Type
REMARK                         _______ _______ _______ _____ _____    ______ ____
ROOT
ATOM      1  C   UNL     1      -5.453  -1.797  -2.104  0.00  0.00    +0.075 C 
ENDROOT
BRANCH   1   2
ATOM      2  C   UNL     1      -6.253  -1.829  -3.381  0.00  0.00    -0.013 A 
ATOM      3  C   UNL     1      -5.955  -2.518  -4.493  0.00  0.00    +0.088 A 
ATOM      4  N   UNL     1      -6.912  -2.302  -5.447  0.00  0.00    -0.360 N 
ATOM      5  H   UNL     1      -6.913  -2.694  -6.334  0.00  0.00    +0.165 HD
ATOM      6  C   UNL     1      -7.875  -1.447  -4.958  0.00  0.00    +0.047 A 
ATOM      7  C   UNL     1      -7.507  -1.118  -3.640  0.00  0.00    +0.003 A 
ATOM      8  C   UNL     1      -8.311  -0.261  -2.887  0.00  0.00    +0.010 A 
ATOM      9  C   UNL     1      -9.454   0.252  -3.433  0.00  0.00    +0.001 A 
ATOM     10  C   UNL     1      -9.823  -0.072  -4.731  0.00  0.00    +0.002 A 
ATOM     11  C   UNL     1      -9.039  -0.909  -5.495  0.00  0.00    +0.026 A 
ENDBRANCH   1   2
BRANCH   1  12
ATOM     12  C   UNL     1      -5.343  -3.192  -1.545  0.00  0.00    -0.001 A 
ATOM     13  C   UNL     1      -5.769  -3.669  -0.350  0.00  0.00    +0.012 A 
ATOM     14  C   UNL     1      -5.560  -5.001  -0.046  0.00  0.00    +0.008 A 
ATOM     15  C   UNL     1      -4.934  -5.792  -0.953  0.00  0.00    +0.045 A 
ATOM     16  S   UNL     1      -4.626  -4.648  -2.289  0.00  0.00    -0.101 S 
ENDBRANCH   1  12
BRANCH   1  17
ATOM     17  C   UNL     1      -4.053  -1.252  -2.393  0.00  0.00    +0.119 C 
BRANCH  17  21
ATOM     18  N   UNL     1      -1.372  -0.511   0.012  0.00  0.00    -0.293 N 
ATOM     19  C   UNL     1      -2.051  -0.643  -1.145  0.00  0.00    +0.300 C 
ATOM     20  O   UNL     1      -1.522  -0.341  -2.197  0.00  0.00    -0.253 OA
ATOM     21  N   UNL     1      -3.315  -1.109  -1.135  0.00  0.00    -0.298 N 
ATOM     22  H   UNL     1      -1.794  -0.752   0.852  0.00  0.00    +0.151 HD
ATOM     23  H   UNL     1      -3.737  -1.350  -0.295  0.00  0.00    +0.150 HD
BRANCH  18  25
ATOM     24  C   UNL     1      -0.019   1.526   0.010  0.00  0.00    +0.033 C 
ATOM     25  C   UNL     1       0.002  -0.004   0.002  0.00  0.00    +0.102 C 
BRANCH  25  26
ATOM     26  C   UNL     1       0.731  -0.503   1.223  0.00  0.00    -0.027 A 
ATOM     27  C   UNL     1       0.081  -0.558   2.442  0.00  0.00    +0.005 A 
ATOM     28  C   UNL     1       0.749  -1.016   3.562  0.00  0.00    +0.000 A 
ATOM     29  C   UNL     1       2.068  -1.420   3.463  0.00  0.00    +0.000 A 
ATOM     30  C   UNL     1       2.718  -1.365   2.244  0.00  0.00    +0.000 A 
ATOM     31  C   UNL     1       2.048  -0.911   1.123  0.00  0.00    +0.005 A 
ENDBRANCH  25  26
ENDBRANCH  18  25
ENDBRANCH  17  21
ENDBRANCH   1  17
TORSDOF 6
