REMARK  Name = ZINC65380866
REMARK  7 active torsions:
REMARK  status: ('A' for Active; 'I' for Inactive)
REMARK    1  A    between atoms: C_1  and  C_2
REMARK    2  A    between atoms: C_4  and  C_28
REMARK    3  A    between atoms: C_7  and  C_13
REMARK    4  A    between atoms: C_9  and  C_12
REMARK    5  A    between atoms: N_15  and  C_16
REMARK    6  A    between atoms: C_16  and  C_17
REMARK    7  A    between atoms: C_22  and  N_23
REMARK                            x       y       z     vdW  Elec       q    Type
REMARK                         _______ _______ _______ _____ _____    ______ ____
ROOT
ATOM      1  C   UNL     1       1.314  -5.168   1.842  0.00  0.00    +0.240 C 
ATOM      2  O   UNL     1       2.270  -5.167   1.096  0.00  0.00    -0.273 OA
ATOM      3  N   UNL     1       1.366  -5.850   3.003  0.00  0.00    -0.309 N 
ATOM      4  H   UNL     1       0.601  -5.851   3.599  0.00  0.00    +0.149 HD
ENDROOT
BRANCH   1  11
ATOM      5  C   UNL     1      -0.018   1.503   0.010  0.00  0.00    +0.044 C 
ATOM      6  C   UNL     1       0.002  -0.004   0.002  0.00  0.00    -0.050 A 
ATOM      7  C   UNL     1       0.005  -0.680  -1.226  0.00  0.00    +0.008 A 
ATOM      8  C   UNL     1       0.023  -2.026  -1.317  0.00  0.00    -0.027 A 
ATOM      9  C   UNL     1       0.039  -2.826  -0.141  0.00  0.00    +0.046 A 
ATOM     10  N   UNL     1       0.057  -4.126   0.030  0.00  0.00    -0.370 N 
ATOM     11  C   UNL     1       0.067  -4.408   1.470  0.00  0.00    +0.193 C 
ATOM     12  C   UNL     1       0.052  -3.060   2.156  0.00  0.00    -0.033 C 
ATOM     13  C   UNL     1       0.036  -2.137   1.168  0.00  0.00    -0.000 A 
ATOM     14  C   UNL     1       0.022  -0.669   1.180  0.00  0.00    +0.013 A 
ATOM     15  C   UNL     1       0.055  -2.799   3.641  0.00  0.00    +0.042 C 
ATOM     16  C   UNL     1       0.026  -2.686  -2.672  0.00  0.00    +0.046 C 
ATOM     17  H   UNL     1       0.062  -4.790  -0.677  0.00  0.00    +0.161 HD
ENDBRANCH   1  11
BRANCH   3  18
ATOM     18  C   UNL     1       2.578  -6.590   3.364  0.00  0.00    +0.143 C 
BRANCH  18  19
ATOM     19  C   UNL     1       2.378  -7.259   4.699  0.00  0.00    +0.014 A 
ATOM     20  C   UNL     1       2.893  -6.692   5.853  0.00  0.00    +0.010 A 
ATOM     21  C   UNL     1       2.685  -7.343   7.060  0.00  0.00    +0.020 A 
ATOM     22  C   UNL     1       1.976  -8.528   7.076  0.00  0.00    +0.113 A 
ATOM     23  N   UNL     1       1.498  -9.045   5.961  0.00  0.00    -0.236 NA
ATOM     24  C   UNL     1       1.671  -8.451   4.791  0.00  0.00    +0.160 A 
BRANCH  24  25
ATOM     25  N   UNL     1       1.141  -9.032   3.634  0.00  0.00    -0.202 N 
ATOM     26  C   UNL     1       0.854 -10.335   3.443  0.00  0.00    +0.226 A 
ATOM     27  N   UNL     1       0.376 -10.470   2.232  0.00  0.00    -0.222 NA
ATOM     28  C   UNL     1       0.342  -9.285   1.624  0.00  0.00    +0.245 A 
ATOM     29  N   UNL     1       0.795  -8.373   2.443  0.00  0.00    -0.152 NA
ENDBRANCH  24  25
ENDBRANCH  18  19
ENDBRANCH   3  18
TORSDOF 4
