REMARK  Name = ZINC36207523
REMARK  14 active torsions:
REMARK  status: ('A' for Active; 'I' for Inactive)
REMARK    1  A    between atoms: C_1  and  C_2
REMARK    2  A    between atoms: C_8  and  C_17
REMARK    3  A    between atoms: C_12  and  C_13
REMARK    4  A    between atoms: C_13  and  O_15
REMARK    5  A    between atoms: O_15  and  C_16
REMARK    6  A    between atoms: C_17  and  N_18
REMARK    7  A    between atoms: N_18  and  C_19
REMARK    8  A    between atoms: N_18  and  C_26
REMARK    9  A    between atoms: C_19  and  C_20
REMARK   10  A    between atoms: C_26  and  C_27
REMARK   11  A    between atoms: C_27  and  C_29
REMARK   12  A    between atoms: C_27  and  O_37
REMARK   13  A    between atoms: C_29  and  O_30
REMARK   14  A    between atoms: O_30  and  C_31
REMARK                            x       y       z     vdW  Elec       q    Type
REMARK                         _______ _______ _______ _____ _____    ______ ____
ROOT
ATOM      1  N   UNL     1       0.151  -4.852  -4.157  0.00  0.00    +0.389 N 
ATOM      2  H   UNL     1       0.926  -5.135  -3.575  0.00  0.00    -0.081 HD
ENDROOT
BRANCH   1   3
ATOM      3  C   UNL     1       0.329  -3.451  -4.561  0.00  0.00    -0.003 C 
BRANCH   3  11
ATOM      4  C   UNL     1       1.177   1.058   0.256  0.00  0.00    +0.046 C 
ATOM      5  C   UNL     1       0.965  -0.431   0.172  0.00  0.00    -0.015 A 
ATOM      6  C   UNL     1       0.822  -1.049  -1.072  0.00  0.00    +0.076 A 
ATOM      7  C   UNL     1       0.845  -0.446  -2.424  0.00  0.00    +0.260 A 
ATOM      8  O   UNL     1       1.006   0.752  -2.571  0.00  0.00    -0.267 OA
ATOM      9  N   UNL     1       0.684  -1.258  -3.487  0.00  0.00    -0.312 N 
ATOM     10  H   UNL     1       0.697  -0.879  -4.380  0.00  0.00    +0.170 HD
ATOM     11  C   UNL     1       0.504  -2.593  -3.336  0.00  0.00    +0.094 A 
ATOM     12  N   UNL     1       0.479  -3.156  -2.158  0.00  0.00    -0.229 NA
ATOM     13  C   UNL     1       0.628  -2.449  -1.045  0.00  0.00    +0.116 A 
ATOM     14  S   UNL     1       0.653  -2.832   0.688  0.00  0.00    -0.062 S 
ATOM     15  C   UNL     1       0.918  -1.181   1.312  0.00  0.00    +0.102 A 
BRANCH  15  16
ATOM     16  C   UNL     1       1.050  -0.740   2.702  0.00  0.00    +0.346 C 
ATOM     17  O   UNL     1       1.227   0.437   2.953  0.00  0.00    -0.244 OA
BRANCH  16  18
ATOM     18  O   UNL     1       0.976  -1.639   3.705  0.00  0.00    -0.464 OA
ATOM     19  C   UNL     1       1.113  -1.138   5.037  0.00  0.00    +0.280 C 
ENDBRANCH  16  18
ENDBRANCH  15  16
ENDBRANCH   3  11
ENDBRANCH   1   3
BRANCH   1  20
ATOM     20  C   UNL     1      -1.102  -4.990  -3.403  0.00  0.00    -0.042 C 
BRANCH  20  21
ATOM     21  C   UNL     1      -2.258  -4.558  -4.268  0.00  0.00    -0.064 A 
ATOM     22  C   UNL     1      -2.659  -3.235  -4.277  0.00  0.00    +0.002 A 
ATOM     23  C   UNL     1      -3.719  -2.839  -5.071  0.00  0.00    +0.000 A 
ATOM     24  C   UNL     1      -4.379  -3.766  -5.855  0.00  0.00    +0.000 A 
ATOM     25  C   UNL     1      -3.978  -5.089  -5.847  0.00  0.00    +0.000 A 
ATOM     26  C   UNL     1      -2.915  -5.484  -5.057  0.00  0.00    +0.002 A 
ENDBRANCH  20  21
ENDBRANCH   1  20
BRANCH   1  27
ATOM     27  C   UNL     1       0.100  -5.705  -5.352  0.00  0.00    -0.043 C 
BRANCH  27  28
ATOM     28  C   UNL     1       0.054  -7.174  -4.929  0.00  0.00    +0.135 C 
BRANCH  28  29
ATOM     29  O   UNL     1       1.240  -7.497  -4.201  0.00  0.00    -0.390 OA
ATOM     30  H   UNL     1       2.057  -7.370  -4.703  0.00  0.00    +0.210 HD
ENDBRANCH  28  29
BRANCH  28  31
ATOM     31  C   UNL     1      -0.038  -8.060  -6.173  0.00  0.00    +0.258 C 
BRANCH  31  32
ATOM     32  O   UNL     1      -0.198  -9.424  -5.776  0.00  0.00    -0.489 OA
BRANCH  32  33
ATOM     33  C   UNL     1      -0.296 -10.348  -6.768  0.00  0.00    +0.121 A 
ATOM     34  C   UNL     1      -0.235  -9.951  -8.095  0.00  0.00    +0.045 A 
ATOM     35  C   UNL     1      -0.335 -10.892  -9.102  0.00  0.00    +0.004 A 
ATOM     36  C   UNL     1      -0.496 -12.229  -8.786  0.00  0.00    +0.000 A 
ATOM     37  C   UNL     1      -0.559 -12.627  -7.463  0.00  0.00    +0.004 A 
ATOM     38  C   UNL     1      -0.453 -11.690  -6.454  0.00  0.00    +0.045 A 
ENDBRANCH  32  33
ENDBRANCH  31  32
ENDBRANCH  28  31
ENDBRANCH  27  28
ENDBRANCH   1  27
TORSDOF 12
