REMARK  Name = ZINC13232527
REMARK  9 active torsions:
REMARK  status: ('A' for Active; 'I' for Inactive)
REMARK    1  A    between atoms: C_1  and  C_2
REMARK    2  A    between atoms: C_2  and  N_3
REMARK    3  A    between atoms: C_9  and  C_30
REMARK    4  A    between atoms: C_13  and  S_14
REMARK    5  A    between atoms: S_14  and  C_15
REMARK    6  A    between atoms: C_15  and  C_17
REMARK    7  A    between atoms: C_15  and  C_18
REMARK    8  A    between atoms: N_20  and  C_21
REMARK    9  A    between atoms: N_20  and  C_22
REMARK                            x       y       z     vdW  Elec       q    Type
REMARK                         _______ _______ _______ _____ _____    ______ ____
ROOT
ATOM      1  N   UNL     1       1.386   5.018   1.454  0.00  0.00    -0.288 N 
ATOM      2  C   UNL     1       2.701   5.318   1.559  0.00  0.00    +0.262 A 
ATOM      3  O   UNL     1       3.083   6.473   1.597  0.00  0.00    -0.267 OA
ATOM      4  C   UNL     1       3.652   4.198   1.627  0.00  0.00    +0.065 A 
ATOM      5  C   UNL     1       5.026   4.409   1.736  0.00  0.00    +0.016 A 
ATOM      6  C   UNL     1       5.876   3.342   1.796  0.00  0.00    +0.016 A 
ATOM      7  C   UNL     1       5.381   2.033   1.749  0.00  0.00    +0.065 A 
ATOM      8  C   UNL     1       4.016   1.799   1.639  0.00  0.00    +0.043 A 
ATOM      9  C   UNL     1       3.136   2.883   1.577  0.00  0.00    +0.080 A 
ATOM     10  N   UNL     1       1.798   2.703   1.476  0.00  0.00    -0.223 NA
ATOM     11  C   UNL     1       0.972   3.718   1.413  0.00  0.00    +0.173 A 
ENDROOT
BRANCH   7  12
ATOM     12  C   UNL     1       6.319   0.890   1.815  0.00  0.00    +0.387 C 
ATOM     13  O   UNL     1       5.895  -0.247   1.774  0.00  0.00    -0.241 OA
ATOM     14  O   UNL     1       7.643   1.111   1.921  0.00  0.00    -0.241 OA
ENDBRANCH   7  12
BRANCH   1  16
ATOM     15  C   UNL     1      -0.059   6.464   2.797  0.00  0.00    +0.027 C 
ATOM     16  C   UNL     1       0.398   6.098   1.384  0.00  0.00    +0.124 C 
ENDBRANCH   1  16
BRANCH  11  17
ATOM     17  S   UNL     1      -0.753   3.389   1.277  0.00  0.00    -0.075 S 
BRANCH  17  18
ATOM     18  C   UNL     1      -0.729   1.579   1.267  0.00  0.00    +0.137 C 
ATOM     19  C   UNL     1      -0.013   1.086   0.008  0.00  0.00    +0.029 C 
BRANCH  18  20
ATOM     20  C   UNL     1      -2.143   1.058   1.278  0.00  0.00    +0.229 C 
ATOM     21  O   UNL     1      -3.045   1.743   0.846  0.00  0.00    -0.274 OA
ATOM     22  N   UNL     1      -2.404  -0.171   1.767  0.00  0.00    -0.299 N 
ATOM     23  C   UNL     1      -1.314  -0.999   2.288  0.00  0.00    +0.132 C 
BRANCH  22  24
ATOM     24  C   UNL     1      -3.779  -0.678   1.777  0.00  0.00    +0.098 C 
ATOM     25  C   UNL     1      -3.863  -1.965   0.941  0.00  0.00    +0.046 C 
ATOM     26  C   UNL     1      -5.213  -2.677   1.203  0.00  0.00    +0.168 C 
ATOM     27  S   UNL     1      -5.620  -2.151   2.918  0.00  0.00    -0.029 S 
ATOM     28  O   UNL     1      -6.821  -1.393   2.896  0.00  0.00    -0.174 OA
ATOM     29  O   UNL     1      -5.517  -3.275   3.782  0.00  0.00    -0.174 OA
ATOM     30  C   UNL     1      -4.202  -1.018   3.235  0.00  0.00    +0.188 C 
ENDBRANCH  22  24
ENDBRANCH  18  20
ENDBRANCH  17  18
ENDBRANCH  11  17
TORSDOF 6
