REMARK  Name = ZINC39453079
REMARK  6 active torsions:
REMARK  status: ('A' for Active; 'I' for Inactive)
REMARK    1  A    between atoms: C_1  and  O_2
REMARK    2  A    between atoms: O_2  and  N_3
REMARK    3  A    between atoms: C_12  and  C_18
REMARK    4  A    between atoms: C_23  and  O_24
REMARK    5  A    between atoms: C_26  and  S_31
REMARK    6  A    between atoms: S_31  and  C_32
REMARK                            x       y       z     vdW  Elec       q    Type
REMARK                         _______ _______ _______ _____ _____    ______ ____
ROOT
ATOM      1  N   UNL     1       0.667  -0.577   1.113  0.00  0.00    -0.139 N 
ATOM      2  C   UNL     1       2.033  -0.826   1.023  0.00  0.00    +0.149 A 
ATOM      3  C   UNL     1       2.724  -1.389   2.077  0.00  0.00    +0.085 A 
ATOM      4  C   UNL     1       2.014  -1.726   3.322  0.00  0.00    +0.100 A 
ATOM      5  C   UNL     1       0.620  -1.459   3.387  0.00  0.00    +0.070 A 
ATOM      6  C   UNL     1      -0.042  -0.857   2.221  0.00  0.00    +0.293 A 
ATOM      7  O   UNL     1      -1.234  -0.615   2.256  0.00  0.00    -0.264 OA
ATOM      8  C   UNL     1      -0.086  -1.765   4.542  0.00  0.00    +0.026 A 
ATOM      9  C   UNL     1       0.621  -2.333   5.610  0.00  0.00    +0.009 A 
ATOM     10  C   UNL     1      -0.034  -2.674   6.819  0.00  0.00    -0.005 A 
ATOM     11  C   UNL     1       0.699  -3.232   7.852  0.00  0.00    +0.009 A 
ATOM     12  C   UNL     1       2.064  -3.457   7.710  0.00  0.00    +0.003 A 
ATOM     13  C   UNL     1       2.717  -3.139   6.559  0.00  0.00    +0.028 A 
ATOM     14  C   UNL     1       2.015  -2.571   5.478  0.00  0.00    +0.072 A 
ATOM     15  N   UNL     1       2.650  -2.260   4.347  0.00  0.00    -0.245 NA
ATOM     16  N   UNL     1       4.078  -1.638   1.959  0.00  0.00    -0.328 N 
ATOM     17  C   UNL     1       4.630  -1.867   0.615  0.00  0.00    +0.136 C 
ATOM     18  C   UNL     1       4.205  -0.699  -0.283  0.00  0.00    +0.114 C 
ATOM     19  C   UNL     1       2.716  -0.500  -0.171  0.00  0.00    +0.187 C 
ATOM     20  O   UNL     1       2.097  -0.054  -1.116  0.00  0.00    -0.290 OA
ATOM     21  H   UNL     1       4.650  -1.662   2.742  0.00  0.00    +0.147 HD
ENDROOT
BRANCH  10  22
ATOM     22  C   UNL     1      -1.486  -2.434   6.976  0.00  0.00    +0.024 A 
ATOM     23  C   UNL     1      -1.947  -1.509   7.912  0.00  0.00    +0.012 A 
ATOM     24  C   UNL     1      -3.301  -1.290   8.053  0.00  0.00    +0.001 A 
ATOM     25  C   UNL     1      -4.206  -1.985   7.269  0.00  0.00    +0.004 A 
ATOM     26  C   UNL     1      -3.761  -2.905   6.339  0.00  0.00    +0.046 A 
ATOM     27  C   UNL     1      -2.404  -3.132   6.181  0.00  0.00    +0.125 A 
BRANCH  27  28
ATOM     28  O   UNL     1      -1.965  -4.031   5.263  0.00  0.00    -0.506 OA
ATOM     29  H   UNL     1      -1.878  -4.932   5.605  0.00  0.00    +0.292 HD
ENDBRANCH  27  28
ENDBRANCH  10  22
BRANCH   1  31
ATOM     30  C   UNL     1      -0.017   1.425   0.010  0.00  0.00    +0.311 C 
ATOM     31  O   UNL     1       0.002  -0.004   0.002  0.00  0.00    -0.411 OA
ENDBRANCH   1  31
BRANCH  17  32
ATOM     32  S   UNL     1       3.982  -3.423  -0.056  0.00  0.00    -0.142 S 
ATOM     33  C   UNL     1       5.377  -4.574   0.081  0.00  0.00    +0.086 C 
ENDBRANCH  17  32
TORSDOF 4
