REMARK  Name = ZINC06638123
REMARK  9 active torsions:
REMARK  status: ('A' for Active; 'I' for Inactive)
REMARK    1  A    between atoms: C_3  and  O_9
REMARK    2  A    between atoms: O_9  and  C_10
REMARK    3  A    between atoms: C_10  and  C_11
REMARK    4  A    between atoms: C_11  and  C_13
REMARK    5  A    between atoms: C_11  and  O_26
REMARK    6  A    between atoms: C_13  and  N_54
REMARK    7  A    between atoms: C_14  and  C_15
REMARK    8  A    between atoms: C_14  and  N_54
REMARK    9  A    between atoms: C_15  and  C_16
REMARK                            x       y       z     vdW  Elec       q    Type
REMARK                         _______ _______ _______ _____ _____    ______ ____
ROOT
ATOM      1  N   UNL     1      -4.967  -3.065   0.134  0.00  0.00    +0.381 N 
ATOM      2  H   UNL     1      -5.442  -2.812  -0.741  0.00  0.00    -0.086 HD
ATOM      3  H   UNL     1      -5.492  -2.687   0.931  0.00  0.00    -0.086 HD
ENDROOT
BRANCH   1   4
ATOM      4  C   UNL     1      -3.607  -2.492   0.131  0.00  0.00    -0.048 C 
BRANCH   4   5
ATOM      5  C   UNL     1      -3.705  -0.970   0.014  0.00  0.00    +0.135 C 
BRANCH   5   6
ATOM      6  O   UNL     1      -4.373  -0.627  -1.202  0.00  0.00    -0.390 OA
ATOM      7  H   UNL     1      -3.927  -0.947  -1.999  0.00  0.00    +0.210 HD
ENDBRANCH   5   6
BRANCH   5   8
ATOM      8  C   UNL     1      -2.299  -0.367   0.011  0.00  0.00    +0.258 C 
BRANCH   8   9
ATOM      9  O   UNL     1      -2.391   1.059   0.019  0.00  0.00    -0.488 OA
BRANCH   9  12
ATOM     10  C   UNL     1       1.175   1.783   0.000  0.00  0.00    +0.023 A 
ATOM     11  C   UNL     1      -0.013   1.076   0.008  0.00  0.00    +0.048 A 
ATOM     12  C   UNL     1      -1.222   1.753   0.017  0.00  0.00    +0.139 A 
ATOM     13  C   UNL     1      -1.239   3.141   0.031  0.00  0.00    +0.084 A 
ATOM     14  C   UNL     1      -0.049   3.845   0.024  0.00  0.00    +0.043 A 
ATOM     15  C   UNL     1       1.157   3.167   0.008  0.00  0.00    +0.043 A 
ATOM     16 CL   UNL     1       2.650   4.052  -0.001  0.00  0.00    -0.083 Cl
ATOM     17 CL   UNL     1      -2.752   3.993   0.050  0.00  0.00    -0.080 Cl
ENDBRANCH   9  12
ENDBRANCH   8   9
ENDBRANCH   5   8
ENDBRANCH   4   5
ENDBRANCH   1   4
BRANCH   1  18
ATOM     18  C   UNL     1      -4.903  -4.534   0.245  0.00  0.00    -0.082 C 
BRANCH  18  19
ATOM     19  C   UNL     1      -6.325  -5.099   0.245  0.00  0.00    -0.012 C 
BRANCH  19  20
ATOM     20  C   UNL     1      -6.268  -6.624   0.361  0.00  0.00    -0.030 C 
ATOM     21  C   UNL     1      -5.492  -7.197  -0.826  0.00  0.00    +0.010 C 
ATOM     22  C   UNL     1      -5.435  -8.721  -0.710  0.00  0.00    -0.010 C 
ATOM     23  C   UNL     1      -6.857  -9.286  -0.710  0.00  0.00    +0.007 C 
ATOM     24  C   UNL     1      -7.633  -8.713   0.477  0.00  0.00    -0.010 C 
ATOM     25  C   UNL     1      -7.690  -7.189   0.361  0.00  0.00    +0.010 C 
ATOM     26  C   UNL     1      -6.931  -9.100   1.780  0.00  0.00    +0.007 C 
ATOM     27  C   UNL     1      -5.509  -8.535   1.780  0.00  0.00    -0.010 C 
ATOM     28  C   UNL     1      -4.733  -9.108   0.593  0.00  0.00    +0.007 C 
ATOM     29  C   UNL     1      -5.566  -7.010   1.665  0.00  0.00    +0.010 C 
ENDBRANCH  19  20
ENDBRANCH  18  19
ENDBRANCH   1  18
TORSDOF 9
