REMARK  Name = ZINC39675923
REMARK  9 active torsions:
REMARK  status: ('A' for Active; 'I' for Inactive)
REMARK    1  A    between atoms: C_1  and  C_2
REMARK    2  A    between atoms: C_6  and  C_7
REMARK    3  A    between atoms: C_11  and  C_20
REMARK    4  A    between atoms: N_22  and  C_23
REMARK    5  A    between atoms: C_23  and  C_24
REMARK    6  A    between atoms: C_24  and  C_26
REMARK    7  A    between atoms: C_24  and  N_32
REMARK    8  A    between atoms: N_32  and  C_33
REMARK    9  A    between atoms: N_32  and  C_34
REMARK                            x       y       z     vdW  Elec       q    Type
REMARK                         _______ _______ _______ _____ _____    ______ ____
ROOT
ATOM      1  C   UNL     1      -0.077  -0.403   2.551  0.00  0.00    +0.254 C 
ATOM      2  O   UNL     1      -0.059   0.776   2.851  0.00  0.00    -0.269 OA
ATOM      3  N   UNL     1      -0.165  -1.342   3.514  0.00  0.00    -0.296 N 
ATOM      4  C   UNL     1      -0.084  -2.813   3.358  0.00  0.00    +0.121 C 
ATOM      5  C   UNL     1       0.732  -3.291   4.581  0.00  0.00    +0.100 C 
ATOM      6  C   UNL     1       0.542  -2.187   5.635  0.00  0.00    -0.004 C 
ATOM      7  C   UNL     1      -0.358  -1.135   4.970  0.00  0.00    +0.115 C 
ATOM      8  C   UNL     1       1.887  -1.567   5.998  0.00  0.00    -0.010 C 
ATOM      9  C   UNL     1       1.680  -0.512   7.089  0.00  0.00    -0.082 C 
ATOM     10  N   UNL     1       1.072  -1.139   8.269  0.00  0.00    +0.379 N 
ATOM     11  C   UNL     1      -0.262  -1.651   7.933  0.00  0.00    -0.082 C 
ATOM     12  C   UNL     1      -0.136  -2.754   6.878  0.00  0.00    -0.010 C 
ATOM     13  H   UNL     1       1.655  -1.901   8.581  0.00  0.00    -0.086 HD
ATOM     14  H   UNL     1       0.992  -0.455   9.007  0.00  0.00    -0.086 HD
ENDROOT
BRANCH   1  20
ATOM     15  C   UNL     1      -0.061   1.498   0.084  0.00  0.00    +0.045 C 
ATOM     16  C   UNL     1       0.006  -0.006   0.008  0.00  0.00    -0.031 A 
ATOM     17  C   UNL     1       0.088  -0.674  -1.190  0.00  0.00    +0.011 A 
ATOM     18  C   UNL     1       0.146  -2.029  -1.186  0.00  0.00    +0.046 A 
ATOM     19  S   UNL     1       0.092  -2.439   0.442  0.00  0.00    -0.092 S 
ATOM     20  C   UNL     1      -0.004  -0.802   1.143  0.00  0.00    +0.077 A 
ENDBRANCH   1  20
BRANCH   5  21
ATOM     21  C   UNL     1       2.188  -3.429   4.219  0.00  0.00    +0.218 C 
ATOM     22  O   UNL     1       2.691  -2.663   3.425  0.00  0.00    -0.275 OA
ATOM     23  N   UNL     1       2.931  -4.405   4.777  0.00  0.00    -0.316 N 
ATOM     24  H   UNL     1       2.529  -5.018   5.413  0.00  0.00    +0.149 HD
BRANCH  23  25
ATOM     25  C   UNL     1       4.347  -4.540   4.426  0.00  0.00    +0.093 C 
BRANCH  25  26
ATOM     26  C   UNL     1       4.984  -5.635   5.283  0.00  0.00    -0.021 C 
BRANCH  26  27
ATOM     27  C   UNL     1       4.369  -6.966   4.936  0.00  0.00    -0.059 A 
ATOM     28  C   UNL     1       4.795  -7.652   3.814  0.00  0.00    +0.002 A 
ATOM     29  C   UNL     1       4.230  -8.874   3.496  0.00  0.00    +0.000 A 
ATOM     30  C   UNL     1       3.241  -9.409   4.299  0.00  0.00    +0.000 A 
ATOM     31  C   UNL     1       2.816  -8.722   5.422  0.00  0.00    +0.000 A 
ATOM     32  C   UNL     1       3.383  -7.503   5.743  0.00  0.00    +0.002 A 
ENDBRANCH  26  27
BRANCH  26  33
ATOM     33  N   UNL     1       6.429  -5.681   5.025  0.00  0.00    +0.382 N 
ATOM     34  C   UNL     1       7.047  -4.425   5.472  0.00  0.00    -0.096 C 
ATOM     35  C   UNL     1       7.022  -6.806   5.759  0.00  0.00    -0.096 C 
ATOM     36  H   UNL     1       6.590  -5.802   4.036  0.00  0.00    -0.082 HD
ENDBRANCH  26  33
ENDBRANCH  25  26
ENDBRANCH  23  25
ENDBRANCH   5  21
TORSDOF 6
