REMARK  Name = ZINC06498275
REMARK  7 active torsions:
REMARK  status: ('A' for Active; 'I' for Inactive)
REMARK    1  A    between atoms: C_1  and  O_2
REMARK    2  A    between atoms: O_2  and  C_3
REMARK    3  A    between atoms: C_3  and  C_5
REMARK    4  A    between atoms: C_5  and  N_6
REMARK    5  A    between atoms: C_17  and  C_28
REMARK    6  A    between atoms: C_23  and  N_27
REMARK    7  A    between atoms: C_24  and  C_25
REMARK                            x       y       z     vdW  Elec       q    Type
REMARK                         _______ _______ _______ _____ _____    ______ ____
ROOT
ATOM      1  N   UNL     1      -2.359  -2.353  -1.060  0.00  0.00    -0.259 N 
ATOM      2  C   UNL     1      -2.844  -2.868   0.129  0.00  0.00    +0.042 A 
ATOM      3  C   UNL     1      -2.225  -2.948   1.377  0.00  0.00    +0.024 A 
ATOM      4  C   UNL     1      -2.952  -3.518   2.410  0.00  0.00    +0.002 A 
ATOM      5  C   UNL     1      -4.235  -3.993   2.226  0.00  0.00    +0.000 A 
ATOM      6  C   UNL     1      -4.863  -3.920   0.987  0.00  0.00    +0.007 A 
ATOM      7  C   UNL     1      -4.146  -3.353  -0.045  0.00  0.00    -0.001 A 
ATOM      8  C   UNL     1      -4.493  -3.111  -1.479  0.00  0.00    +0.145 C 
ATOM      9  C   UNL     1      -3.264  -2.446  -2.058  0.00  0.00    +0.241 C 
ATOM     10  O   UNL     1      -3.119  -2.069  -3.202  0.00  0.00    -0.274 OA
ATOM     11  C   UNL     1      -5.684  -2.205  -1.609  0.00  0.00    +0.067 A 
ATOM     12  C   UNL     1      -5.811  -0.846  -1.304  0.00  0.00    +0.108 A 
ATOM     13  N   UNL     1      -7.049  -0.480  -1.583  0.00  0.00    -0.170 NA
ATOM     14  N   UNL     1      -7.740  -1.599  -2.073  0.00  0.00    -0.246 N 
ATOM     15  H   UNL     1      -8.668  -1.617  -2.356  0.00  0.00    +0.192 HD
ATOM     16  C   UNL     1      -6.889  -2.645  -2.082  0.00  0.00    +0.224 A 
ATOM     17  O   UNL     1      -7.097  -3.928  -2.469  0.00  0.00    -0.423 OA
ATOM     18  C   UNL     1      -6.019  -4.722  -2.633  0.00  0.00    +0.201 C 
ATOM     19  C   UNL     1      -4.778  -4.402  -2.197  0.00  0.00    +0.110 C 
ENDROOT
BRANCH  12  20
ATOM     20  C   UNL     1      -4.746   0.028  -0.763  0.00  0.00    +0.040 A 
ATOM     21  C   UNL     1      -4.386   1.290  -1.153  0.00  0.00    +0.018 A 
ATOM     22  C   UNL     1      -3.349   1.915  -0.494  0.00  0.00    +0.008 A 
ATOM     23  C   UNL     1      -2.719   1.264   0.517  0.00  0.00    +0.046 A 
ATOM     24  S   UNL     1      -3.602  -0.287   0.570  0.00  0.00    -0.095 S 
ENDBRANCH  12  20
BRANCH  18  25
ATOM     25  N   UNL     1      -6.190  -5.921  -3.278  0.00  0.00    -0.328 N 
ATOM     26  H   UNL     1      -7.068  -6.178  -3.601  0.00  0.00    +0.145 HD
ATOM     27  H   UNL     1      -5.433  -6.513  -3.411  0.00  0.00    +0.145 HD
ENDBRANCH  18  25
BRANCH  19  28
ATOM     28  C   UNL     1      -3.704  -5.320  -2.427  0.00  0.00    +0.102 C 
ATOM     29  N   UNL     1      -2.851  -6.049  -2.610  0.00  0.00    -0.191 NA
ENDBRANCH  19  28
BRANCH   1  30
ATOM     30  C   UNL     1      -1.024  -1.771  -1.217  0.00  0.00    +0.234 C 
BRANCH  30  31
ATOM     31  C   UNL     1      -0.029  -2.865  -1.503  0.00  0.00    +0.325 C 
ATOM     32  O   UNL     1      -0.409  -4.002  -1.661  0.00  0.00    -0.249 OA
BRANCH  31  34
ATOM     33  C   UNL     1       2.155  -3.641  -1.969  0.00  0.00    +0.280 C 
ATOM     34  O   UNL     1       1.280  -2.579  -1.583  0.00  0.00    -0.467 OA
ENDBRANCH  31  34
ENDBRANCH  30  31
ENDBRANCH   1  30
TORSDOF 6
