REMARK  Name = ZINC21294265
REMARK  3 active torsions:
REMARK  status: ('A' for Active; 'I' for Inactive)
REMARK    1  A    between atoms: C_1  and  C_2
REMARK    2  A    between atoms: C_2  and  N_3
REMARK    3  A    between atoms: C_12  and  C_14
REMARK                            x       y       z     vdW  Elec       q    Type
REMARK                         _______ _______ _______ _____ _____    ______ ____
ROOT
ATOM      1  N   UNL     1       0.713  -0.491   1.192  0.00  0.00    -0.297 NA
ATOM      2  C   UNL     1       0.954  -1.938   1.106  0.00  0.00    +0.091 C 
ATOM      3  C   UNL     1       2.000  -2.365   2.141  0.00  0.00    +0.071 C 
ATOM      4  C   UNL     1       1.567  -1.831   3.499  0.00  0.00    +0.056 A 
ATOM      5  C   UNL     1       0.646  -0.834   3.567  0.00  0.00    +0.028 A 
ATOM      6  S   UNL     1       0.485  -0.577   5.311  0.00  0.00    -0.055 S 
ATOM      7  C   UNL     1       1.593  -1.746   5.808  0.00  0.00    +0.165 A 
ATOM      8  N   UNL     1       2.018  -2.259   4.673  0.00  0.00    -0.229 NA
ATOM      9  N   UNL     1       1.967  -2.086   7.102  0.00  0.00    -0.260 N 
ATOM     10  C   UNL     1       2.878  -3.057   7.307  0.00  0.00    +0.256 C 
ATOM     11  O   UNL     1       3.373  -3.637   6.358  0.00  0.00    -0.269 OA
ATOM     12  C   UNL     1      -0.029  -0.156   2.425  0.00  0.00    +0.128 C 
ATOM     13  H   UNL     1       1.572  -1.624   7.858  0.00  0.00    +0.157 HD
ENDROOT
BRANCH  10  14
ATOM     14  C   UNL     1       3.272  -3.416   8.671  0.00  0.00    +0.075 A 
ATOM     15  C   UNL     1       4.179  -4.363   9.097  0.00  0.00    +0.024 A 
ATOM     16  C   UNL     1       4.341  -4.511  10.478  0.00  0.00    -0.036 A 
ATOM     17  C   UNL     1       3.567  -3.744  11.268  0.00  0.00    -0.006 A 
ATOM     18  S   UNL     1       2.714  -2.737  10.220  0.00  0.00    -0.088 S 
ATOM     19  C   UNL     1       3.336  -3.726  12.759  0.00  0.00    +0.043 C 
ATOM     20  C   UNL     1       4.136  -4.808  13.484  0.00  0.00    +0.005 C 
ATOM     21  C   UNL     1       5.582  -4.381  13.672  0.00  0.00    +0.000 C 
ATOM     22  C   UNL     1       6.130  -3.617  12.484  0.00  0.00    +0.000 C 
ATOM     23  C   UNL     1       6.607  -4.659  11.467  0.00  0.00    +0.005 C 
ATOM     24  C   UNL     1       5.404  -5.472  10.990  0.00  0.00    +0.036 C 
ENDBRANCH  10  14
BRANCH   1  26
ATOM     25  C   UNL     1      -0.019   1.526   0.010  0.00  0.00    +0.020 C 
ATOM     26  C   UNL     1       0.002  -0.004   0.002  0.00  0.00    +0.081 C 
ENDBRANCH   1  26
TORSDOF 2
