REMARK  Name = ZINC12329360
REMARK  6 active torsions:
REMARK  status: ('A' for Active; 'I' for Inactive)
REMARK    1  A    between atoms: C_6  and  C_7
REMARK    2  A    between atoms: C_7  and  C_9
REMARK    3  A    between atoms: C_7  and  O_27
REMARK    4  A    between atoms: C_9  and  N_57
REMARK    5  A    between atoms: C_16  and  O_26
REMARK    6  A    between atoms: C_20  and  O_25
REMARK                            x       y       z     vdW  Elec       q    Type
REMARK                         _______ _______ _______ _____ _____    ______ ____
ROOT
ATOM      1  C   UNL     1       5.288  -2.986  -0.650  0.00  0.00    -0.075 C 
ATOM      2  C   UNL     1       6.641  -3.701  -0.683  0.00  0.00    +0.029 C 
ATOM      3  C   UNL     1       6.913  -4.205  -2.101  0.00  0.00    +0.110 C 
ATOM      4  C   UNL     1       6.871  -3.028  -3.077  0.00  0.00    +0.029 C 
ATOM      5  C   UNL     1       5.512  -2.333  -2.974  0.00  0.00    -0.075 C 
ATOM      6  C   UNL     1       8.296  -4.864  -2.153  0.00  0.00    +0.084 C 
ATOM      7  C   UNL     1       8.345  -5.965  -1.090  0.00  0.00    +0.152 C 
ATOM      8  C   UNL     1       7.112  -6.826  -1.194  0.00  0.00    +0.026 A 
ATOM      9  C   UNL     1       7.122  -8.076  -0.598  0.00  0.00    +0.055 A 
ATOM     10  C   UNL     1       6.003  -8.891  -0.666  0.00  0.00    +0.117 A 
ATOM     11  C   UNL     1       4.869  -8.454  -1.333  0.00  0.00    +0.049 A 
ATOM     12  C   UNL     1       4.859  -7.210  -1.929  0.00  0.00    +0.049 A 
ATOM     13  C   UNL     1       5.982  -6.391  -1.863  0.00  0.00    +0.127 A 
ATOM     14  O   UNL     1       5.932  -5.174  -2.468  0.00  0.00    -0.485 OA
ATOM     15  N   UNL     1       5.326  -1.845  -1.590  0.00  0.00    +0.382 N 
ATOM     16  H   UNL     1       6.116  -1.236  -1.343  0.00  0.00    -0.082 HD
ENDROOT
BRANCH  10  17
ATOM     17  O   UNL     1       6.018 -10.118  -0.078  0.00  0.00    -0.507 OA
ATOM     18  H   UNL     1       6.326 -10.828  -0.658  0.00  0.00    +0.292 HD
ENDBRANCH  10  17
BRANCH   7  19
ATOM     19  O   UNL     1       9.507  -6.771  -1.294  0.00  0.00    -0.387 OA
ATOM     20  H   UNL     1       9.605  -7.488  -0.654  0.00  0.00    +0.210 HD
ENDBRANCH   7  19
BRANCH  15  21
ATOM     21  C   UNL     1       4.073  -1.069  -1.492  0.00  0.00    -0.042 C 
BRANCH  21  22
ATOM     22  C   UNL     1       4.230   0.224  -2.296  0.00  0.00    +0.128 C 
BRANCH  22  28
ATOM     23  C   UNL     1       2.804   1.893  -1.097  0.00  0.00    +0.010 A 
ATOM     24  C   UNL     1       1.652   2.648  -0.982  0.00  0.00    +0.050 A 
ATOM     25  C   UNL     1       0.662   2.557  -1.949  0.00  0.00    +0.162 A 
ATOM     26  C   UNL     1       0.834   1.708  -3.036  0.00  0.00    +0.162 A 
ATOM     27  C   UNL     1       1.992   0.953  -3.144  0.00  0.00    +0.055 A 
ATOM     28  C   UNL     1       2.973   1.046  -2.176  0.00  0.00    -0.017 A 
ATOM     29  O   UNL     1      -0.121   1.609  -4.001  0.00  0.00    -0.485 OA
ATOM     30  C   UNL     1      -1.425   2.097  -3.667  0.00  0.00    +0.270 C 
ATOM     31  C   UNL     1      -1.269   3.467  -2.995  0.00  0.00    +0.270 C 
ATOM     32  O   UNL     1      -0.471   3.300  -1.818  0.00  0.00    -0.485 OA
ENDBRANCH  22  28
BRANCH  22  33
ATOM     33  O   UNL     1       5.338   0.969  -1.787  0.00  0.00    -0.389 OA
ATOM     34  H   UNL     1       5.249   1.220  -0.858  0.00  0.00    +0.210 HD
ENDBRANCH  22  33
ENDBRANCH  21  22
ENDBRANCH  15  21
TORSDOF 6
