REMARK  Name = ZINC57702276
REMARK  3 active torsions:
REMARK  status: ('A' for Active; 'I' for Inactive)
REMARK    1  A    between atoms: C_5  and  S_7
REMARK    2  A    between atoms: S_7  and  N_10
REMARK    3  A    between atoms: C_13  and  C_16
REMARK                            x       y       z     vdW  Elec       q    Type
REMARK                         _______ _______ _______ _____ _____    ______ ____
ROOT
ATOM      1  N   UNL     1       1.252  -2.941   1.556  0.00  0.00    -0.103 NA
ATOM      2  C   UNL     1       1.270  -4.219   1.838  0.00  0.00    +0.192 A 
ATOM      3  N   UNL     1       1.284  -4.839   3.069  0.00  0.00    -0.332 N 
ATOM      4  C   UNL     1       1.303  -6.208   3.112  0.00  0.00    +0.055 A 
ATOM      5  C   UNL     1       1.308  -6.912   1.963  0.00  0.00    +0.075 A 
ATOM      6  S   UNL     1       1.276  -5.620   0.731  0.00  0.00    -0.056 S 
ATOM      7  H   UNL     1       1.281  -4.317   3.886  0.00  0.00    +0.168 HD
ENDROOT
BRANCH   4   8
ATOM      8  C   UNL     1       1.319  -6.911   4.413  0.00  0.00    +0.003 A 
ATOM      9  C   UNL     1       1.309  -6.180   5.603  0.00  0.00    +0.014 A 
ATOM     10  C   UNL     1       1.324  -6.837   6.816  0.00  0.00    +0.050 A 
ATOM     11  C   UNL     1       1.348  -8.223   6.859  0.00  0.00    +0.166 A 
ATOM     12  C   UNL     1       1.359  -8.958   5.674  0.00  0.00    +0.167 A 
ATOM     13  C   UNL     1       1.338  -8.305   4.455  0.00  0.00    +0.059 A 
ATOM     14  O   UNL     1       1.383 -10.287   5.986  0.00  0.00    -0.453 OA
ATOM     15  C   UNL     1       1.800 -10.352   7.363  0.00  0.00    +0.466 C 
ATOM     16  O   UNL     1       1.366  -9.093   7.911  0.00  0.00    -0.453 OA
ENDBRANCH   4   8
BRANCH   1  17
ATOM     17  S   UNL     1       1.230  -2.442  -0.024  0.00  0.00    +0.101 S 
ATOM     18  O   UNL     1      -0.015  -2.860  -0.565  0.00  0.00    -0.146 OA
ATOM     19  O   UNL     1       2.475  -2.829  -0.589  0.00  0.00    -0.146 OA
BRANCH  17  24
ATOM     20  C   UNL     1      -0.017   1.378   0.010  0.00  0.00    +0.005 A 
ATOM     21  C   UNL     1       1.171   2.086   0.002  0.00  0.00    +0.038 A 
ATOM     22  C   UNL     1       2.379   1.410  -0.013  0.00  0.00    +0.125 A 
ATOM     23  C   UNL     1       2.396   0.025  -0.021  0.00  0.00    +0.067 A 
ATOM     24  C   UNL     1       1.208  -0.680  -0.013  0.00  0.00    +0.115 A 
ATOM     25  C   UNL     1       0.002  -0.004   0.002  0.00  0.00    +0.029 A 
ATOM     26  F   UNL     1       3.540   2.101  -0.021  0.00  0.00    -0.205 F 
ENDBRANCH  17  24
ENDBRANCH   1  17
TORSDOF 3
