REMARK  Name = ZINC15925001
REMARK  13 active torsions:
REMARK  status: ('A' for Active; 'I' for Inactive)
REMARK    1  A    between atoms: C_1  and  C_2
REMARK    2  A    between atoms: C_2  and  C_3
REMARK    3  A    between atoms: C_3  and  C_4
REMARK    4  A    between atoms: C_4  and  N_5
REMARK    5  A    between atoms: C_6  and  N_39
REMARK    6  A    between atoms: C_7  and  N_14
REMARK    7  A    between atoms: N_14  and  C_15
REMARK    8  A    between atoms: C_15  and  C_16
REMARK    9  A    between atoms: C_16  and  C_17
REMARK   10  A    between atoms: C_17  and  C_18
REMARK   11  A    between atoms: C_17  and  C_19
REMARK   12  A    between atoms: C_20  and  C_22
REMARK   13  A    between atoms: N_27  and  C_29
REMARK                            x       y       z     vdW  Elec       q    Type
REMARK                         _______ _______ _______ _____ _____    ______ ____
ROOT
ATOM      1  N   UNL     1      -5.329  -3.707   2.410  0.00  0.00    -0.264 N 
ATOM      2  C   UNL     1      -4.772  -3.274   3.560  0.00  0.00    +0.225 C 
ATOM      3  O   UNL     1      -5.399  -3.330   4.597  0.00  0.00    -0.275 OA
ENDROOT
BRANCH   1   6
ATOM      4  N   UNL     1      -4.398  -2.462  -0.919  0.00  0.00    -0.280 N 
ATOM      5  C   UNL     1      -5.084  -2.607   0.264  0.00  0.00    +0.127 A 
ATOM      6  C   UNL     1      -4.647  -3.535   1.187  0.00  0.00    +0.140 A 
ATOM      7  C   UNL     1      -3.509  -4.306   0.887  0.00  0.00    +0.277 A 
ATOM      8  O   UNL     1      -3.101  -5.134   1.685  0.00  0.00    -0.266 OA
ATOM      9  N   UNL     1      -2.873  -4.125  -0.287  0.00  0.00    -0.273 N 
ATOM     10  H   UNL     1      -2.088  -4.656  -0.494  0.00  0.00    +0.173 HD
ATOM     11  C   UNL     1      -3.317  -3.219  -1.177  0.00  0.00    +0.331 A 
ATOM     12  O   UNL     1      -2.727  -3.080  -2.231  0.00  0.00    -0.246 OA
BRANCH   5  13
ATOM     13  N   UNL     1      -6.192  -1.836   0.524  0.00  0.00    -0.343 N 
ATOM     14  H   UNL     1      -6.457  -1.141  -0.099  0.00  0.00    +0.144 HD
ATOM     15  H   UNL     1      -6.710  -1.988   1.330  0.00  0.00    +0.144 HD
ENDBRANCH   5  13
BRANCH   4  16
ATOM     16  C   UNL     1      -4.851  -1.480  -1.908  0.00  0.00    +0.128 C 
BRANCH  16  17
ATOM     17  C   UNL     1      -5.854  -2.139  -2.858  0.00  0.00    +0.021 C 
BRANCH  17  19
ATOM     18  C   UNL     1      -7.330  -1.773  -4.841  0.00  0.00    +0.004 C 
ATOM     19  C   UNL     1      -6.327  -1.114  -3.891  0.00  0.00    -0.002 C 
ENDBRANCH  17  19
ENDBRANCH  16  17
ENDBRANCH   4  16
ENDBRANCH   1   6
BRANCH   2  20
ATOM     20  C   UNL     1      -3.370  -2.721   3.556  0.00  0.00    +0.102 C 
ATOM     21  C   UNL     1      -3.339  -1.294   2.960  0.00  0.00    +0.110 C 
ATOM     22  C   UNL     1      -3.466  -0.387   4.164  0.00  0.00    +0.221 C 
ATOM     23  O   UNL     1      -3.763   0.789   4.119  0.00  0.00    -0.275 OA
ATOM     24  N   UNL     1      -3.204  -1.072   5.290  0.00  0.00    -0.271 N 
ATOM     25  C   UNL     1      -2.870  -2.472   4.997  0.00  0.00    +0.127 C 
BRANCH  24  26
ATOM     26  C   UNL     1      -3.244  -0.522   6.578  0.00  0.00    +0.040 A 
ATOM     27  C   UNL     1      -2.869  -1.290   7.673  0.00  0.00    +0.027 A 
ATOM     28  C   UNL     1      -2.909  -0.748   8.943  0.00  0.00    +0.051 A 
ATOM     29  C   UNL     1      -3.322   0.563   9.129  0.00  0.00    +0.162 A 
ATOM     30  C   UNL     1      -3.696   1.334   8.034  0.00  0.00    +0.164 A 
ATOM     31  C   UNL     1      -3.652   0.791   6.759  0.00  0.00    +0.073 A 
ATOM     32  O   UNL     1      -4.096   2.625   8.196  0.00  0.00    -0.485 OA
ATOM     33  C   UNL     1      -4.479   3.020   9.518  0.00  0.00    +0.270 C 
ATOM     34  C   UNL     1      -3.417   2.504  10.499  0.00  0.00    +0.270 C 
ATOM     35  O   UNL     1      -3.359   1.078  10.389  0.00  0.00    -0.485 OA
ENDBRANCH  24  26
ENDBRANCH   2  20
BRANCH   1  36
ATOM     36  C   UNL     1      -6.643  -4.355   2.431  0.00  0.00    +0.114 C 
BRANCH  36  37
ATOM     37  C   UNL     1      -6.471  -5.844   2.740  0.00  0.00    +0.022 C 
BRANCH  37  38
ATOM     38  C   UNL     1      -7.826  -6.546   2.631  0.00  0.00    -0.016 C 
ATOM     39  C   UNL     1      -7.636  -8.053   2.817  0.00  0.00    +0.007 C 
ATOM     40  C   UNL     1      -8.766  -6.014   3.715  0.00  0.00    +0.007 C 
ENDBRANCH  37  38
ENDBRANCH  36  37
ENDBRANCH   1  36
TORSDOF 10
