REMARK  Name = ZINC12125133
REMARK  6 active torsions:
REMARK  status: ('A' for Active; 'I' for Inactive)
REMARK    1  A    between atoms: C_1  and  C_2
REMARK    2  A    between atoms: C_14  and  C_15
REMARK    3  A    between atoms: C_14  and  N_54
REMARK    4  A    between atoms: N_17  and  C_18
REMARK    5  A    between atoms: C_18  and  C_19
REMARK    6  A    between atoms: C_19  and  C_20
REMARK                            x       y       z     vdW  Elec       q    Type
REMARK                         _______ _______ _______ _____ _____    ______ ____
ROOT
ATOM      1  C   UNL     1      -4.758  -0.433  -1.195  0.00  0.00    +0.196 C 
ATOM      2  O   UNL     1      -4.601   0.197  -2.219  0.00  0.00    -0.278 OA
ATOM      3  N   UNL     1      -3.712  -0.660  -0.376  0.00  0.00    -0.317 N 
ATOM      4  H   UNL     1      -3.837  -1.165   0.443  0.00  0.00    +0.149 HD
ENDROOT
BRANCH   1   5
ATOM      5  C   UNL     1      -6.123  -0.962  -0.838  0.00  0.00    +0.019 C 
BRANCH   5  18
ATOM      6  C   UNL     1     -10.880  -0.362  -1.696  0.00  0.00    +0.050 C 
ATOM      7  C   UNL     1      -9.497  -0.160  -2.319  0.00  0.00    +0.154 C 
ATOM      8  C   UNL     1      -8.456  -0.825  -1.445  0.00  0.00    -0.033 C 
ATOM      9  C   UNL     1      -6.771  -1.251  -3.151  0.00  0.00    -0.038 C 
ATOM     10  C   UNL     1      -7.232  -0.368  -4.295  0.00  0.00    -0.021 A 
ATOM     11  C   UNL     1      -6.307   0.229  -5.125  0.00  0.00    +0.025 A 
ATOM     12  C   UNL     1      -6.740   1.019  -6.178  0.00  0.00    +0.041 A 
ATOM     13  C   UNL     1      -8.094   1.205  -6.393  0.00  0.00    +0.023 A 
ATOM     14  C   UNL     1      -9.020   0.611  -5.557  0.00  0.00    +0.047 A 
ATOM     15  C   UNL     1      -8.585  -0.173  -4.497  0.00  0.00    +0.122 A 
ATOM     16  O   UNL     1      -9.487  -0.722  -3.637  0.00  0.00    -0.491 OA
ATOM     17 CL   UNL     1      -5.583   1.777  -7.226  0.00  0.00    -0.084 Cl
ATOM     18  N   UNL     1      -7.072  -0.545  -1.883  0.00  0.00    +0.391 N 
ATOM     19  H   UNL     1      -6.973   0.466  -2.037  0.00  0.00    -0.081 HD
ENDBRANCH   5  18
ENDBRANCH   1   5
BRANCH   3  20
ATOM     20  C   UNL     1      -2.385  -0.146  -0.724  0.00  0.00    +0.108 C 
BRANCH  20  21
ATOM     21  C   UNL     1      -1.384  -0.541   0.365  0.00  0.00    +0.066 C 
BRANCH  21  22
ATOM     22  C   UNL     1       0.002  -0.004   0.002  0.00  0.00    +0.212 C 
ATOM     23  C   UNL     1       1.028  -0.476   1.041  0.00  0.00    +0.273 C 
ATOM     24  O   UNL     1       2.308   0.053   0.679  0.00  0.00    -0.485 OA
ATOM     25  C   UNL     1       2.351   1.370   0.338  0.00  0.00    +0.162 A 
ATOM     26  C   UNL     1       3.570   2.031   0.328  0.00  0.00    +0.049 A 
ATOM     27  C   UNL     1       3.630   3.368  -0.019  0.00  0.00    +0.004 A 
ATOM     28  C   UNL     1       2.475   4.049  -0.357  0.00  0.00    +0.004 A 
ATOM     29  C   UNL     1       1.257   3.397  -0.347  0.00  0.00    +0.049 A 
ATOM     30  C   UNL     1       1.190   2.056   0.002  0.00  0.00    +0.162 A 
ATOM     31  O   UNL     1      -0.017   1.427   0.010  0.00  0.00    -0.482 OA
ENDBRANCH  21  22
ENDBRANCH  20  21
ENDBRANCH   3  20
TORSDOF 5
