REMARK  Name = ZINC14710634
REMARK  4 active torsions:
REMARK  status: ('A' for Active; 'I' for Inactive)
REMARK    1  A    between atoms: C_8  and  C_10
REMARK    2  A    between atoms: C_13  and  C_15
REMARK    3  A    between atoms: C_15  and  N_16
REMARK    4  A    between atoms: C_17  and  C_19
REMARK                            x       y       z     vdW  Elec       q    Type
REMARK                         _______ _______ _______ _____ _____    ______ ____
ROOT
ATOM      1  C   UNL     1      -7.699   5.824   0.109  0.00  0.00    +0.178 C 
ENDROOT
BRANCH   1   5
ATOM      2  C   UNL     1      -5.018   3.342   0.070  0.00  0.00    +0.160 A 
ATOM      3  C   UNL     1      -6.096   2.507   0.071  0.00  0.00    +0.052 A 
ATOM      4  C   UNL     1      -7.241   3.324   0.091  0.00  0.00    +0.047 A 
ATOM      5  C   UNL     1      -6.814   4.604   0.094  0.00  0.00    +0.123 A 
ATOM      6  O   UNL     1      -5.473   4.611   0.081  0.00  0.00    -0.456 OA
BRANCH   2  14
ATOM      7  C   UNL     1       1.131   3.176   0.008  0.00  0.00    +0.002 A 
ATOM      8  C   UNL     1       1.172   1.789   0.001  0.00  0.00    +0.001 A 
ATOM      9  C   UNL     1      -0.013   1.076   0.008  0.00  0.00    +0.017 A 
ATOM     10  C   UNL     1      -1.208   1.752   0.017  0.00  0.00    +0.040 A 
ATOM     11  C   UNL     1      -1.283   3.165   0.032  0.00  0.00    +0.079 A 
ATOM     12  C   UNL     1      -0.047   3.856   0.024  0.00  0.00    +0.029 A 
ATOM     13  N   UNL     1      -2.526   3.684   0.047  0.00  0.00    -0.236 NA
ATOM     14  C   UNL     1      -3.607   2.930   0.054  0.00  0.00    +0.144 A 
ATOM     15  S   UNL     1      -2.920   1.280   0.038  0.00  0.00    -0.064 S 
ENDBRANCH   2  14
ENDBRANCH   1   5
BRANCH   1  16
ATOM     16  N   UNL     1      -7.972   6.212   1.495  0.00  0.00    -0.305 N 
ATOM     17  C   UNL     1      -8.747   7.284   1.755  0.00  0.00    +0.258 C 
ATOM     18  O   UNL     1      -9.219   7.927   0.841  0.00  0.00    -0.272 OA
ATOM     19  H   UNL     1      -7.594   5.698   2.226  0.00  0.00    +0.149 HD
BRANCH  17  20
ATOM     20  C   UNL     1      -9.027   7.683   3.181  0.00  0.00    +0.296 C 
ATOM     21  C   UNL     1      -9.870   6.598   3.866  0.00  0.00    +0.283 C 
ATOM     22  O   UNL     1     -10.129   7.014   5.211  0.00  0.00    -0.484 OA
ATOM     23  C   UNL     1     -10.538   8.301   5.385  0.00  0.00    +0.162 A 
ATOM     24  C   UNL     1     -11.142   8.668   6.578  0.00  0.00    +0.049 A 
ATOM     25  C   UNL     1     -11.559   9.971   6.771  0.00  0.00    +0.004 A 
ATOM     26  C   UNL     1     -11.376  10.912   5.775  0.00  0.00    +0.004 A 
ATOM     27  C   UNL     1     -10.776  10.553   4.583  0.00  0.00    +0.049 A 
ATOM     28  C   UNL     1     -10.356   9.247   4.383  0.00  0.00    +0.163 A 
ATOM     29  O   UNL     1      -9.770   8.907   3.202  0.00  0.00    -0.473 OA
ENDBRANCH  17  20
ENDBRANCH   1  16
TORSDOF 4
