REMARK  Name = ZINC65720323
REMARK  5 active torsions:
REMARK  status: ('A' for Active; 'I' for Inactive)
REMARK    1  A    between atoms: C_1  and  C_2
REMARK    2  A    between atoms: C_2  and  C_4
REMARK    3  A    between atoms: C_10  and  C_12
REMARK    4  A    between atoms: C_12  and  N_13
REMARK    5  A    between atoms: C_20  and  N_22
REMARK                            x       y       z     vdW  Elec       q    Type
REMARK                         _______ _______ _______ _____ _____    ______ ____
ROOT
ATOM      1  C   UNL     1      -0.047  -0.701  -7.304  0.00  0.00    +0.217 C 
ENDROOT
BRANCH   1   8
ATOM      2  C   UNL     1      -0.000  -0.729  -1.269  0.00  0.00    +0.115 A 
ATOM      3  C   UNL     1       0.013  -2.110  -1.295  0.00  0.00    +0.079 A 
ATOM      4  S   UNL     1       0.004  -2.443  -2.944  0.00  0.00    -0.060 S 
ATOM      5  C   UNL     1      -0.017  -0.766  -3.550  0.00  0.00    +0.165 A 
ATOM      6  N   UNL     1      -0.021  -0.069  -2.433  0.00  0.00    -0.222 NA
ATOM      7  N   UNL     1      -0.032  -0.311  -4.862  0.00  0.00    -0.263 N 
ATOM      8  C   UNL     1      -0.031  -1.194  -5.880  0.00  0.00    +0.238 C 
ATOM      9  O   UNL     1      -0.018  -2.385  -5.651  0.00  0.00    -0.273 OA
ATOM     10  H   UNL     1      -0.042   0.641  -5.045  0.00  0.00    +0.157 HD
BRANCH   2  12
ATOM     11  C   UNL     1      -0.018   1.503   0.010  0.00  0.00    +0.093 C 
ATOM     12  C   UNL     1       0.002  -0.004   0.002  0.00  0.00    +0.179 C 
ATOM     13  O   UNL     1       0.020  -0.617   1.050  0.00  0.00    -0.291 OA
ENDBRANCH   2  12
ENDBRANCH   1   8
BRANCH   1  14
ATOM     14  N   UNL     1      -0.044  -1.846  -8.217  0.00  0.00    -0.338 N 
ATOM     15  C   UNL     1       1.073  -2.393  -8.788  0.00  0.00    +0.087 A 
ATOM     16  C   UNL     1       0.728  -3.428  -9.570  0.00  0.00    +0.027 A 
ATOM     17  C   UNL     1      -0.730  -3.554  -9.495  0.00  0.00    +0.002 A 
ATOM     18  C   UNL     1      -1.163  -2.536  -8.625  0.00  0.00    +0.050 A 
ATOM     19  C   UNL     1      -2.521  -2.407  -8.351  0.00  0.00    +0.028 A 
ATOM     20  C   UNL     1      -3.421  -3.275  -8.928  0.00  0.00    +0.035 A 
ATOM     21  C   UNL     1      -2.988  -4.280  -9.783  0.00  0.00    +0.127 A 
ATOM     22  C   UNL     1      -1.660  -4.420 -10.072  0.00  0.00    +0.042 A 
BRANCH  21  23
ATOM     23  N   UNL     1      -3.974  -5.201 -10.391  0.00  0.00    +0.056 N 
ATOM     24  O   UNL     1      -5.150  -5.077 -10.144  0.00  0.00    -0.126 OA
ATOM     25  O   UNL     1      -3.602  -6.078 -11.136  0.00  0.00    -0.126 OA
ENDBRANCH  21  23
ENDBRANCH   1  14
TORSDOF 4
