REMARK  Name = ZINC13100771
REMARK  8 active torsions:
REMARK  status: ('A' for Active; 'I' for Inactive)
REMARK    1  A    between atoms: C_6  and  S_11
REMARK    2  A    between atoms: S_11  and  N_14
REMARK    3  A    between atoms: C_16  and  O_33
REMARK    4  A    between atoms: C_19  and  C_21
REMARK    5  A    between atoms: C_21  and  O_23
REMARK    6  A    between atoms: O_23  and  C_24
REMARK    7  A    between atoms: C_24  and  C_25
REMARK    8  A    between atoms: C_25  and  C_27
REMARK                            x       y       z     vdW  Elec       q    Type
REMARK                         _______ _______ _______ _____ _____    ______ ____
ROOT
ATOM      1  N   UNL     1      -0.138   1.031   4.800  0.00  0.00    -0.160 NA
ATOM      2  C   UNL     1       0.220   2.121   5.726  0.00  0.00    +0.141 C 
ATOM      3  C   UNL     1      -0.619   3.334   5.253  0.00  0.00    +0.132 C 
ATOM      4  C   UNL     1      -0.591   3.154   3.709  0.00  0.00    +0.064 C 
ATOM      5  C   UNL     1      -0.623   1.620   3.543  0.00  0.00    +0.191 C 
ENDROOT
BRANCH   1   6
ATOM      6  S   UNL     1      -0.012  -0.589   5.121  0.00  0.00    +0.062 S 
ATOM      7  O   UNL     1      -0.043  -1.255   3.867  0.00  0.00    -0.153 OA
ATOM      8  O   UNL     1       1.064  -0.738   6.037  0.00  0.00    -0.153 OA
BRANCH   6  14
ATOM      9  C   UNL     1      -5.022  -2.055   9.336  0.00  0.00    +0.001 A 
ATOM     10  C   UNL     1      -3.945  -1.533  10.050  0.00  0.00    +0.001 A 
ATOM     11  C   UNL     1      -2.801  -1.156   9.417  0.00  0.00    +0.008 A 
ATOM     12  C   UNL     1      -2.701  -1.294   8.022  0.00  0.00    -0.016 A 
ATOM     13  C   UNL     1      -1.534  -0.920   7.333  0.00  0.00    +0.037 A 
ATOM     14  C   UNL     1      -1.475  -1.064   5.981  0.00  0.00    +0.106 A 
ATOM     15  C   UNL     1      -2.551  -1.586   5.267  0.00  0.00    +0.029 A 
ATOM     16  C   UNL     1      -3.696  -1.963   5.901  0.00  0.00    +0.010 A 
ATOM     17  C   UNL     1      -3.796  -1.825   7.296  0.00  0.00    -0.018 A 
ATOM     18  C   UNL     1      -4.961  -2.204   7.985  0.00  0.00    +0.008 A 
ENDBRANCH   6  14
ENDBRANCH   1   6
BRANCH   5  19
ATOM     19  C   UNL     1       0.273   1.209   2.404  0.00  0.00    +0.327 C 
ATOM     20  O   UNL     1       1.430   0.930   2.616  0.00  0.00    -0.249 OA
BRANCH  19  21
ATOM     21  O   UNL     1      -0.212   1.152   1.154  0.00  0.00    -0.455 OA
BRANCH  21  22
ATOM     22  C   UNL     1       0.708   0.748   0.107  0.00  0.00    +0.313 C 
BRANCH  22  23
ATOM     23  C   UNL     1      -0.009   0.743  -1.218  0.00  0.00    +0.216 C 
ATOM     24  O   UNL     1      -1.183   1.050  -1.275  0.00  0.00    -0.287 OA
BRANCH  23  25
ATOM     25  C   UNL     1       0.683   0.381  -2.396  0.00  0.00    +0.086 A 
ATOM     26  C   UNL     1       0.156   0.331  -3.675  0.00  0.00    +0.030 A 
ATOM     27  C   UNL     1       1.187  -0.073  -4.525  0.00  0.00    +0.020 A 
ATOM     28  C   UNL     1       2.300  -0.259  -3.771  0.00  0.00    +0.083 A 
ATOM     29  N   UNL     1       2.010   0.017  -2.483  0.00  0.00    -0.358 N 
ATOM     30  H   UNL     1       2.633  -0.033  -1.741  0.00  0.00    +0.165 HD
ENDBRANCH  23  25
ENDBRANCH  22  23
ENDBRANCH  21  22
ENDBRANCH  19  21
ENDBRANCH   5  19
BRANCH   3  31
ATOM     31  O   UNL     1      -0.003   4.565   5.638  0.00  0.00    -0.390 OA
ATOM     32  H   UNL     1       0.088   4.677   6.594  0.00  0.00    +0.210 HD
ENDBRANCH   3  31
TORSDOF 8
