REMARK  Name = ZINC12174496
REMARK  9 active torsions:
REMARK  status: ('A' for Active; 'I' for Inactive)
REMARK    1  A    between atoms: C_1  and  C_2
REMARK    2  A    between atoms: C_2  and  C_3
REMARK    3  A    between atoms: C_2  and  C_4
REMARK    4  A    between atoms: C_4  and  C_5
REMARK    5  A    between atoms: C_5  and  C_7
REMARK    6  A    between atoms: C_5  and  N_23
REMARK    7  A    between atoms: N_9  and  C_10
REMARK    8  A    between atoms: C_13  and  N_16
REMARK    9  A    between atoms: C_24  and  C_26
REMARK                            x       y       z     vdW  Elec       q    Type
REMARK                         _______ _______ _______ _____ _____    ______ ____
ROOT
ATOM      1  C   UNL     1      -2.762   5.458  -0.894  0.00  0.00    +0.238 C 
ATOM      2  O   UNL     1      -1.763   5.908  -1.416  0.00  0.00    -0.273 OA
ATOM      3  N   UNL     1      -3.919   6.147  -0.950  0.00  0.00    -0.284 N 
ATOM      4  H   UNL     1      -4.699   5.824  -0.471  0.00  0.00    +0.155 HD
ENDROOT
BRANCH   3   5
ATOM      5  C   UNL     1      -3.997   7.328  -1.700  0.00  0.00    +0.034 A 
ATOM      6  C   UNL     1      -5.167   7.646  -2.376  0.00  0.00    +0.025 A 
ATOM      7  C   UNL     1      -5.245   8.812  -3.111  0.00  0.00    +0.026 A 
ATOM      8  C   UNL     1      -4.149   9.663  -3.182  0.00  0.00    +0.051 A 
ATOM      9  C   UNL     1      -2.976   9.342  -2.510  0.00  0.00    +0.026 A 
ATOM     10  C   UNL     1      -2.901   8.178  -1.771  0.00  0.00    +0.025 A 
BRANCH   8  11
ATOM     11  N   UNL     1      -4.226  10.842  -3.930  0.00  0.00    -0.207 N 
ATOM     12  C   UNL     1      -3.437  12.072  -3.733  0.00  0.00    +0.133 C 
ATOM     13  C   UNL     1      -3.247  12.817  -5.071  0.00  0.00    +0.045 C 
ATOM     14  C   UNL     1      -4.658  12.821  -5.732  0.00  0.00    +0.190 C 
ATOM     15  S   UNL     1      -5.239  11.150  -5.229  0.00  0.00    +0.046 S 
ATOM     16  O   UNL     1      -4.899  10.182  -6.213  0.00  0.00    -0.155 OA
ATOM     17  O   UNL     1      -6.549  11.215  -4.682  0.00  0.00    -0.155 OA
ENDBRANCH   8  11
ENDBRANCH   3   5
BRANCH   1  18
ATOM     18  C   UNL     1      -2.709   4.130  -0.185  0.00  0.00    +0.160 C 
BRANCH  18  19
ATOM     19  N   UNL     1      -1.539   3.377  -0.643  0.00  0.00    -0.300 N 
ATOM     20  C   UNL     1      -1.557   2.030  -0.632  0.00  0.00    +0.245 C 
ATOM     21  O   UNL     1      -2.506   1.439  -0.155  0.00  0.00    -0.270 OA
ATOM     22  H   UNL     1      -0.751   3.849  -0.956  0.00  0.00    +0.150 HD
BRANCH  20  23
ATOM     23  C   UNL     1      -0.423   1.271  -1.199  0.00  0.00    +0.037 A 
ATOM     24  C   UNL     1       0.666   1.946  -1.752  0.00  0.00    +0.014 A 
ATOM     25  C   UNL     1       1.719   1.233  -2.285  0.00  0.00    +0.021 A 
ATOM     26  C   UNL     1       1.697  -0.152  -2.272  0.00  0.00    +0.041 A 
ATOM     27  C   UNL     1       0.619  -0.828  -1.724  0.00  0.00    +0.021 A 
ATOM     28  C   UNL     1      -0.439  -0.125  -1.188  0.00  0.00    +0.014 A 
ATOM     29 CL   UNL     1       3.026  -1.044  -2.944  0.00  0.00    -0.084 Cl
ENDBRANCH  20  23
ENDBRANCH  18  19
BRANCH  18  30
ATOM     30  C   UNL     1      -2.607   4.362   1.324  0.00  0.00    +0.034 C 
BRANCH  30  32
ATOM     31  C   UNL     1      -5.064   4.082   1.676  0.00  0.00    +0.007 C 
ATOM     32  C   UNL     1      -3.883   5.043   1.823  0.00  0.00    -0.015 C 
ATOM     33  C   UNL     1      -3.715   5.423   3.296  0.00  0.00    +0.007 C 
ENDBRANCH  30  32
ENDBRANCH  18  30
ENDBRANCH   1  18
TORSDOF 7
