REMARK  Name = ZINC48816077
REMARK  5 active torsions:
REMARK  status: ('A' for Active; 'I' for Inactive)
REMARK    1  A    between atoms: C_1  and  C_2
REMARK    2  A    between atoms: C_9  and  C_12
REMARK    3  A    between atoms: N_10  and  C_11
REMARK    4  A    between atoms: C_12  and  C_13
REMARK    5  A    between atoms: C_17  and  O_19
REMARK                            x       y       z     vdW  Elec       q    Type
REMARK                         _______ _______ _______ _____ _____    ______ ____
ROOT
ATOM      1  C   UNL     1      -0.018   1.503   0.010  0.00  0.00    +0.044 C 
ATOM      2  C   UNL     1       0.002  -0.004   0.002  0.00  0.00    -0.048 A 
ATOM      3  C   UNL     1       0.006  -0.684  -1.208  0.00  0.00    +0.005 A 
ATOM      4  C   UNL     1       0.024  -2.062  -1.234  0.00  0.00    +0.028 A 
ATOM      5  C   UNL     1       0.040  -2.773  -0.042  0.00  0.00    +0.069 A 
ATOM      6  C   UNL     1       0.037  -2.084   1.183  0.00  0.00    +0.090 A 
ATOM      7  C   UNL     1       0.023  -0.686   1.185  0.00  0.00    +0.033 A 
ATOM      8  N   UNL     1       0.054  -3.022   2.165  0.00  0.00    -0.232 NA
ATOM      9  C   UNL     1       0.068  -4.210   1.634  0.00  0.00    +0.115 A 
ATOM     10  N   UNL     1       0.060  -4.116   0.277  0.00  0.00    -0.330 N 
ATOM     11  C   UNL     1       0.070  -5.233  -0.670  0.00  0.00    +0.150 C 
ENDROOT
BRANCH   9  12
ATOM     12  C   UNL     1       0.090  -5.501   2.410  0.00  0.00    +0.109 C 
BRANCH  12  13
ATOM     13  C   UNL     1      -1.323  -5.952   2.676  0.00  0.00    -0.037 A 
ATOM     14  C   UNL     1      -1.977  -5.537   3.822  0.00  0.00    +0.004 A 
ATOM     15  C   UNL     1      -3.273  -5.948   4.069  0.00  0.00    +0.004 A 
ATOM     16  C   UNL     1      -3.919  -6.776   3.171  0.00  0.00    +0.045 A 
ATOM     17  C   UNL     1      -3.266  -7.193   2.021  0.00  0.00    +0.117 A 
ATOM     18  C   UNL     1      -1.967  -6.774   1.772  0.00  0.00    +0.049 A 
BRANCH  17  19
ATOM     19  O   UNL     1      -3.900  -8.007   1.136  0.00  0.00    -0.507 OA
ATOM     20  H   UNL     1      -4.390  -7.536   0.449  0.00  0.00    +0.292 HD
ENDBRANCH  17  19
ENDBRANCH  12  13
ENDBRANCH   9  12
TORSDOF 3
