REMARK  Name = ZINC35664454
REMARK  16 active torsions:
REMARK  status: ('A' for Active; 'I' for Inactive)
REMARK    1  A    between atoms: C_1  and  C_2
REMARK    2  A    between atoms: C_2  and  N_3
REMARK    3  A    between atoms: N_9  and  C_14
REMARK    4  A    between atoms: C_11  and  C_13
REMARK    5  A    between atoms: C_14  and  C_15
REMARK    6  A    between atoms: C_16  and  C_35
REMARK    7  A    between atoms: C_17  and  C_25
REMARK    8  A    between atoms: N_22  and  C_23
REMARK    9  A    between atoms: C_23  and  C_24
REMARK   10  A    between atoms: C_28  and  O_33
REMARK   11  A    between atoms: C_29  and  O_31
REMARK   12  A    between atoms: O_31  and  C_32
REMARK   13  A    between atoms: O_33  and  C_34
REMARK   14  A    between atoms: C_35  and  O_37
REMARK   15  A    between atoms: O_37  and  C_38
REMARK   16  A    between atoms: C_38  and  C_39
REMARK                            x       y       z     vdW  Elec       q    Type
REMARK                         _______ _______ _______ _____ _____    ______ ____
ROOT
ATOM      1  C   UNL     1       4.728  -2.802  -6.170  0.00  0.00    +0.041 C 
ATOM      2  C   UNL     1       5.708  -1.874  -6.117  0.00  0.00    +0.080 C 
ATOM      3  C   UNL     1       6.003  -1.089  -7.379  0.00  0.00    +0.144 C 
ATOM      4  N   UNL     1       5.192  -1.405  -8.567  0.00  0.00    -0.288 N 
ATOM      5  C   UNL     1       4.247  -2.360  -8.463  0.00  0.00    +0.307 C 
ATOM      6  O   UNL     1       3.572  -2.628  -9.438  0.00  0.00    -0.252 OA
ATOM      7  N   UNL     1       4.032  -3.028  -7.322  0.00  0.00    -0.258 N 
ATOM      8  H   UNL     1       5.334  -0.936  -9.404  0.00  0.00    +0.151 HD
ENDROOT
BRANCH   3   9
ATOM      9  C   UNL     1       5.822   0.374  -7.069  0.00  0.00    -0.019 A 
ATOM     10  C   UNL     1       6.928   1.190  -6.920  0.00  0.00    +0.009 A 
ATOM     11  C   UNL     1       6.767   2.533  -6.635  0.00  0.00    +0.050 A 
ATOM     12  C   UNL     1       5.495   3.065  -6.499  0.00  0.00    +0.162 A 
ATOM     13  C   UNL     1       4.381   2.244  -6.650  0.00  0.00    +0.162 A 
ATOM     14  C   UNL     1       4.550   0.899  -6.940  0.00  0.00    +0.055 A 
BRANCH  13  15
ATOM     15  O   UNL     1       3.130   2.761  -6.518  0.00  0.00    -0.491 OA
ATOM     16  C   UNL     1       2.038   1.841  -6.579  0.00  0.00    +0.277 C 
ENDBRANCH  13  15
BRANCH  12  17
ATOM     17  O   UNL     1       5.334   4.386  -6.219  0.00  0.00    -0.491 OA
ATOM     18  C   UNL     1       6.522   5.168  -6.077  0.00  0.00    +0.277 C 
ENDBRANCH  12  17
ENDBRANCH   3   9
BRANCH   7  19
ATOM     19  C   UNL     1       2.986  -4.054  -7.309  0.00  0.00    +0.111 C 
ATOM     20  C   UNL     1       1.652  -3.417  -6.913  0.00  0.00    +0.025 C 
ENDBRANCH   7  19
BRANCH   2  21
ATOM     21  C   UNL     1       6.434  -1.643  -4.925  0.00  0.00    +0.339 C 
ATOM     22  O   UNL     1       6.103  -0.742  -4.177  0.00  0.00    -0.245 OA
BRANCH  21  23
ATOM     23  O   UNL     1       7.492  -2.421  -4.618  0.00  0.00    -0.462 OA
BRANCH  23  24
ATOM     24  C   UNL     1       8.110  -2.204  -3.348  0.00  0.00    +0.229 C 
ATOM     25  C   UNL     1       9.356  -3.084  -3.230  0.00  0.00    +0.048 C 
ENDBRANCH  23  24
ENDBRANCH  21  23
ENDBRANCH   2  21
BRANCH   1  26
ATOM     26  C   UNL     1       4.402  -3.605  -4.937  0.00  0.00    +0.136 C 
BRANCH  26  33
ATOM     27  N   UNL     1       0.259  -0.718  -1.323  0.00  0.00    -0.299 N 
ATOM     28  C   UNL     1       0.454  -2.029  -1.565  0.00  0.00    +0.303 C 
ATOM     29  O   UNL     1       0.094  -2.857  -0.750  0.00  0.00    -0.253 OA
ATOM     30  N   UNL     1       1.047  -2.424  -2.709  0.00  0.00    -0.280 N 
ATOM     31  C   UNL     1       1.607  -1.439  -3.647  0.00  0.00    +0.125 C 
ATOM     32  C   UNL     1       3.048  -1.843  -3.976  0.00  0.00    +0.104 C 
ATOM     33  N   UNL     1       3.067  -3.234  -4.449  0.00  0.00    -0.294 NA
ATOM     34  C   UNL     1       2.612  -4.160  -3.404  0.00  0.00    +0.107 C 
ATOM     35  C   UNL     1       1.158  -3.850  -3.049  0.00  0.00    +0.088 C 
ATOM     36  C   UNL     1       0.732  -4.699  -1.849  0.00  0.00    +0.029 C 
ATOM     37  H   UNL     1       0.610  -0.054  -1.939  0.00  0.00    +0.150 HD
BRANCH  27  39
ATOM     38  C   UNL     1      -0.558   1.234  -0.097  0.00  0.00    +0.024 C 
ATOM     39  C   UNL     1      -0.481  -0.294  -0.133  0.00  0.00    +0.102 C 
ENDBRANCH  27  39
ENDBRANCH  26  33
ENDBRANCH   1  26
TORSDOF 10
