REMARK  Name = ZINC09603821
REMARK  12 active torsions:
REMARK  status: ('A' for Active; 'I' for Inactive)
REMARK    1  A    between atoms: C_1  and  C_2
REMARK    2  A    between atoms: N_11  and  C_12
REMARK    3  A    between atoms: C_12  and  C_13
REMARK    4  A    between atoms: C_13  and  N_67
REMARK    5  A    between atoms: C_14  and  N_67
REMARK    6  A    between atoms: C_15  and  N_67
REMARK    7  A    between atoms: C_16  and  C_18
REMARK    8  A    between atoms: C_21  and  S_24
REMARK    9  A    between atoms: S_24  and  N_27
REMARK   10  A    between atoms: N_27  and  C_28
REMARK   11  A    between atoms: N_27  and  C_29
REMARK   12  A    between atoms: C_29  and  C_30
REMARK                            x       y       z     vdW  Elec       q    Type
REMARK                         _______ _______ _______ _____ _____    ______ ____
ROOT
ATOM      1  C   UNL     1      -0.892  -1.371   1.647  0.00  0.00    +0.044 C 
ATOM      2  C   UNL     1       0.276  -0.503   1.255  0.00  0.00    -0.049 A 
ATOM      3  C   UNL     1       0.089   0.847   0.996  0.00  0.00    +0.005 A 
ATOM      4  C   UNL     1       1.134   1.658   0.638  0.00  0.00    +0.029 A 
ATOM      5  C   UNL     1       2.445   1.140   0.521  0.00  0.00    +0.080 A 
ATOM      6  C   UNL     1       2.596  -0.239   0.792  0.00  0.00    +0.041 A 
ATOM      7  C   UNL     1       1.544  -1.044   1.149  0.00  0.00    +0.020 A 
ATOM      8  S   UNL     1       4.338  -0.485   0.540  0.00  0.00    -0.052 S 
ATOM      9  C   UNL     1       4.742   1.201   0.106  0.00  0.00    +0.168 A 
ATOM     10  N   UNL     1       3.574   1.797   0.182  0.00  0.00    -0.224 NA
ATOM     11  N   UNL     1       5.972   1.742  -0.226  0.00  0.00    -0.248 N 
ATOM     12  C   UNL     1       7.069   0.958  -0.248  0.00  0.00    +0.252 C 
ATOM     13  O   UNL     1       6.999  -0.195   0.130  0.00  0.00    -0.270 OA
ENDROOT
BRANCH  12  14
ATOM     14  C   UNL     1       8.355   1.500  -0.732  0.00  0.00    +0.037 A 
ATOM     15  C   UNL     1       8.810   2.739  -0.277  0.00  0.00    +0.015 A 
ATOM     16  C   UNL     1      10.014   3.237  -0.729  0.00  0.00    +0.029 A 
ATOM     17  C   UNL     1      10.766   2.517  -1.640  0.00  0.00    +0.106 A 
ATOM     18  C   UNL     1      10.318   1.291  -2.100  0.00  0.00    +0.029 A 
ATOM     19  C   UNL     1       9.119   0.779  -1.652  0.00  0.00    +0.015 A 
BRANCH  17  20
ATOM     20  S   UNL     1      12.299   3.164  -2.218  0.00  0.00    +0.061 S 
ATOM     21  O   UNL     1      12.757   4.072  -1.225  0.00  0.00    -0.153 OA
ATOM     22  O   UNL     1      13.073   2.052  -2.648  0.00  0.00    -0.153 OA
BRANCH  20  23
ATOM     23  N   UNL     1      11.973   4.065  -3.568  0.00  0.00    -0.177 NA
ATOM     24  C   UNL     1      11.668   5.492  -3.441  0.00  0.00    +0.131 C 
BRANCH  23  25
ATOM     25  C   UNL     1      11.989   3.435  -4.891  0.00  0.00    +0.140 C 
BRANCH  25  26
ATOM     26  C   UNL     1      10.569   3.015  -5.274  0.00  0.00    +0.134 C 
ATOM     27  C   UNL     1      10.579   2.237  -6.608  0.00  0.00    +0.035 C 
ATOM     28  C   UNL     1       9.289   2.698  -7.322  0.00  0.00    +0.031 C 
ATOM     29  C   UNL     1       8.652   3.701  -6.334  0.00  0.00    +0.160 C 
ATOM     30  O   UNL     1       9.753   4.179  -5.531  0.00  0.00    -0.375 OA
ENDBRANCH  25  26
ENDBRANCH  23  25
ENDBRANCH  20  23
ENDBRANCH  17  20
ENDBRANCH  12  14
BRANCH  11  31
ATOM     31  C   UNL     1       6.083   3.166  -0.552  0.00  0.00    +0.097 C 
BRANCH  31  32
ATOM     32  C   UNL     1       6.150   3.981   0.741  0.00  0.00    -0.060 C 
BRANCH  32  35
ATOM     33  C   UNL     1       5.254   5.973  -0.305  0.00  0.00    -0.097 C 
ATOM     34  C   UNL     1       6.700   6.166   1.628  0.00  0.00    -0.097 C 
ATOM     35  N   UNL     1       6.418   5.394   0.400  0.00  0.00    +0.377 N 
ATOM     36  H   UNL     1       7.237   5.439  -0.218  0.00  0.00    -0.083 HD
ENDBRANCH  32  35
ENDBRANCH  31  32
ENDBRANCH  11  31
TORSDOF 8
