REMARK  Name = ZINC13764911
REMARK  5 active torsions:
REMARK  status: ('A' for Active; 'I' for Inactive)
REMARK    1  A    between atoms: C_4  and  C_7
REMARK    2  A    between atoms: C_9  and  C_22
REMARK    3  A    between atoms: C_13  and  N_21
REMARK    4  A    between atoms: C_14  and  C_16
REMARK    5  A    between atoms: N_17  and  C_18
REMARK                            x       y       z     vdW  Elec       q    Type
REMARK                         _______ _______ _______ _____ _____    ______ ____
ROOT
ATOM      1  C   UNL     1       4.106  -0.056   0.772  0.00  0.00    -0.004 A 
ATOM      2  C   UNL     1       5.212   0.465   0.122  0.00  0.00    +0.037 A 
ATOM      3  C   UNL     1       6.389  -0.279   0.036  0.00  0.00    +0.073 A 
ATOM      4  N   UNL     1       6.457  -1.491   0.576  0.00  0.00    -0.239 NA
ATOM      5  C   UNL     1       5.433  -2.026   1.202  0.00  0.00    +0.112 A 
ATOM      6  C   UNL     1       4.196  -1.358   1.353  0.00  0.00    +0.037 A 
ATOM      7  C   UNL     1       3.179  -2.096   2.078  0.00  0.00    +0.052 A 
ATOM      8  C   UNL     1       3.496  -3.354   2.553  0.00  0.00    +0.076 A 
ATOM      9  S   UNL     1       5.181  -3.582   2.021  0.00  0.00    -0.064 S 
ENDROOT
BRANCH   1  13
ATOM     10  C   UNL     1       0.506   2.188   1.049  0.00  0.00    +0.000 A 
ATOM     11  C   UNL     1       1.046   1.902  -0.193  0.00  0.00    +0.001 A 
ATOM     12  C   UNL     1       2.214   1.174  -0.289  0.00  0.00    +0.008 A 
ATOM     13  C   UNL     1       2.851   0.727   0.868  0.00  0.00    -0.017 A 
ATOM     14  C   UNL     1       2.303   1.019   2.117  0.00  0.00    +0.008 A 
ATOM     15  C   UNL     1       1.134   1.748   2.200  0.00  0.00    +0.001 A 
ENDBRANCH   1  13
BRANCH   3  16
ATOM     16  C   UNL     1       7.569   0.284  -0.662  0.00  0.00    +0.000 A 
ATOM     17  C   UNL     1       7.506   1.558  -1.226  0.00  0.00    +0.010 A 
ATOM     18  C   UNL     1       8.608   2.077  -1.874  0.00  0.00    +0.001 A 
ATOM     19  C   UNL     1       9.774   1.337  -1.965  0.00  0.00    +0.000 A 
ATOM     20  C   UNL     1       9.842   0.073  -1.406  0.00  0.00    +0.001 A 
ATOM     21  C   UNL     1       8.748  -0.454  -0.751  0.00  0.00    +0.010 A 
ENDBRANCH   3  16
BRANCH   8  22
ATOM     22  C   UNL     1       2.676  -4.249   3.279  0.00  0.00    +0.144 C 
ATOM     23  N   UNL     1       1.429  -3.910   3.582  0.00  0.00    -0.157 NA
ATOM     24  N   UNL     1       3.172  -5.471   3.671  0.00  0.00    -0.342 N 
ATOM     25  H   UNL     1       4.083  -5.718   3.450  0.00  0.00    +0.144 HD
ATOM     26  H   UNL     1       2.610  -6.085   4.169  0.00  0.00    +0.144 HD
BRANCH  23  27
ATOM     27  C   UNL     1       0.644  -4.768   4.277  0.00  0.00    +0.207 C 
ATOM     28  N   UNL     1      -0.015  -5.488   4.860  0.00  0.00    -0.169 NA
ENDBRANCH  23  27
ENDBRANCH   8  22
BRANCH   7  29
ATOM     29  N   UNL     1       1.919  -1.552   2.289  0.00  0.00    -0.356 N 
ATOM     30  H   UNL     1       1.547  -0.927   1.647  0.00  0.00    +0.142 HD
ATOM     31  H   UNL     1       1.411  -1.797   3.078  0.00  0.00    +0.142 HD
ENDBRANCH   7  29
TORSDOF 5
