REMARK  Name = ZINC08939983
REMARK  5 active torsions:
REMARK  status: ('A' for Active; 'I' for Inactive)
REMARK    1  A    between atoms: C_1  and  C_2
REMARK    2  A    between atoms: C_2  and  C_3
REMARK    3  A    between atoms: C_7  and  C_14
REMARK    4  A    between atoms: C_14  and  N_15
REMARK    5  A    between atoms: C_23  and  C_25
REMARK                            x       y       z     vdW  Elec       q    Type
REMARK                         _______ _______ _______ _____ _____    ______ ____
ROOT
ATOM      1  C   UNL     1      -0.770  -0.351  -4.388  0.00  0.00    +0.154 C 
ENDROOT
BRANCH   1   2
ATOM      2  N   UNL     1      -0.982   0.345  -3.117  0.00  0.00    -0.220 N 
ATOM      3  C   UNL     1      -0.052   1.108  -2.506  0.00  0.00    +0.247 C 
ATOM      4  O   UNL     1       1.074   1.340  -2.889  0.00  0.00    -0.273 OA
ATOM      5  C   UNL     1      -0.711   1.613  -1.242  0.00  0.00    +0.115 C 
ATOM      6  C   UNL     1       0.049   1.122  -0.015  0.00  0.00    +0.035 C 
ATOM      7  C   UNL     1      -0.649   1.619   1.253  0.00  0.00    +0.003 C 
ATOM      8  C   UNL     1      -0.697   3.149   1.241  0.00  0.00    +0.000 C 
ATOM      9  C   UNL     1      -1.483   3.625   0.018  0.00  0.00    +0.006 C 
ATOM     10  C   UNL     1      -0.789   3.136  -1.256  0.00  0.00    +0.018 C 
ATOM     11  C   UNL     1      -1.586   3.594  -2.479  0.00  0.00    +0.010 C 
ATOM     12  N   UNL     1      -2.057   1.027  -1.284  0.00  0.00    -0.285 N 
ATOM     13  C   UNL     1      -2.122   0.302  -2.417  0.00  0.00    +0.310 C 
ATOM     14  O   UNL     1      -3.106  -0.322  -2.764  0.00  0.00    -0.252 OA
ATOM     15  H   UNL     1      -2.760   1.141  -0.625  0.00  0.00    +0.151 HD
ENDBRANCH   1   2
BRANCH   1  20
ATOM     16  C   UNL     1       1.160  -4.178  -7.297  0.00  0.00    -0.044 A 
ATOM     17  C   UNL     1       0.567  -2.955  -7.578  0.00  0.00    +0.004 A 
ATOM     18  C   UNL     1       0.147  -2.139  -6.566  0.00  0.00    +0.012 A 
ATOM     19  C   UNL     1       0.311  -2.542  -5.237  0.00  0.00    +0.022 A 
ATOM     20  C   UNL     1      -0.122  -1.687  -4.128  0.00  0.00    -0.012 A 
ATOM     21  C   UNL     1       0.070  -2.133  -2.861  0.00  0.00    +0.098 A 
ATOM     22  C   UNL     1       0.679  -3.388  -2.644  0.00  0.00    +0.338 A 
ATOM     23  O   UNL     1       0.846  -3.777  -1.502  0.00  0.00    -0.245 OA
ATOM     24  O   UNL     1       1.079  -4.163  -3.664  0.00  0.00    -0.422 OA
ATOM     25  C   UNL     1       0.916  -3.778  -4.948  0.00  0.00    +0.140 A 
ATOM     26  C   UNL     1       1.335  -4.592  -5.993  0.00  0.00    +0.050 A 
BRANCH  16  28
ATOM     27  C   UNL     1       0.475  -5.997  -8.837  0.00  0.00    +0.009 C 
ATOM     28  C   UNL     1       1.616  -5.064  -8.428  0.00  0.00    +0.032 C 
ENDBRANCH  16  28
ENDBRANCH   1  20
TORSDOF 3
