REMARK  Name = ZINC13349713
REMARK  5 active torsions:
REMARK  status: ('A' for Active; 'I' for Inactive)
REMARK    1  A    between atoms: C_3  and  N_20
REMARK    2  A    between atoms: C_6  and  N_7
REMARK    3  A    between atoms: N_7  and  S_8
REMARK    4  A    between atoms: S_8  and  C_11
REMARK    5  A    between atoms: C_15  and  C_17
REMARK                            x       y       z     vdW  Elec       q    Type
REMARK                         _______ _______ _______ _____ _____    ______ ____
ROOT
ATOM      1  N   UNL     1      -1.722   6.523  -1.524  0.00  0.00    -0.216 N 
ATOM      2  H   UNL     1      -1.557   7.422  -1.847  0.00  0.00    +0.174 HD
ENDROOT
BRANCH   1   8
ATOM      3  C   UNL     1      -1.241   4.975  -3.312  0.00  0.00    +0.026 A 
ATOM      4  C   UNL     1      -1.654   3.988  -4.183  0.00  0.00    +0.030 A 
ATOM      5  C   UNL     1      -2.974   3.556  -4.168  0.00  0.00    +0.069 A 
ATOM      6  C   UNL     1      -3.876   4.112  -3.271  0.00  0.00    +0.030 A 
ATOM      7  C   UNL     1      -3.462   5.095  -2.395  0.00  0.00    +0.026 A 
ATOM      8  C   UNL     1      -2.142   5.528  -2.411  0.00  0.00    +0.048 A 
BRANCH   5   9
ATOM      9  N   UNL     1      -3.395   2.556  -5.058  0.00  0.00    -0.200 N 
ATOM     10  C   UNL     1      -2.650   1.917  -5.986  0.00  0.00    +0.250 A 
ATOM     11  N   UNL     1      -3.434   1.065  -6.594  0.00  0.00    -0.116 NA
ATOM     12  N   UNL     1      -4.624   1.123  -6.114  0.00  0.00    -0.023 NA
ATOM     13  N   UNL     1      -4.682   2.001  -5.171  0.00  0.00    -0.039 NA
ENDBRANCH   5   9
ENDBRANCH   1   8
BRANCH   1  14
ATOM     14  S   UNL     1      -1.507   6.167   0.079  0.00  0.00    +0.072 S 
ATOM     15  O   UNL     1      -2.691   5.511   0.512  0.00  0.00    -0.150 OA
ATOM     16  O   UNL     1      -1.023   7.351   0.697  0.00  0.00    -0.150 OA
BRANCH  14  17
ATOM     17  C   UNL     1      -0.209   4.980   0.179  0.00  0.00    +0.109 A 
ATOM     18  C   UNL     1       1.110   5.399   0.197  0.00  0.00    +0.030 A 
ATOM     19  C   UNL     1       2.136   4.475   0.275  0.00  0.00    +0.018 A 
ATOM     20  C   UNL     1       1.849   3.125   0.337  0.00  0.00    +0.032 A 
ATOM     21  C   UNL     1       0.520   2.695   0.319  0.00  0.00    +0.079 A 
ATOM     22  C   UNL     1      -0.510   3.635   0.234  0.00  0.00    +0.045 A 
ATOM     23 BR   UNL     1       3.253   1.862   0.445  0.00  0.00    -0.049 Br
BRANCH  21  24
ATOM     24  C   UNL     1       0.206   1.254   0.384  0.00  0.00    +0.388 C 
ATOM     25  O   UNL     1       1.104   0.439   0.453  0.00  0.00    -0.241 OA
ATOM     26  O   UNL     1      -1.077   0.843   0.367  0.00  0.00    -0.241 OA
ENDBRANCH  21  24
ENDBRANCH  14  17
ENDBRANCH   1  14
TORSDOF 5
