REMARK  Name = ZINC13459929
REMARK  6 active torsions:
REMARK  status: ('A' for Active; 'I' for Inactive)
REMARK    1  A    between atoms: C_1  and  C_2
REMARK    2  A    between atoms: C_2  and  N_47
REMARK    3  A    between atoms: C_5  and  C_25
REMARK    4  A    between atoms: C_15  and  C_16
REMARK    5  A    between atoms: C_17  and  C_23
REMARK    6  A    between atoms: N_19  and  C_22
REMARK                            x       y       z     vdW  Elec       q    Type
REMARK                         _______ _______ _______ _____ _____    ______ ____
ROOT
ATOM      1  C   UNL     1       0.065   5.881   0.175  0.00  0.00    -0.040 C 
ATOM      2  C   UNL     1       0.338   4.403   0.173  0.00  0.00    -0.024 A 
ATOM      3  C   UNL     1       1.646   3.950   0.258  0.00  0.00    +0.076 A 
ATOM      4  C   UNL     1       1.862   2.502   0.260  0.00  0.00    +0.015 A 
ATOM      5  C   UNL     1       3.146   1.956   0.342  0.00  0.00    +0.011 A 
ATOM      6  C   UNL     1       3.303   0.601   0.344  0.00  0.00    +0.001 A 
ATOM      7  C   UNL     1       2.200  -0.246   0.265  0.00  0.00    +0.002 A 
ATOM      8  C   UNL     1       0.936   0.254   0.183  0.00  0.00    +0.028 A 
ATOM      9  C   UNL     1       0.735   1.646   0.177  0.00  0.00    +0.072 A 
ATOM     10  N   UNL     1      -0.491   2.164   0.091  0.00  0.00    -0.247 NA
ATOM     11  C   UNL     1      -0.711   3.467   0.089  0.00  0.00    +0.068 A 
ATOM     12  C   UNL     1      -2.100   3.968  -0.012  0.00  0.00    -0.038 C 
ATOM     13  C   UNL     1      -3.121   3.150  -0.322  0.00  0.00    +0.016 C 
ATOM     14  C   UNL     1      -2.320   5.445   0.248  0.00  0.00    -0.040 C 
ATOM     15  N   UNL     1      -1.236   6.173  -0.456  0.00  0.00    +0.385 N 
ATOM     16  H   UNL     1      -1.209   5.863  -1.434  0.00  0.00    -0.081 HD
ENDROOT
BRANCH  13  17
ATOM     17  C   UNL     1      -2.870   1.720  -0.569  0.00  0.00    +0.034 A 
ATOM     18  C   UNL     1      -3.562   0.634   0.013  0.00  0.00    +0.069 A 
ATOM     19  N   UNL     1      -3.050  -0.471  -0.455  0.00  0.00    -0.175 NA
ATOM     20  N   UNL     1      -2.020  -0.152  -1.347  0.00  0.00    -0.255 N 
ATOM     21  C   UNL     1      -1.918   1.189  -1.418  0.00  0.00    +0.134 A 
ATOM     22 CL   UNL     1      -0.794   2.084  -2.392  0.00  0.00    -0.062 Cl
ATOM     23  C   UNL     1      -1.197  -1.115  -2.084  0.00  0.00    +0.174 C 
ATOM     24  C   UNL     1      -4.695   0.735   1.002  0.00  0.00    +0.068 C 
ENDBRANCH  13  17
BRANCH   3  25
ATOM     25  C   UNL     1       2.780   4.895   0.344  0.00  0.00    +0.387 C 
ATOM     26  O   UNL     1       3.317   5.292  -0.670  0.00  0.00    -0.241 OA
ATOM     27  O   UNL     1       3.218   5.314   1.547  0.00  0.00    -0.241 OA
ENDBRANCH   3  25
BRANCH  15  29
ATOM     28  C   UNL     1      -1.693   8.103   1.021  0.00  0.00    -0.017 C 
ATOM     29  C   UNL     1      -1.500   7.626  -0.420  0.00  0.00    -0.081 C 
ENDBRANCH  15  29
TORSDOF 3
