REMARK  Name = ZINC25452773
REMARK  9 active torsions:
REMARK  status: ('A' for Active; 'I' for Inactive)
REMARK    1  A    between atoms: C_1  and  O_2
REMARK    2  A    between atoms: O_2  and  C_3
REMARK    3  A    between atoms: C_6  and  C_9
REMARK    4  A    between atoms: C_11  and  C_14
REMARK    5  A    between atoms: C_14  and  N_15
REMARK    6  A    between atoms: N_18  and  C_21
REMARK    7  A    between atoms: C_21  and  N_22
REMARK    8  A    between atoms: C_27  and  C_29
REMARK    9  A    between atoms: C_30  and  C_31
REMARK                            x       y       z     vdW  Elec       q    Type
REMARK                         _______ _______ _______ _____ _____    ______ ____
ROOT
ATOM      1  N   UNL     1       1.008  -2.059   3.553  0.00  0.00    -0.297 NA
ATOM      2  C   UNL     1      -0.249  -2.419   2.882  0.00  0.00    +0.066 C 
ATOM      3  C   UNL     1      -0.197  -1.954   1.425  0.00  0.00    -0.061 C 
ATOM      4  N   UNL     1       0.021  -0.501   1.384  0.00  0.00    +0.394 N 
ATOM      5  C   UNL     1       1.278  -0.141   2.056  0.00  0.00    -0.061 C 
ATOM      6  C   UNL     1       1.226  -0.606   3.513  0.00  0.00    +0.066 C 
ATOM      7  H   UNL     1      -0.805  -0.018   1.927  0.00  0.00    -0.079 HD
ENDROOT
BRANCH   1   8
ATOM      8  C   UNL     1       1.027  -2.556   4.936  0.00  0.00    +0.183 C 
BRANCH   8  11
ATOM      9  C   UNL     1       3.481  -0.724   6.817  0.00  0.00    +0.202 A 
ATOM     10  N   UNL     1       2.220  -0.846   6.343  0.00  0.00    -0.190 NA
ATOM     11  C   UNL     1       2.206  -1.966   5.665  0.00  0.00    +0.242 A 
ATOM     12  O   UNL     1       3.433  -2.491   5.746  0.00  0.00    -0.336 OA
ATOM     13  N   UNL     1       4.152  -1.768   6.403  0.00  0.00    -0.056 NA
BRANCH   9  17
ATOM     14  C   UNL     1       4.985   2.458   9.206  0.00  0.00    +0.120 A 
ATOM     15  C   UNL     1       5.820   1.410   8.842  0.00  0.00    +0.046 A 
ATOM     16  C   UNL     1       5.335   0.377   8.068  0.00  0.00    +0.015 A 
ATOM     17  C   UNL     1       4.005   0.385   7.651  0.00  0.00    +0.023 A 
ATOM     18  C   UNL     1       3.171   1.441   8.013  0.00  0.00    +0.015 A 
ATOM     19  C   UNL     1       3.659   2.469   8.791  0.00  0.00    +0.046 A 
BRANCH  14  21
ATOM     20  C   UNL     1       4.551   4.520  10.305  0.00  0.00    +0.277 C 
ATOM     21  O   UNL     1       5.465   3.475   9.968  0.00  0.00    -0.495 OA
ENDBRANCH  14  21
ENDBRANCH   9  17
ENDBRANCH   8  11
ENDBRANCH   1   8
BRANCH   4  22
ATOM     22  C   UNL     1       0.002  -0.004   0.002  0.00  0.00    +0.072 C 
BRANCH  22  23
ATOM     23  N   UNL     1      -0.018   1.461   0.010  0.00  0.00    -0.257 N 
ATOM     24  C   UNL     1      -1.117   2.243   0.019  0.00  0.00    +0.174 A 
ATOM     25  S   UNL     1      -2.741   1.701   0.022  0.00  0.00    -0.012 S 
ATOM     26  N   UNL     1      -0.707   3.526   0.028  0.00  0.00    -0.318 N 
ATOM     27  H   UNL     1      -1.448   4.340   0.043  0.00  0.00    +0.169 HD
ATOM     28  C   UNL     1       0.676   3.540   0.015  0.00  0.00    +0.153 A 
ATOM     29  N   UNL     1       1.102   2.304   0.004  0.00  0.00    -0.153 NA
BRANCH  28  30
ATOM     30  C   UNL     1       1.523   4.739   0.013  0.00  0.00    +0.048 C 
ATOM     31  C   UNL     1       2.863   4.617  -0.001  0.00  0.00    +0.011 C 
BRANCH  31  32
ATOM     32  C   UNL     1       3.712   5.820  -0.003  0.00  0.00    -0.025 A 
ATOM     33  C   UNL     1       3.130   7.091   0.003  0.00  0.00    +0.008 A 
ATOM     34  C   UNL     1       3.932   8.213   0.007  0.00  0.00    +0.001 A 
ATOM     35  C   UNL     1       5.310   8.083  -0.007  0.00  0.00    +0.000 A 
ATOM     36  C   UNL     1       5.893   6.828  -0.019  0.00  0.00    +0.001 A 
ATOM     37  C   UNL     1       5.105   5.697  -0.017  0.00  0.00    +0.008 A 
ENDBRANCH  31  32
ENDBRANCH  28  30
ENDBRANCH  22  23
ENDBRANCH   4  22
TORSDOF 8
