REMARK  Name = ZINC15229152
REMARK  9 active torsions:
REMARK  status: ('A' for Active; 'I' for Inactive)
REMARK    1  A    between atoms: C_1  and  C_2
REMARK    2  A    between atoms: C_2  and  C_3
REMARK    3  A    between atoms: C_3  and  C_5
REMARK    4  A    between atoms: C_3  and  N_20
REMARK    5  A    between atoms: N_7  and  N_8
REMARK    6  A    between atoms: C_9  and  C_10
REMARK    7  A    between atoms: C_14  and  C_17
REMARK    8  A    between atoms: C_17  and  C_18
REMARK    9  A    between atoms: N_20  and  C_21
REMARK                            x       y       z     vdW  Elec       q    Type
REMARK                         _______ _______ _______ _____ _____    ______ ____
ROOT
ATOM      1  C   UNL     1       1.226  -2.006  -1.437  0.00  0.00    +0.251 C 
ATOM      2  O   UNL     1       0.878  -2.691  -2.376  0.00  0.00    -0.272 OA
ATOM      3  N   UNL     1       1.717  -2.586  -0.324  0.00  0.00    -0.228 N 
ATOM      4  H   UNL     1       1.995  -2.038   0.426  0.00  0.00    +0.175 HD
ENDROOT
BRANCH   3   5
ATOM      5  N   UNL     1       1.827  -3.981  -0.252  0.00  0.00    -0.311 N 
ATOM      6  C   UNL     1       2.315  -4.559   0.855  0.00  0.00    +0.110 C 
ATOM      7  H   UNL     1       1.548  -4.529  -1.003  0.00  0.00    +0.184 HD
BRANCH   6   8
ATOM      8  C   UNL     1       2.347  -5.952   0.961  0.00  0.00    +0.039 A 
ATOM      9  C   UNL     1       2.960  -6.578   2.068  0.00  0.00    +0.013 A 
ATOM     10  C   UNL     1       2.980  -7.935   2.152  0.00  0.00    +0.001 A 
ATOM     11  C   UNL     1       2.407  -8.734   1.167  0.00  0.00    +0.008 A 
ATOM     12  C   UNL     1       1.801  -8.193   0.075  0.00  0.00    +0.004 A 
ATOM     13  C   UNL     1       1.738  -6.797  -0.074  0.00  0.00    +0.191 A 
ATOM     14  O   UNL     1       1.192  -6.296  -1.048  0.00  0.00    -0.287 OA
BRANCH  12  15
ATOM     15  C   UNL     1       1.192  -9.091  -0.971  0.00  0.00    +0.065 C 
BRANCH  15  16
ATOM     16  C   UNL     1       2.186  -9.316  -2.081  0.00  0.00    -0.030 C 
ATOM     17  C   UNL     1       2.518 -10.535  -2.426  0.00  0.00    +0.004 C 
ENDBRANCH  15  16
ENDBRANCH  12  15
ENDBRANCH   6   8
ENDBRANCH   3   5
BRANCH   1  18
ATOM     18  C   UNL     1       1.109  -0.505  -1.515  0.00  0.00    +0.158 C 
BRANCH  18  20
ATOM     19  C   UNL     1       0.165   1.523  -0.401  0.00  0.00    +0.006 C 
ATOM     20  C   UNL     1       0.186  -0.007  -0.400  0.00  0.00    +0.028 C 
ENDBRANCH  18  20
BRANCH  18  21
ATOM     21  N   UNL     1       0.551  -0.126  -2.816  0.00  0.00    -0.333 N 
ATOM     22  H   UNL     1      -0.001  -0.753  -3.308  0.00  0.00    +0.147 HD
BRANCH  21  23
ATOM     23  C   UNL     1       0.814   1.140  -3.346  0.00  0.00    +0.028 A 
ATOM     24  C   UNL     1       1.609   2.037  -2.644  0.00  0.00    +0.024 A 
ATOM     25  C   UNL     1       1.867   3.287  -3.171  0.00  0.00    +0.017 A 
ATOM     26  C   UNL     1       1.335   3.646  -4.397  0.00  0.00    +0.018 A 
ATOM     27  C   UNL     1       0.543   2.755  -5.098  0.00  0.00    +0.017 A 
ATOM     28  C   UNL     1       0.287   1.501  -4.579  0.00  0.00    +0.024 A 
ATOM     29 BR   UNL     1       1.691   5.359  -5.114  0.00  0.00    -0.050 Br
ENDBRANCH  21  23
ENDBRANCH  18  21
ENDBRANCH   1  18
TORSDOF 8
