REMARK  Name = ZINC36014124
REMARK  8 active torsions:
REMARK  status: ('A' for Active; 'I' for Inactive)
REMARK    1  A    between atoms: C_1  and  C_2
REMARK    2  A    between atoms: C_2  and  C_3
REMARK    3  A    between atoms: C_2  and  C_4
REMARK    4  A    between atoms: C_4  and  N_5
REMARK    5  A    between atoms: C_8  and  C_28
REMARK    6  A    between atoms: C_17  and  C_19
REMARK    7  A    between atoms: C_28  and  C_29
REMARK    8  A    between atoms: C_28  and  C_30
REMARK                            x       y       z     vdW  Elec       q    Type
REMARK                         _______ _______ _______ _____ _____    ______ ____
ROOT
ATOM      1  N   UNL     1      -2.379  -0.443  -1.887  0.00  0.00    -0.313 N 
ATOM      2  C   UNL     1      -3.133   0.568  -2.366  0.00  0.00    +0.201 C 
ATOM      3  O   UNL     1      -3.362   1.613  -1.795  0.00  0.00    -0.277 OA
ATOM      4  C   UNL     1      -3.645   0.179  -3.736  0.00  0.00    +0.022 C 
ATOM      5  N   UNL     1      -3.453  -1.290  -3.808  0.00  0.00    +0.401 N 
ATOM      6  C   UNL     1      -2.330  -1.526  -2.874  0.00  0.00    +0.006 C 
ATOM      7  C   UNL     1      -2.509  -2.877  -2.186  0.00  0.00    +0.025 C 
ATOM      8  C   UNL     1      -1.365  -3.095  -1.189  0.00  0.00    +0.108 C 
ATOM      9  N   UNL     1      -0.086  -2.932  -1.895  0.00  0.00    -0.298 N 
ATOM     10  C   UNL     1       0.151  -1.694  -2.650  0.00  0.00    +0.108 C 
ATOM     11  C   UNL     1      -1.005  -1.488  -3.634  0.00  0.00    +0.025 C 
ATOM     12  C   UNL     1       0.851  -3.899  -1.850  0.00  0.00    +0.247 C 
ATOM     13  O   UNL     1       0.606  -4.959  -1.308  0.00  0.00    -0.270 OA
ATOM     14  H   UNL     1      -4.284  -1.773  -3.501  0.00  0.00    -0.082 HD
ATOM     15  H   UNL     1      -3.201  -1.571  -4.744  0.00  0.00    -0.082 HD
ENDROOT
BRANCH  12  16
ATOM     16  C   UNL     1       2.176  -3.671  -2.460  0.00  0.00    +0.041 A 
ATOM     17  C   UNL     1       2.757  -2.401  -2.418  0.00  0.00    +0.017 A 
ATOM     18  C   UNL     1       3.994  -2.191  -2.987  0.00  0.00    +0.050 A 
ATOM     19  C   UNL     1       4.667  -3.238  -3.603  0.00  0.00    +0.166 A 
ATOM     20  C   UNL     1       4.092  -4.508  -3.648  0.00  0.00    +0.167 A 
ATOM     21  C   UNL     1       2.855  -4.726  -3.075  0.00  0.00    +0.062 A 
ATOM     22  O   UNL     1       4.946  -5.350  -4.301  0.00  0.00    -0.453 OA
ATOM     23  C   UNL     1       5.861  -4.494  -5.011  0.00  0.00    +0.466 C 
ATOM     24  O   UNL     1       5.879  -3.287  -4.226  0.00  0.00    -0.453 OA
ENDBRANCH  12  16
BRANCH   4  25
ATOM     25  C   UNL     1      -5.127   0.532  -3.871  0.00  0.00    -0.023 C 
ATOM     26  C   UNL     1      -5.308   2.044  -3.716  0.00  0.00    +0.006 C 
ATOM     27  C   UNL     1      -5.632   0.098  -5.249  0.00  0.00    +0.006 C 
ENDBRANCH   4  25
BRANCH   1  28
ATOM     28  C   UNL     1      -1.709  -0.455  -0.585  0.00  0.00    +0.109 C 
BRANCH  28  30
ATOM     29  C   UNL     1      -3.573  -1.944   0.157  0.00  0.00    +0.009 C 
ATOM     30  C   UNL     1      -2.738  -0.713   0.517  0.00  0.00    +0.000 C 
ATOM     31  C   UNL     1      -2.016  -0.956   1.843  0.00  0.00    +0.009 C 
ENDBRANCH  28  30
ENDBRANCH   1  28
TORSDOF 4
