REMARK  Name = ZINC47145137
REMARK  8 active torsions:
REMARK  status: ('A' for Active; 'I' for Inactive)
REMARK    1  A    between atoms: C_1  and  C_2
REMARK    2  A    between atoms: C_2  and  N_3
REMARK    3  A    between atoms: N_3  and  C_4
REMARK    4  A    between atoms: N_3  and  C_6
REMARK    5  A    between atoms: C_4  and  C_5
REMARK    6  A    between atoms: C_9  and  C_12
REMARK    7  A    between atoms: N_28  and  C_31
REMARK    8  A    between atoms: C_31  and  C_32
REMARK                            x       y       z     vdW  Elec       q    Type
REMARK                         _______ _______ _______ _____ _____    ______ ____
ROOT
ATOM      1  C   UNL     1       6.311  -1.357   0.990  0.00  0.00    +0.072 C 
ATOM      2  C   UNL     1       6.609  -2.799   1.294  0.00  0.00    +0.033 A 
ATOM      3  C   UNL     1       7.606  -3.333   2.034  0.00  0.00    +0.088 A 
ATOM      4  N   UNL     1       7.587  -4.702   2.132  0.00  0.00    -0.311 N 
ATOM      5  H   UNL     1       8.263  -5.160   2.656  0.00  0.00    +0.170 HD
ATOM      6  C   UNL     1       6.630  -5.408   1.502  0.00  0.00    +0.289 A 
ATOM      7  O   UNL     1       6.472  -6.616   1.482  0.00  0.00    -0.260 OA
ATOM      8  S   UNL     1       5.705  -4.223   0.748  0.00  0.00    -0.030 S 
ATOM      9  S   UNL     1       8.845  -2.295   2.797  0.00  0.00    -0.093 S 
ATOM     10  C   UNL     1       8.532  -0.735   1.931  0.00  0.00    +0.152 C 
ATOM     11  C   UNL     1       6.995  -0.496   2.022  0.00  0.00    +0.110 C 
ATOM     12  C   UNL     1       6.938   0.993   1.885  0.00  0.00    +0.228 C 
ATOM     13  O   UNL     1       6.038   1.646   1.400  0.00  0.00    -0.275 OA
ATOM     14  N   UNL     1       8.097   1.465   2.413  0.00  0.00    -0.230 N 
ATOM     15  C   UNL     1       9.046   0.490   2.636  0.00  0.00    +0.236 C 
ATOM     16  O   UNL     1      10.076   0.587   3.268  0.00  0.00    -0.274 OA
ENDROOT
BRANCH   1  20
ATOM     17  C   UNL     1       2.090  -0.703   1.140  0.00  0.00    +0.030 A 
ATOM     18  C   UNL     1       2.792  -0.451  -0.032  0.00  0.00    +0.023 A 
ATOM     19  C   UNL     1       4.156  -0.663  -0.076  0.00  0.00    +0.006 A 
ATOM     20  C   UNL     1       4.823  -1.126   1.043  0.00  0.00    -0.038 A 
ATOM     21  C   UNL     1       4.127  -1.379   2.211  0.00  0.00    +0.006 A 
ATOM     22  C   UNL     1       2.763  -1.163   2.264  0.00  0.00    +0.023 A 
BRANCH  17  23
ATOM     23  N   UNL     1       0.711  -0.489   1.189  0.00  0.00    -0.330 N 
BRANCH  23  25
ATOM     24  C   UNL     1      -0.019   1.526   0.010  0.00  0.00    +0.024 C 
ATOM     25  C   UNL     1       0.002  -0.004   0.002  0.00  0.00    +0.102 C 
ENDBRANCH  23  25
BRANCH  23  26
ATOM     26  C   UNL     1      -0.028  -0.750   2.427  0.00  0.00    +0.102 C 
ATOM     27  C   UNL     1      -0.511  -2.202   2.437  0.00  0.00    +0.024 C 
ENDBRANCH  23  26
ENDBRANCH  17  23
ENDBRANCH   1  20
BRANCH  14  28
ATOM     28  C   UNL     1       8.326   2.882   2.707  0.00  0.00    +0.241 C 
BRANCH  28  29
ATOM     29  C   UNL     1       7.886   3.179   4.117  0.00  0.00    +0.373 C 
ATOM     30  O   UNL     1       7.423   2.290   4.812  0.00  0.00    -0.245 OA
ATOM     31  O   UNL     1       7.992   4.309   4.564  0.00  0.00    -0.245 OA
ENDBRANCH  28  29
ENDBRANCH  14  28
TORSDOF 6
