REMARK  Name = ZINC08513954
REMARK  8 active torsions:
REMARK  status: ('A' for Active; 'I' for Inactive)
REMARK    1  A    between atoms: C_3  and  O_24
REMARK    2  A    between atoms: C_6  and  N_7
REMARK    3  A    between atoms: C_8  and  C_10
REMARK    4  A    between atoms: C_10  and  S_11
REMARK    5  A    between atoms: S_11  and  C_12
REMARK    6  A    between atoms: N_16  and  C_17
REMARK    7  A    between atoms: C_20  and  O_23
REMARK    8  A    between atoms: O_24  and  C_25
REMARK                            x       y       z     vdW  Elec       q    Type
REMARK                         _______ _______ _______ _____ _____    ______ ____
ROOT
ATOM      1  C   UNL     1       0.034   4.228   0.017  0.00  0.00    +0.173 C 
ENDROOT
BRANCH   1   3
ATOM      2  N   UNL     1      -0.909   6.515   0.044  0.00  0.00    -0.285 N 
ATOM      3  C   UNL     1       0.185   5.728   0.031  0.00  0.00    +0.227 C 
ATOM      4  O   UNL     1       1.290   6.226   0.032  0.00  0.00    -0.275 OA
ATOM      5  H   UNL     1      -1.792   6.119  -0.024  0.00  0.00    +0.155 HD
BRANCH   2  11
ATOM      6  C   UNL     1      -1.714   8.642   0.860  0.00  0.00    +0.027 A 
ATOM      7  C   UNL     1      -1.575  10.011   0.973  0.00  0.00    +0.047 A 
ATOM      8  C   UNL     1      -0.500  10.651   0.374  0.00  0.00    +0.127 A 
ATOM      9  C   UNL     1       0.440   9.916  -0.334  0.00  0.00    +0.047 A 
ATOM     10  C   UNL     1       0.304   8.546  -0.444  0.00  0.00    +0.027 A 
ATOM     11  C   UNL     1      -0.771   7.904   0.155  0.00  0.00    +0.034 A 
BRANCH   8  12
ATOM     12  O   UNL     1      -0.366  12.000   0.481  0.00  0.00    -0.434 OA
BRANCH  12  13
ATOM     13  C   UNL     1      -1.370  12.694   1.224  0.00  0.00    +0.541 C 
ATOM     14  F   UNL     1      -2.619  12.486   0.629  0.00  0.00    -0.166 F 
ATOM     15  F   UNL     1      -1.393  12.213   2.538  0.00  0.00    -0.166 F 
ENDBRANCH  12  13
ENDBRANCH   8  12
ENDBRANCH   2  11
ENDBRANCH   1   3
BRANCH   1  16
ATOM     16  S   UNL     1       1.672   3.458   0.002  0.00  0.00    -0.075 S 
BRANCH  16  17
ATOM     17  C   UNL     1       1.210   1.758  -0.013  0.00  0.00    +0.214 A 
ATOM     18  N   UNL     1      -0.016   1.280  -0.013  0.00  0.00    -0.101 NA
ATOM     19  N   UNL     1       0.001  -0.004  -0.027  0.00  0.00    -0.022 NA
ATOM     20  N   UNL     1       1.215  -0.437  -0.037  0.00  0.00    -0.038 NA
ATOM     21  N   UNL     1       2.051   0.693  -0.028  0.00  0.00    -0.187 N 
BRANCH  21  22
ATOM     22  C   UNL     1       3.454   0.716  -0.034  0.00  0.00    +0.070 A 
ATOM     23  C   UNL     1       4.130   1.715  -0.721  0.00  0.00    +0.031 A 
ATOM     24  C   UNL     1       5.510   1.740  -0.721  0.00  0.00    +0.047 A 
ATOM     25  C   UNL     1       6.222   0.760  -0.044  0.00  0.00    +0.117 A 
ATOM     26  C   UNL     1       5.548  -0.242   0.637  0.00  0.00    +0.047 A 
ATOM     27  C   UNL     1       4.167  -0.265   0.643  0.00  0.00    +0.031 A 
BRANCH  25  28
ATOM     28  O   UNL     1       7.582   0.783  -0.049  0.00  0.00    -0.507 OA
ATOM     29  H   UNL     1       7.980   0.290  -0.779  0.00  0.00    +0.292 HD
ENDBRANCH  25  28
ENDBRANCH  21  22
ENDBRANCH  16  17
ENDBRANCH   1  16
TORSDOF 8
