REMARK  Name = ZINC15841591
REMARK  4 active torsions:
REMARK  status: ('A' for Active; 'I' for Inactive)
REMARK    1  A    between atoms: C_1  and  C_2
REMARK    2  A    between atoms: C_2  and  C_3
REMARK    3  A    between atoms: C_3  and  C_26
REMARK    4  A    between atoms: N_15  and  C_20
REMARK                            x       y       z     vdW  Elec       q    Type
REMARK                         _______ _______ _______ _____ _____    ______ ____
ROOT
ATOM      1  C   UNL     1      -0.061   5.443   0.006  0.00  0.00    +0.004 C 
ATOM      2  C   UNL     1       1.098   6.135   0.719  0.00  0.00    +0.047 C 
ATOM      3  C   UNL     1       2.408   5.516   0.310  0.00  0.00    -0.037 A 
ATOM      4  C   UNL     1       3.542   6.290   0.192  0.00  0.00    +0.004 A 
ATOM      5  C   UNL     1       4.742   5.708  -0.178  0.00  0.00    +0.000 A 
ATOM      6  C   UNL     1       4.814   4.350  -0.432  0.00  0.00    +0.001 A 
ATOM      7  C   UNL     1       3.686   3.563  -0.319  0.00  0.00    +0.010 A 
ATOM      8  C   UNL     1       2.474   4.144   0.051  0.00  0.00    +0.002 A 
ATOM      9  C   UNL     1       1.249   3.332   0.177  0.00  0.00    +0.060 A 
ATOM     10  C   UNL     1       0.033   3.951   0.164  0.00  0.00    +0.047 A 
ATOM     11  C   UNL     1      -1.132   3.169   0.299  0.00  0.00    +0.261 A 
ATOM     12  O   UNL     1      -2.230   3.697   0.297  0.00  0.00    -0.267 OA
ATOM     13  N   UNL     1      -1.020   1.831   0.425  0.00  0.00    -0.258 N 
ATOM     14  C   UNL     1       0.189   1.241   0.434  0.00  0.00    +0.330 A 
ATOM     15  O   UNL     1       0.263   0.033   0.550  0.00  0.00    -0.246 OA
ATOM     16  N   UNL     1       1.317   1.965   0.312  0.00  0.00    -0.307 N 
ATOM     17  H   UNL     1       2.180   1.522   0.320  0.00  0.00    +0.170 HD
ATOM     18  C   UNL     1      -1.383   5.929   0.603  0.00  0.00    +0.016 C 
ENDROOT
BRANCH  13  19
ATOM     19  C   UNL     1      -2.228   1.013   0.560  0.00  0.00    +0.095 C 
ATOM     20  C   UNL     1      -2.188   0.261   1.891  0.00  0.00    +0.025 C 
ATOM     21  C   UNL     1      -3.450  -0.594   2.032  0.00  0.00    +0.002 C 
ATOM     22  C   UNL     1      -3.515  -1.599   0.880  0.00  0.00    +0.000 C 
ATOM     23  C   UNL     1      -3.554  -0.847  -0.452  0.00  0.00    +0.002 C 
ATOM     24  C   UNL     1      -2.293   0.008  -0.592  0.00  0.00    +0.025 C 
ENDBRANCH  13  19
BRANCH   1  26
ATOM     25  C   UNL     1      -0.146   7.311  -1.651  0.00  0.00    +0.005 C 
ATOM     26  C   UNL     1      -0.020   5.796  -1.482  0.00  0.00    +0.008 C 
ENDBRANCH   1  26
TORSDOF 2
