REMARK  Name = ZINC32534865
REMARK  9 active torsions:
REMARK  status: ('A' for Active; 'I' for Inactive)
REMARK    1  A    between atoms: C_1  and  C_2
REMARK    2  A    between atoms: C_2  and  C_3
REMARK    3  A    between atoms: C_6  and  C_10
REMARK    4  A    between atoms: C_7  and  C_9
REMARK    5  A    between atoms: C_10  and  N_11
REMARK    6  A    between atoms: C_24  and  C_26
REMARK    7  A    between atoms: C_26  and  C_27
REMARK    8  A    between atoms: C_26  and  C_28
REMARK    9  A    between atoms: C_26  and  C_29
REMARK                            x       y       z     vdW  Elec       q    Type
REMARK                         _______ _______ _______ _____ _____    ______ ____
ROOT
ATOM      1  N   UNL     1       0.848  -2.001  -5.575  0.00  0.00    -0.288 NA
ATOM      2  C   UNL     1      -0.583  -1.996  -5.912  0.00  0.00    +0.090 C 
ATOM      3  C   UNL     1      -1.032  -3.425  -6.250  0.00  0.00    +0.053 C 
ATOM      4  C   UNL     1      -0.048  -4.001  -7.237  0.00  0.00    -0.016 A 
ATOM      5  C   UNL     1      -0.177  -5.163  -8.088  0.00  0.00    +0.003 A 
ATOM      6  C   UNL     1      -1.203  -6.095  -8.274  0.00  0.00    +0.010 A 
ATOM      7  C   UNL     1      -0.976  -7.094  -9.189  0.00  0.00    +0.001 A 
ATOM      8  C   UNL     1       0.209  -7.185  -9.900  0.00  0.00    +0.002 A 
ATOM      9  C   UNL     1       1.240  -6.277  -9.736  0.00  0.00    +0.026 A 
ATOM     10  C   UNL     1       1.039  -5.252  -8.814  0.00  0.00    +0.047 A 
ATOM     11  N   UNL     1       1.828  -4.211  -8.416  0.00  0.00    -0.356 N 
ATOM     12  H   UNL     1       2.720  -4.026  -8.751  0.00  0.00    +0.166 HD
ATOM     13  C   UNL     1       1.172  -3.467  -7.472  0.00  0.00    +0.038 A 
ATOM     14  C   UNL     1       1.681  -2.233  -6.766  0.00  0.00    +0.109 C 
ENDROOT
BRANCH  14  15
ATOM     15  C   UNL     1       3.135  -2.446  -6.342  0.00  0.00    -0.017 C 
ATOM     16  C   UNL     1       3.195  -3.500  -5.235  0.00  0.00    +0.012 C 
ATOM     17  C   UNL     1       3.953  -2.922  -7.545  0.00  0.00    +0.012 C 
ATOM     18  C   UNL     1       3.713  -1.128  -5.822  0.00  0.00    +0.012 C 
ENDBRANCH  14  15
BRANCH   1  19
ATOM     19  C   UNL     1       1.233  -0.755  -4.898  0.00  0.00    +0.140 C 
BRANCH  19  23
ATOM     20  C   UNL     1      -1.626   0.814  -3.247  0.00  0.00    +0.084 A 
ATOM     21  N   UNL     1      -0.772   0.733  -4.290  0.00  0.00    -0.346 N 
ATOM     22  H   UNL     1      -0.776   1.294  -5.082  0.00  0.00    +0.167 HD
ATOM     23  C   UNL     1       0.099  -0.288  -4.022  0.00  0.00    +0.051 A 
ATOM     24  C   UNL     1      -0.253  -0.795  -2.825  0.00  0.00    +0.035 A 
ATOM     25  N   UNL     1      -1.306  -0.099  -2.372  0.00  0.00    -0.347 N 
ATOM     26  C   UNL     1       0.423  -1.941  -2.116  0.00  0.00    +0.065 C 
ATOM     27  H   UNL     1      -1.759  -0.253  -1.529  0.00  0.00    +0.167 HD
BRANCH  20  29
ATOM     28  C   UNL     1      -2.251   3.067  -2.419  0.00  0.00    +0.012 C 
ATOM     29  C   UNL     1      -2.758   1.800  -3.113  0.00  0.00    +0.069 C 
ENDBRANCH  20  29
ENDBRANCH  19  23
ENDBRANCH   1  19
TORSDOF 4
