REMARK  Name = ZINC64981566
REMARK  4 active torsions:
REMARK  status: ('A' for Active; 'I' for Inactive)
REMARK    1  A    between atoms: C_1  and  C_2
REMARK    2  A    between atoms: C_2  and  N_3
REMARK    3  A    between atoms: N_16  and  N_17
REMARK    4  A    between atoms: C_18  and  C_19
REMARK                            x       y       z     vdW  Elec       q    Type
REMARK                         _______ _______ _______ _____ _____    ______ ____
ROOT
ATOM      1  N   UNL     1       0.688  -0.476  -1.203  0.00  0.00    -0.324 N 
ATOM      2  C   UNL     1       0.068  -0.737  -2.415  0.00  0.00    +0.053 A 
ATOM      3  C   UNL     1      -1.257  -0.643  -2.828  0.00  0.00    +0.026 A 
ATOM      4  C   UNL     1      -1.602  -0.972  -4.121  0.00  0.00    +0.002 A 
ATOM      5  C   UNL     1      -0.638  -1.399  -5.021  0.00  0.00    +0.001 A 
ATOM      6  C   UNL     1       0.680  -1.499  -4.631  0.00  0.00    +0.012 A 
ATOM      7  C   UNL     1       1.043  -1.169  -3.328  0.00  0.00    +0.029 A 
ATOM      8  C   UNL     1       2.324  -1.162  -2.601  0.00  0.00    +0.138 A 
ATOM      9  C   UNL     1       2.036  -0.719  -1.294  0.00  0.00    +0.166 A 
ATOM     10  N   UNL     1       3.039  -0.617  -0.427  0.00  0.00    -0.192 NA
ATOM     11  C   UNL     1       4.268  -0.931  -0.817  0.00  0.00    +0.256 A 
ATOM     12  N   UNL     1       4.515  -1.343  -2.056  0.00  0.00    -0.111 NA
ATOM     13  N   UNL     1       3.573  -1.463  -2.927  0.00  0.00    -0.142 NA
ATOM     14  N   UNL     1       5.313  -0.825   0.084  0.00  0.00    -0.204 N 
ATOM     15  H   UNL     1       5.144  -0.525   0.991  0.00  0.00    +0.177 HD
ENDROOT
BRANCH   1  17
ATOM     16  C   UNL     1      -0.019   1.526   0.010  0.00  0.00    +0.027 C 
ATOM     17  C   UNL     1       0.002  -0.004   0.002  0.00  0.00    +0.120 C 
ENDBRANCH   1  17
BRANCH  14  18
ATOM     18  N   UNL     1       6.616  -1.153  -0.313  0.00  0.00    -0.184 NA
ATOM     19  C   UNL     1       7.598  -1.054   0.534  0.00  0.00    +0.176 C 
BRANCH  19  20
ATOM     20  C   UNL     1       8.962  -1.396   0.118  0.00  0.00    +0.147 A 
ATOM     21  C   UNL     1      10.077  -1.343   0.903  0.00  0.00    +0.051 A 
ATOM     22  C   UNL     1      11.158  -1.754   0.101  0.00  0.00    +0.042 A 
ATOM     23  C   UNL     1      10.660  -2.036  -1.121  0.00  0.00    +0.196 A 
ATOM     24  O   UNL     1       9.333  -1.824  -1.105  0.00  0.00    -0.462 OA
ENDBRANCH  19  20
ENDBRANCH  14  18
TORSDOF 3
