REMARK  Name = ZINC46708622
REMARK  4 active torsions:
REMARK  status: ('A' for Active; 'I' for Inactive)
REMARK    1  A    between atoms: C_4  and  S_7
REMARK    2  A    between atoms: S_7  and  N_10
REMARK    3  A    between atoms: C_11  and  C_13
REMARK    4  A    between atoms: C_13  and  C_18
REMARK                            x       y       z     vdW  Elec       q    Type
REMARK                         _______ _______ _______ _____ _____    ______ ____
ROOT
ATOM      1  N   UNL     1       4.324  -1.174   1.540  0.00  0.00    -0.090 NA
ATOM      2  C   UNL     1       5.447  -1.750   1.809  0.00  0.00    +0.275 C 
ATOM      3  O   UNL     1       6.230  -2.202   0.807  0.00  0.00    -0.269 OA
ENDROOT
BRANCH   2   4
ATOM      4  C   UNL     1       5.883  -1.919   3.241  0.00  0.00    +0.077 C 
ATOM      5  C   UNL     1       7.254  -1.256   3.457  0.00  0.00    +0.021 C 
ATOM      6  C   UNL     1       8.219  -2.373   3.905  0.00  0.00    +0.001 C 
ATOM      7  C   UNL     1       7.575  -3.672   3.360  0.00  0.00    +0.001 C 
ATOM      8  C   UNL     1       6.061  -3.416   3.567  0.00  0.00    +0.021 C 
BRANCH   4   9
ATOM      9  C   UNL     1       4.862  -1.308   4.167  0.00  0.00    -0.032 A 
ATOM     10  C   UNL     1       4.672   0.061   4.178  0.00  0.00    +0.006 A 
ATOM     11  C   UNL     1       3.736   0.623   5.027  0.00  0.00    +0.020 A 
ATOM     12  C   UNL     1       2.989  -0.186   5.864  0.00  0.00    +0.041 A 
ATOM     13  C   UNL     1       3.179  -1.557   5.852  0.00  0.00    +0.020 A 
ATOM     14  C   UNL     1       4.112  -2.117   4.999  0.00  0.00    +0.006 A 
ATOM     15 CL   UNL     1       1.814   0.518   6.930  0.00  0.00    -0.084 Cl
ENDBRANCH   4   9
ENDBRANCH   2   4
BRANCH   1  16
ATOM     16  S   UNL     1       3.845  -0.989  -0.035  0.00  0.00    +0.102 S 
ATOM     17  O   UNL     1       3.612  -2.294  -0.545  0.00  0.00    -0.146 OA
ATOM     18  O   UNL     1       4.766  -0.089  -0.636  0.00  0.00    -0.146 OA
BRANCH  16  22
ATOM     19  C   UNL     1      -0.165   1.111   0.022  0.00  0.00    +0.000 A 
ATOM     20  C   UNL     1       1.002   1.851  -0.029  0.00  0.00    +0.002 A 
ATOM     21  C   UNL     1       2.227   1.210  -0.046  0.00  0.00    +0.029 A 
ATOM     22  C   UNL     1       2.284  -0.171  -0.012  0.00  0.00    +0.113 A 
ATOM     23  C   UNL     1       1.117  -0.910   0.041  0.00  0.00    +0.029 A 
ATOM     24  C   UNL     1      -0.107  -0.269   0.057  0.00  0.00    +0.002 A 
ENDBRANCH  16  22
ENDBRANCH   1  16
TORSDOF 4
