REMARK  Name = ZINC36027769
REMARK  8 active torsions:
REMARK  status: ('A' for Active; 'I' for Inactive)
REMARK    1  A    between atoms: C_1  and  C_2
REMARK    2  A    between atoms: C_2  and  C_3
REMARK    3  A    between atoms: C_3  and  C_5
REMARK    4  A    between atoms: C_3  and  C_6
REMARK    5  A    between atoms: N_10  and  C_25
REMARK    6  A    between atoms: C_18  and  C_20
REMARK    7  A    between atoms: C_25  and  C_26
REMARK    8  A    between atoms: C_30  and  C_32
REMARK                            x       y       z     vdW  Elec       q    Type
REMARK                         _______ _______ _______ _____ _____    ______ ____
ROOT
ATOM      1  C   UNL     1      -3.782  -2.659  -1.851  0.00  0.00    +0.022 C 
ATOM      2  C   UNL     1      -2.655  -2.559  -0.846  0.00  0.00    +0.201 C 
ATOM      3  O   UNL     1      -1.638  -1.913  -0.984  0.00  0.00    -0.277 OA
ATOM      4  N   UNL     1      -2.971  -3.311   0.228  0.00  0.00    -0.309 N 
ATOM      5  C   UNL     1      -4.277  -3.942   0.017  0.00  0.00    +0.006 C 
ATOM      6  N   UNL     1      -4.931  -3.196  -1.082  0.00  0.00    +0.401 N 
ATOM      7  C   UNL     1      -5.123  -3.843   1.284  0.00  0.00    +0.025 C 
ATOM      8  C   UNL     1      -4.420  -4.588   2.424  0.00  0.00    +0.108 C 
ATOM      9  N   UNL     1      -4.132  -5.960   1.985  0.00  0.00    -0.301 N 
ATOM     10  C   UNL     1      -3.386  -6.161   0.736  0.00  0.00    +0.108 C 
ATOM     11  C   UNL     1      -4.098  -5.403  -0.390  0.00  0.00    +0.025 C 
ATOM     12  C   UNL     1      -4.544  -7.015   2.716  0.00  0.00    +0.219 C 
ATOM     13  O   UNL     1      -4.218  -8.138   2.396  0.00  0.00    -0.275 OA
ATOM     14  H   UNL     1      -5.496  -2.445  -0.715  0.00  0.00    -0.082 HD
ATOM     15  H   UNL     1      -5.485  -3.815  -1.654  0.00  0.00    -0.082 HD
ENDROOT
BRANCH  12  16
ATOM     16  C   UNL     1      -5.409  -6.798   3.931  0.00  0.00    +0.075 C 
ATOM     17  C   UNL     1      -4.529  -6.459   5.152  0.00  0.00    +0.013 C 
ATOM     18  C   UNL     1      -5.232  -7.169   6.335  0.00  0.00    +0.001 C 
ATOM     19  C   UNL     1      -5.715  -8.496   5.699  0.00  0.00    +0.001 C 
ATOM     20  C   UNL     1      -6.162  -8.094   4.279  0.00  0.00    +0.013 C 
ENDBRANCH  12  16
BRANCH   1  21
ATOM     21  C   UNL     1      -4.118  -1.276  -2.413  0.00  0.00    -0.020 C 
ATOM     22  C   UNL     1      -4.354  -0.299  -1.260  0.00  0.00    +0.006 C 
BRANCH  21  24
ATOM     23  C   UNL     1      -3.338   0.545  -3.936  0.00  0.00    +0.004 C 
ATOM     24  C   UNL     1      -2.954  -0.779  -3.273  0.00  0.00    -0.001 C 
ENDBRANCH  21  24
ENDBRANCH   1  21
BRANCH   4  25
ATOM     25  C   UNL     1      -2.138  -3.472   1.423  0.00  0.00    +0.141 C 
BRANCH  25  26
ATOM     26  C   UNL     1      -2.296  -2.266   2.312  0.00  0.00    -0.030 A 
ATOM     27  C   UNL     1      -1.237  -1.396   2.492  0.00  0.00    +0.005 A 
ATOM     28  C   UNL     1      -1.382  -0.289   3.307  0.00  0.00    +0.001 A 
ATOM     29  C   UNL     1      -2.587  -0.052   3.943  0.00  0.00    +0.012 A 
ATOM     30  C   UNL     1      -3.646  -0.921   3.762  0.00  0.00    +0.055 A 
ATOM     31  C   UNL     1      -3.502  -2.026   2.943  0.00  0.00    +0.017 A 
BRANCH  30  32
ATOM     32  C   UNL     1      -4.959  -0.663   4.455  0.00  0.00    +0.417 C 
ATOM     33  F   UNL     1      -4.862   0.505   5.219  0.00  0.00    -0.166 F 
ATOM     34  F   UNL     1      -5.970  -0.513   3.499  0.00  0.00    -0.166 F 
ATOM     35  F   UNL     1      -5.266  -1.743   5.291  0.00  0.00    -0.166 F 
ENDBRANCH  30  32
ENDBRANCH  25  26
ENDBRANCH   4  25
TORSDOF 6
