REMARK  Name = ZINC39726232
REMARK  6 active torsions:
REMARK  status: ('A' for Active; 'I' for Inactive)
REMARK    1  A    between atoms: C_1  and  C_2
REMARK    2  A    between atoms: C_10  and  C_14
REMARK    3  A    between atoms: C_14  and  C_16
REMARK    4  A    between atoms: C_14  and  N_17
REMARK    5  A    between atoms: N_20  and  C_23
REMARK    6  A    between atoms: C_23  and  C_24
REMARK                            x       y       z     vdW  Elec       q    Type
REMARK                         _______ _______ _______ _____ _____    ______ ____
ROOT
ATOM      1  N   UNL     1      -2.951  -6.945   4.573  0.00  0.00    -0.297 NA
ATOM      2  C   UNL     1      -3.159  -7.930   3.502  0.00  0.00    +0.066 C 
ATOM      3  C   UNL     1      -4.630  -8.352   3.480  0.00  0.00    -0.063 C 
ATOM      4  N   UNL     1      -4.993  -8.931   4.780  0.00  0.00    +0.383 N 
ATOM      5  C   UNL     1      -4.803  -7.928   5.836  0.00  0.00    -0.063 C 
ATOM      6  C   UNL     1      -3.334  -7.503   5.878  0.00  0.00    +0.066 C 
ATOM      7  H   UNL     1      -4.406  -9.731   4.967  0.00  0.00    -0.082 HD
ENDROOT
BRANCH   1   8
ATOM      8  C   UNL     1      -1.560  -6.472   4.590  0.00  0.00    +0.119 C 
ATOM      9  C   UNL     1      -0.662  -7.552   5.196  0.00  0.00    +0.032 C 
BRANCH   8  18
ATOM     10  C   UNL     1       0.111  -0.314  11.433  0.00  0.00    +0.007 C 
ATOM     11  C   UNL     1      -0.345  -0.448   9.979  0.00  0.00    -0.012 C 
ATOM     12  C   UNL     1      -1.727  -1.096   9.945  0.00  0.00    +0.008 C 
ATOM     13  C   UNL     1      -2.248  -1.170   8.503  0.00  0.00    +0.033 C 
ATOM     14  C   UNL     1      -1.163  -1.863   7.682  0.00  0.00    -0.042 C 
ATOM     15  C   UNL     1      -1.354  -2.945   6.926  0.00  0.00    +0.071 C 
ATOM     16  C   UNL     1      -0.161  -3.614   6.341  0.00  0.00    +0.112 C 
ATOM     17  N   UNL     1      -0.252  -4.707   5.622  0.00  0.00    -0.226 NA
ATOM     18  C   UNL     1      -1.466  -5.217   5.420  0.00  0.00    +0.140 C 
ATOM     19  N   UNL     1      -2.584  -4.718   5.881  0.00  0.00    -0.160 NA
ATOM     20  C   UNL     1      -2.669  -3.609   6.639  0.00  0.00    +0.271 C 
ATOM     21  O   UNL     1      -3.729  -3.179   7.059  0.00  0.00    -0.268 OA
ATOM     22  S   UNL     1       1.205  -2.613   6.838  0.00  0.00    -0.097 S 
ATOM     23  C   UNL     1       0.265  -1.317   7.732  0.00  0.00    +0.080 C 
ATOM     24  C   UNL     1       0.674  -1.292   9.207  0.00  0.00    +0.022 C 
ENDBRANCH   8  18
ENDBRANCH   1   8
BRANCH   4  25
ATOM     25  C   UNL     1      -6.400  -9.353   4.753  0.00  0.00    -0.045 C 
BRANCH  25  26
ATOM     26  C   UNL     1      -6.684 -10.262   5.950  0.00  0.00    +0.117 C 
ATOM     27  N   UNL     1      -6.370  -9.584   7.215  0.00  0.00    -0.333 N 
ATOM     28  C   UNL     1      -5.374 -10.141   8.015  0.00  0.00    +0.042 A 
ATOM     29  C   UNL     1      -4.940  -9.635   9.253  0.00  0.00    +0.024 A 
ATOM     30  C   UNL     1      -3.946 -10.259   9.969  0.00  0.00    +0.002 A 
ATOM     31  C   UNL     1      -3.338 -11.408   9.496  0.00  0.00    +0.001 A 
ATOM     32  C   UNL     1      -3.746 -11.930   8.279  0.00  0.00    +0.016 A 
ATOM     33  C   UNL     1      -4.741 -11.304   7.564  0.00  0.00    +0.030 A 
ATOM     34  S   UNL     1      -5.508 -11.674   6.001  0.00  0.00    -0.103 S 
ATOM     35  H   UNL     1      -6.839  -8.778   7.483  0.00  0.00    +0.147 HD
ENDBRANCH  25  26
ENDBRANCH   4  25
TORSDOF 4
