REMARK  Name = ZINC28465862
REMARK  2 active torsions:
REMARK  status: ('A' for Active; 'I' for Inactive)
REMARK    1  A    between atoms: C_4  and  C_23
REMARK    2  A    between atoms: C_5  and  C_7
REMARK                            x       y       z     vdW  Elec       q    Type
REMARK                         _______ _______ _______ _____ _____    ______ ____
ROOT
ATOM      1  C   UNL     1       1.967   3.346   0.001  0.00  0.00    +0.141 C 
ATOM      2  C   UNL     1       1.254   2.015   0.109  0.00  0.00    +0.046 C 
ATOM      3  C   UNL     1       2.005   0.880   0.096  0.00  0.00    +0.052 C 
ATOM      4  C   UNL     1       1.097  -0.292   0.212  0.00  0.00    +0.007 A 
ATOM      5  C   UNL     1       1.321  -1.657   0.248  0.00  0.00    +0.010 A 
ATOM      6  C   UNL     1       0.245  -2.532   0.365  0.00  0.00    +0.001 A 
ATOM      7  C   UNL     1      -1.042  -2.046   0.445  0.00  0.00    +0.001 A 
ATOM      8  C   UNL     1      -1.277  -0.675   0.411  0.00  0.00    +0.012 A 
ATOM      9  C   UNL     1      -0.217   0.201   0.294  0.00  0.00    +0.031 A 
ATOM     10  C   UNL     1      -0.116   1.685   0.228  0.00  0.00    +0.194 C 
ATOM     11  O   UNL     1      -1.044   2.470   0.264  0.00  0.00    -0.287 OA
ATOM     12  N   UNL     1       3.374   0.958  -0.013  0.00  0.00    -0.268 N 
ATOM     13  C   UNL     1       4.047   2.109  -0.111  0.00  0.00    +0.305 C 
ATOM     14  O   UNL     1       5.259   2.071  -0.203  0.00  0.00    -0.252 OA
ATOM     15  N   UNL     1       3.435   3.309  -0.111  0.00  0.00    -0.288 N 
ATOM     16  H   UNL     1       3.978   0.038  -0.023  0.00  0.00    +0.156 HD
ATOM     17  H   UNL     1       4.005   4.246  -0.192  0.00  0.00    +0.151 HD
ENDROOT
BRANCH   1  22
ATOM     18  C   UNL     1       1.259   4.288  -3.586  0.00  0.00    +0.000 A 
ATOM     19  C   UNL     1       0.436   5.387  -3.425  0.00  0.00    +0.001 A 
ATOM     20  C   UNL     1       0.109   5.826  -2.155  0.00  0.00    +0.013 A 
ATOM     21  C   UNL     1       0.605   5.165  -1.047  0.00  0.00    +0.060 A 
ATOM     22  C   UNL     1       1.427   4.066  -1.208  0.00  0.00    -0.011 A 
ATOM     23  C   UNL     1       1.758   3.630  -2.477  0.00  0.00    +0.006 A 
BRANCH  21  24
ATOM     24  C   UNL     1       0.248   5.644   0.337  0.00  0.00    +0.418 C 
ATOM     25  F   UNL     1      -0.658   6.705   0.245  0.00  0.00    -0.166 F 
ATOM     26  F   UNL     1      -0.334   4.595   1.058  0.00  0.00    -0.166 F 
ATOM     27  F   UNL     1       1.406   6.075   0.994  0.00  0.00    -0.166 F 
ENDBRANCH  21  24
ENDBRANCH   1  22
TORSDOF 2
