REMARK  Name = ZINC12296794
REMARK  4 active torsions:
REMARK  status: ('A' for Active; 'I' for Inactive)
REMARK    1  A    between atoms: C_1  and  O_2
REMARK    2  A    between atoms: O_2  and  C_3
REMARK    3  A    between atoms: C_17  and  C_19
REMARK    4  A    between atoms: C_20  and  C_21
REMARK                            x       y       z     vdW  Elec       q    Type
REMARK                         _______ _______ _______ _____ _____    ______ ____
ROOT
ATOM      1  C   UNL     1      -2.315  11.873   2.270  0.00  0.00    +0.121 A 
ATOM      2  C   UNL     1      -3.288  11.718   3.249  0.00  0.00    +0.047 A 
ATOM      3  C   UNL     1      -3.853  10.489   3.540  0.00  0.00    +0.030 A 
ATOM      4  C   UNL     1      -3.403   9.393   2.805  0.00  0.00    +0.047 A 
ATOM      5  C   UNL     1      -2.410   9.548   1.806  0.00  0.00    +0.008 A 
ATOM      6  C   UNL     1      -1.850  10.799   1.525  0.00  0.00    +0.056 A 
ATOM      7  C   UNL     1      -2.189   8.228   1.255  0.00  0.00    -0.002 A 
ATOM      8  C   UNL     1      -3.010   7.378   1.910  0.00  0.00    +0.023 A 
ATOM      9  N   UNL     1      -3.743   8.069   2.839  0.00  0.00    -0.358 N 
ATOM     10  H   UNL     1      -4.403   7.678   3.432  0.00  0.00    +0.166 HD
ATOM     11  C   UNL     1      -3.081   5.894   1.641  0.00  0.00    +0.072 C 
ATOM     12  C   UNL     1      -2.464   5.605   0.261  0.00  0.00    +0.114 C 
ATOM     13  N   UNL     1      -1.195   6.339   0.147  0.00  0.00    -0.293 N 
ATOM     14  C   UNL     1      -1.240   7.812   0.158  0.00  0.00    +0.145 C 
ATOM     15  C   UNL     1      -0.024   5.683   0.031  0.00  0.00    +0.240 C 
ATOM     16  O   UNL     1      -0.013   4.469  -0.063  0.00  0.00    -0.271 OA
ENDROOT
BRANCH   1  18
ATOM     17  C   UNL     1      -2.314  14.184   2.829  0.00  0.00    +0.277 C 
ATOM     18  O   UNL     1      -1.804  13.111   2.035  0.00  0.00    -0.495 OA
ENDBRANCH   1  18
BRANCH  15  19
ATOM     19  C   UNL     1       1.234   6.428   0.019  0.00  0.00    +0.068 C 
ATOM     20  C   UNL     1       2.411   5.767   0.009  0.00  0.00    +0.013 C 
BRANCH  20  21
ATOM     21  C   UNL     1       3.675   6.517  -0.003  0.00  0.00    -0.021 A 
ATOM     22  C   UNL     1       3.662   7.916  -0.004  0.00  0.00    +0.012 A 
ATOM     23  C   UNL     1       4.848   8.616  -0.015  0.00  0.00    +0.050 A 
ATOM     24  C   UNL     1       6.060   7.938  -0.025  0.00  0.00    +0.166 A 
ATOM     25  C   UNL     1       6.082   6.542  -0.024  0.00  0.00    +0.167 A 
ATOM     26  C   UNL     1       4.897   5.834  -0.012  0.00  0.00    +0.057 A 
ATOM     27  O   UNL     1       7.382   6.127  -0.035  0.00  0.00    -0.453 OA
ATOM     28  C   UNL     1       8.155   7.273   0.369  0.00  0.00    +0.466 C 
ATOM     29  O   UNL     1       7.346   8.392  -0.038  0.00  0.00    -0.453 OA
ENDBRANCH  20  21
ENDBRANCH  15  19
TORSDOF 3
