REMARK  Name = ZINC33821684
REMARK  6 active torsions:
REMARK  status: ('A' for Active; 'I' for Inactive)
REMARK    1  A    between atoms: N_7  and  C_8
REMARK    2  A    between atoms: C_8  and  C_9
REMARK    3  A    between atoms: C_9  and  O_10
REMARK    4  A    between atoms: O_10  and  C_11
REMARK    5  A    between atoms: C_28  and  C_31
REMARK    6  A    between atoms: C_35  and  C_37
REMARK                            x       y       z     vdW  Elec       q    Type
REMARK                         _______ _______ _______ _____ _____    ______ ____
ROOT
ATOM      1  C   UNL     1      -1.382   9.968   1.109  0.00  0.00    +0.121 A 
ATOM      2  C   UNL     1      -1.712   9.209   2.222  0.00  0.00    +0.047 A 
ATOM      3  C   UNL     1      -1.675   7.828   2.144  0.00  0.00    +0.027 A 
ATOM      4  C   UNL     1      -1.313   7.222   0.957  0.00  0.00    +0.031 A 
ATOM      5  C   UNL     1      -1.011   7.971  -0.173  0.00  0.00    -0.019 A 
ATOM      6  C   UNL     1      -1.033   9.354  -0.083  0.00  0.00    +0.051 A 
ATOM      7  C   UNL     1      -0.716   7.317  -1.488  0.00  0.00    +0.029 C 
ATOM      8  C   UNL     1      -2.049   7.246  -2.302  0.00  0.00    -0.003 C 
ATOM      9  C   UNL     1      -3.061   6.583  -1.317  0.00  0.00    +0.004 C 
ATOM     10  C   UNL     1      -2.583   5.118  -1.195  0.00  0.00    +0.004 C 
ATOM     11  C   UNL     1      -1.333   5.031  -2.123  0.00  0.00    -0.005 C 
ATOM     12  C   UNL     1      -1.744   6.038  -3.256  0.00  0.00    +0.008 C 
ATOM     13  C   UNL     1      -0.240   5.868  -1.391  0.00  0.00    +0.024 C 
ATOM     14  C   UNL     1      -0.084   5.357   0.030  0.00  0.00    +0.105 C 
ATOM     15  N   UNL     1      -1.227   5.822   0.841  0.00  0.00    -0.336 N 
ATOM     16  H   UNL     1      -1.916   5.091   1.290  0.00  0.00    +0.147 HD
ENDROOT
BRANCH  14  17
ATOM     17  C   UNL     1      -0.052   3.850   0.022  0.00  0.00    -0.026 A 
ATOM     18  C   UNL     1       1.075   3.186  -0.428  0.00  0.00    +0.005 A 
ATOM     19  C   UNL     1       1.116   1.803  -0.433  0.00  0.00    +0.001 A 
ATOM     20  C   UNL     1       0.027   1.077   0.002  0.00  0.00    +0.015 A 
ATOM     21  C   UNL     1      -1.114   1.740   0.458  0.00  0.00    +0.063 A 
ATOM     22  C   UNL     1      -1.146   3.136   0.465  0.00  0.00    +0.020 A 
BRANCH  21  23
ATOM     23  C   UNL     1      -2.282   0.969   0.931  0.00  0.00    +0.387 C 
ATOM     24  O   UNL     1      -3.273   1.549   1.327  0.00  0.00    -0.241 OA
ATOM     25  O   UNL     1      -2.248  -0.378   0.923  0.00  0.00    -0.241 OA
ENDBRANCH  21  23
ENDBRANCH  14  17
BRANCH   1  26
ATOM     26  O   UNL     1      -1.401  11.326   1.188  0.00  0.00    -0.490 OA
BRANCH  26  27
ATOM     27  C   UNL     1      -1.770  11.897   2.445  0.00  0.00    +0.247 C 
BRANCH  27  28
ATOM     28  C   UNL     1      -1.735  13.423   2.341  0.00  0.00    +0.144 C 
BRANCH  28  35
ATOM     29  C   UNL     1      -2.272  17.500   1.508  0.00  0.00    +0.005 A 
ATOM     30  C   UNL     1      -3.257  17.877   0.605  0.00  0.00    +0.018 A 
ATOM     31  C   UNL     1      -4.033  16.904   0.006  0.00  0.00    +0.084 A 
ATOM     32  N   UNL     1      -3.849  15.627   0.281  0.00  0.00    -0.350 N 
ATOM     33  C   UNL     1      -2.920  15.228   1.136  0.00  0.00    +0.096 A 
ATOM     34  C   UNL     1      -2.106  16.154   1.781  0.00  0.00    +0.041 A 
ATOM     35  N   UNL     1      -2.761  13.872   1.396  0.00  0.00    -0.327 N 
ATOM     36  H   UNL     1      -3.404  13.136   0.893  0.00  0.00    +0.148 HD
ATOM     37  H   UNL     1      -4.475  14.864  -0.204  0.00  0.00    +0.166 HD
ENDBRANCH  28  35
ENDBRANCH  27  28
ENDBRANCH  26  27
ENDBRANCH   1  26
TORSDOF 6
