REMARK  Name = ZINC14460872
REMARK  3 active torsions:
REMARK  status: ('A' for Active; 'I' for Inactive)
REMARK    1  A    between atoms: C_1  and  C_2
REMARK    2  A    between atoms: C_9  and  C_18
REMARK    3  A    between atoms: C_23  and  O_24
REMARK                            x       y       z     vdW  Elec       q    Type
REMARK                         _______ _______ _______ _____ _____    ______ ____
ROOT
ATOM      1  C   UNL     1       0.594   1.955   4.873  0.00  0.00    +0.047 C 
ATOM      2  C   UNL     1      -0.290   1.921   3.653  0.00  0.00    -0.011 A 
ATOM      3  C   UNL     1      -1.638   2.298   3.748  0.00  0.00    +0.046 A 
ATOM      4  C   UNL     1      -2.457   2.258   2.633  0.00  0.00    +0.020 A 
ATOM      5  C   UNL     1      -1.931   1.876   1.413  0.00  0.00    +0.007 A 
ATOM      6  C   UNL     1      -0.600   1.536   1.300  0.00  0.00    -0.019 A 
ATOM      7  C   UNL     1       0.251   1.555   2.420  0.00  0.00    +0.036 A 
ATOM      8  N   UNL     1       1.609   1.249   2.378  0.00  0.00    -0.336 N 
ATOM      9  C   UNL     1       2.145   0.787   1.087  0.00  0.00    +0.108 C 
ATOM     10  C   UNL     1       1.466   1.603   0.006  0.00  0.00    +0.029 C 
ATOM     11  C   UNL     1      -0.014   1.109   0.011  0.00  0.00    +0.049 C 
ATOM     12  C   UNL     1      -0.534   1.595  -1.290  0.00  0.00    -0.023 C 
ATOM     13  C   UNL     1       0.477   1.670  -2.149  0.00  0.00    -0.030 C 
ATOM     14  C   UNL     1       1.781   1.264  -1.455  0.00  0.00    +0.033 C 
ATOM     15 CL   UNL     1      -2.293   2.768   5.286  0.00  0.00    -0.083 Cl
ATOM     16  H   UNL     1       1.860   0.614   3.121  0.00  0.00    +0.147 HD
ENDROOT
BRANCH   9  17
ATOM     17  C   UNL     1       3.635   1.009   1.040  0.00  0.00    +0.015 A 
ATOM     18  C   UNL     1       4.464   0.025   0.537  0.00  0.00    +0.024 A 
ATOM     19  C   UNL     1       5.831   0.230   0.490  0.00  0.00    +0.018 A 
ATOM     20  C   UNL     1       6.372   1.416   0.954  0.00  0.00    +0.019 A 
ATOM     21  C   UNL     1       5.546   2.400   1.461  0.00  0.00    +0.047 A 
ATOM     22  C   UNL     1       4.174   2.199   1.505  0.00  0.00    +0.122 A 
ATOM     23 BR   UNL     1       6.964  -1.117  -0.203  0.00  0.00    -0.050 Br
BRANCH  22  24
ATOM     24  O   UNL     1       3.360   3.166   2.005  0.00  0.00    -0.506 OA
ATOM     25  H   UNL     1       3.265   3.142   2.966  0.00  0.00    +0.292 HD
ENDBRANCH  22  24
ENDBRANCH   9  17
TORSDOF 2
