REMARK  Name = ZINC39836219
REMARK  6 active torsions:
REMARK  status: ('A' for Active; 'I' for Inactive)
REMARK    1  A    between atoms: C_1  and  C_2
REMARK    2  A    between atoms: C_9  and  N_22
REMARK    3  A    between atoms: C_10  and  C_11
REMARK    4  A    between atoms: N_13  and  C_14
REMARK    5  A    between atoms: C_23  and  C_25
REMARK    6  A    between atoms: C_28  and  N_31
REMARK                            x       y       z     vdW  Elec       q    Type
REMARK                         _______ _______ _______ _____ _____    ______ ____
ROOT
ATOM      1  C   UNL     1      -0.019   1.526   0.010  0.00  0.00    +0.008 C 
ATOM      2  C   UNL     1       0.002  -0.004   0.002  0.00  0.00    -0.009 C 
ATOM      3  C   UNL     1      -1.434  -0.537   0.019  0.00  0.00    +0.008 C 
ATOM      4  C   UNL     1      -1.433  -2.045  -0.237  0.00  0.00    +0.037 C 
ATOM      5  C   UNL     1      -0.464  -2.704   0.734  0.00  0.00    -0.023 A 
ATOM      6  C   UNL     1       0.485  -1.986   1.374  0.00  0.00    -0.004 A 
ATOM      7  S   UNL     1       1.343  -3.167   2.373  0.00  0.00    -0.077 S 
ATOM      8  C   UNL     1       0.493  -4.557   1.968  0.00  0.00    +0.085 A 
ATOM      9  C   UNL     1      -0.459  -4.119   1.061  0.00  0.00    +0.069 A 
ATOM     10  C   UNL     1       0.739  -0.515   1.248  0.00  0.00    +0.046 C 
ENDROOT
BRANCH   9  11
ATOM     11  C   UNL     1      -1.422  -5.045   0.456  0.00  0.00    +0.247 C 
ATOM     12  O   UNL     1      -1.150  -5.611  -0.587  0.00  0.00    -0.270 OA
ATOM     13  N   UNL     1      -2.608  -5.271   1.056  0.00  0.00    -0.307 N 
ATOM     14  H   UNL     1      -2.824  -4.821   1.887  0.00  0.00    +0.149 HD
BRANCH  13  15
ATOM     15  C   UNL     1      -3.569  -6.197   0.452  0.00  0.00    +0.096 C 
ATOM     16  C   UNL     1      -4.435  -5.449  -0.576  0.00  0.00    +0.046 C 
ATOM     17  C   UNL     1      -5.648  -6.322  -0.979  0.00  0.00    +0.168 C 
ATOM     18  S   UNL     1      -5.918  -7.354   0.519  0.00  0.00    -0.029 S 
ATOM     19  O   UNL     1      -5.711  -8.719   0.183  0.00  0.00    -0.174 OA
ATOM     20  O   UNL     1      -7.137  -6.963   1.136  0.00  0.00    -0.174 OA
ATOM     21  C   UNL     1      -4.508  -6.770   1.551  0.00  0.00    +0.188 C 
ENDBRANCH  13  15
ENDBRANCH   9  11
BRANCH   8  22
ATOM     22  N   UNL     1       0.696  -5.846   2.434  0.00  0.00    -0.275 N 
ATOM     23  C   UNL     1       1.677  -6.094   3.324  0.00  0.00    +0.249 C 
ATOM     24  O   UNL     1       2.384  -5.187   3.718  0.00  0.00    -0.270 OA
ATOM     25  H   UNL     1       0.132  -6.570   2.120  0.00  0.00    +0.156 HD
BRANCH  23  26
ATOM     26  C   UNL     1       1.894  -7.469   3.821  0.00  0.00    +0.037 A 
ATOM     27  C   UNL     1       1.087  -8.514   3.367  0.00  0.00    +0.015 A 
ATOM     28  C   UNL     1       1.295  -9.795   3.835  0.00  0.00    +0.033 A 
ATOM     29  C   UNL     1       2.299 -10.045   4.753  0.00  0.00    +0.126 A 
ATOM     30  C   UNL     1       3.102  -9.014   5.207  0.00  0.00    +0.033 A 
ATOM     31  C   UNL     1       2.909  -7.729   4.743  0.00  0.00    +0.015 A 
BRANCH  29  32
ATOM     32  N   UNL     1       2.516 -11.422   5.251  0.00  0.00    +0.056 N 
ATOM     33  O   UNL     1       1.816 -12.325   4.856  0.00  0.00    -0.126 OA
ATOM     34  O   UNL     1       3.393 -11.644   6.053  0.00  0.00    -0.126 OA
ENDBRANCH  29  32
ENDBRANCH  23  26
ENDBRANCH   8  22
TORSDOF 5
