REMARK  Name = ZINC13111514
REMARK  5 active torsions:
REMARK  status: ('A' for Active; 'I' for Inactive)
REMARK    1  A    between atoms: C_1  and  C_2
REMARK    2  A    between atoms: C_3  and  C_8
REMARK    3  A    between atoms: N_5  and  C_7
REMARK    4  A    between atoms: N_9  and  N_10
REMARK    5  A    between atoms: C_11  and  C_13
REMARK                            x       y       z     vdW  Elec       q    Type
REMARK                         _______ _______ _______ _____ _____    ______ ____
ROOT
ATOM      1  N   UNL     1       2.811   7.917  -1.136  0.00  0.00    -0.202 N 
ATOM      2  C   UNL     1       3.163   6.652  -1.438  0.00  0.00    +0.271 C 
ATOM      3  O   UNL     1       4.268   6.239  -1.136  0.00  0.00    -0.268 OA
ATOM      4  H   UNL     1       1.908   8.224  -1.311  0.00  0.00    +0.178 HD
ENDROOT
BRANCH   2   5
ATOM      5  C   UNL     1       2.215   5.771  -2.132  0.00  0.00    +0.095 A 
ATOM      6  C   UNL     1       2.419   4.513  -2.608  0.00  0.00    +0.068 A 
ATOM      7  C   UNL     1       1.370   3.828  -3.251  0.00  0.00    +0.008 A 
ATOM      8  C   UNL     1       1.385   2.524  -3.809  0.00  0.00    +0.010 A 
ATOM      9  C   UNL     1       0.276   2.008  -4.398  0.00  0.00    +0.001 A 
ATOM     10  C   UNL     1      -0.908   2.731  -4.482  0.00  0.00    +0.001 A 
ATOM     11  C   UNL     1      -0.968   4.002  -3.947  0.00  0.00    +0.016 A 
ATOM     12  C   UNL     1       0.151   4.539  -3.346  0.00  0.00    +0.021 A 
ATOM     13  S   UNL     1       0.511   6.088  -2.558  0.00  0.00    -0.082 S 
ATOM     14 CL   UNL     1       3.969   3.754  -2.425  0.00  0.00    -0.082 Cl
ENDBRANCH   2   5
BRANCH   1  16
ATOM     15  C   UNL     1       3.389   9.978  -0.197  0.00  0.00    +0.141 C 
ATOM     16  N   UNL     1       3.750   8.789  -0.570  0.00  0.00    -0.187 NA
BRANCH  15  19
ATOM     17  C   UNL     1       2.221  12.922  -0.371  0.00  0.00    +0.068 C 
ATOM     18  C   UNL     1       1.426  11.647  -0.254  0.00  0.00    +0.069 A 
ATOM     19  C   UNL     1       1.959  10.342  -0.177  0.00  0.00    +0.035 A 
ATOM     20  C   UNL     1       0.895   9.472  -0.073  0.00  0.00    +0.117 A 
ATOM     21  N   UNL     1      -0.233  10.210  -0.092  0.00  0.00    -0.274 N 
ATOM     22  N   UNL     1       0.124  11.558  -0.209  0.00  0.00    -0.176 NA
ATOM     23  C   UNL     1      -1.599   9.689  -0.005  0.00  0.00    +0.172 C 
ENDBRANCH  15  19
ENDBRANCH   1  16
TORSDOF 3
