REMARK  Name = ZINC66746544
REMARK  8 active torsions:
REMARK  status: ('A' for Active; 'I' for Inactive)
REMARK    1  A    between atoms: C_1  and  C_2
REMARK    2  A    between atoms: C_2  and  C_3
REMARK    3  A    between atoms: C_3  and  C_4
REMARK    4  A    between atoms: C_4  and  C_6
REMARK    5  A    between atoms: C_4  and  N_24
REMARK    6  A    between atoms: C_11  and  N_14
REMARK    7  A    between atoms: C_15  and  O_17
REMARK    8  A    between atoms: O_17  and  C_18
REMARK                            x       y       z     vdW  Elec       q    Type
REMARK                         _______ _______ _______ _____ _____    ______ ____
ROOT
ATOM      1  C   UNL     1       1.196  -2.347  -2.600  0.00  0.00    +0.236 C 
ATOM      2  O   UNL     1       2.173  -3.060  -2.681  0.00  0.00    -0.274 OA
ATOM      3  N   UNL     1       0.566  -1.937  -3.719  0.00  0.00    -0.300 N 
ATOM      4  C   UNL     1      -0.545  -0.979  -3.644  0.00  0.00    +0.109 C 
ATOM      5  C   UNL     1      -1.755  -1.570  -4.375  0.00  0.00    +0.041 C 
ATOM      6  C   UNL     1      -1.349  -1.952  -5.800  0.00  0.00    +0.079 C 
ATOM      7  C   UNL     1      -0.248  -3.014  -5.752  0.00  0.00    +0.041 C 
ATOM      8  C   UNL     1       0.982  -2.435  -5.037  0.00  0.00    +0.109 C 
ENDROOT
BRANCH   6   9
ATOM      9  N   UNL     1      -2.512  -2.487  -6.512  0.00  0.00    -0.278 N 
ATOM     10  C   UNL     1      -2.567  -2.422  -7.857  0.00  0.00    +0.406 C 
ATOM     11  O   UNL     1      -1.652  -1.920  -8.479  0.00  0.00    -0.226 OA
ATOM     12  H   UNL     1      -3.243  -2.888  -6.016  0.00  0.00    +0.152 HD
BRANCH  10  13
ATOM     13  O   UNL     1      -3.636  -2.914  -8.512  0.00  0.00    -0.412 OA
BRANCH  13  14
ATOM     14  C   UNL     1      -3.697  -2.736  -9.859  0.00  0.00    +0.133 A 
ATOM     15  C   UNL     1      -4.529  -1.764 -10.394  0.00  0.00    +0.046 A 
ATOM     16  C   UNL     1      -4.590  -1.586 -11.763  0.00  0.00    +0.004 A 
ATOM     17  C   UNL     1      -3.822  -2.375 -12.598  0.00  0.00    +0.000 A 
ATOM     18  C   UNL     1      -2.992  -3.345 -12.067  0.00  0.00    +0.004 A 
ATOM     19  C   UNL     1      -2.924  -3.523 -10.699  0.00  0.00    +0.046 A 
ENDBRANCH  13  14
ENDBRANCH  10  13
ENDBRANCH   6   9
BRANCH   1  20
ATOM     20  C   UNL     1       0.685  -1.918  -1.248  0.00  0.00    +0.160 C 
BRANCH  20  21
ATOM     21  N   UNL     1       1.129  -2.876  -0.233  0.00  0.00    -0.288 N 
ATOM     22  C   UNL     1       0.430  -3.019   0.911  0.00  0.00    +0.298 C 
ATOM     23  O   UNL     1      -0.570  -2.352   1.099  0.00  0.00    -0.253 OA
ATOM     24  N   UNL     1       0.838  -3.900   1.845  0.00  0.00    -0.313 N 
ATOM     25  H   UNL     1       1.926  -3.408  -0.383  0.00  0.00    +0.151 HD
ATOM     26  H   UNL     1       1.635  -4.432   1.695  0.00  0.00    +0.146 HD
ATOM     27  H   UNL     1       0.335  -4.003   2.668  0.00  0.00    +0.146 HD
ENDBRANCH  20  21
BRANCH  20  28
ATOM     28  C   UNL     1       1.232  -0.529  -0.913  0.00  0.00    +0.031 C 
BRANCH  28  30
ATOM     29  C   UNL     1       1.151   1.354   0.727  0.00  0.00    +0.004 C 
ATOM     30  C   UNL     1       0.604  -0.035   0.391  0.00  0.00    -0.001 C 
ENDBRANCH  28  30
ENDBRANCH  20  28
ENDBRANCH   1  20
TORSDOF 7
