REMARK  Name = ZINC43095520
REMARK  6 active torsions:
REMARK  status: ('A' for Active; 'I' for Inactive)
REMARK    1  A    between atoms: C_1  and  C_2
REMARK    2  A    between atoms: C_2  and  C_4
REMARK    3  A    between atoms: C_2  and  N_21
REMARK    4  A    between atoms: C_4  and  C_6
REMARK    5  A    between atoms: C_4  and  O_13
REMARK    6  A    between atoms: O_13  and  C_14
REMARK                            x       y       z     vdW  Elec       q    Type
REMARK                         _______ _______ _______ _____ _____    ______ ____
ROOT
ATOM      1  C   UNL     1       0.784  -0.374   1.198  0.00  0.00    +0.135 C 
ENDROOT
BRANCH   1   2
ATOM      2  C   UNL     1       0.851  -1.872   1.046  0.00  0.00    -0.007 A 
ATOM      3  C   UNL     1       1.938  -2.456   0.422  0.00  0.00    +0.007 A 
ATOM      4  C   UNL     1       1.999  -3.830   0.283  0.00  0.00    +0.000 A 
ATOM      5  C   UNL     1       0.973  -4.621   0.767  0.00  0.00    +0.001 A 
ATOM      6  C   UNL     1      -0.114  -4.038   1.390  0.00  0.00    +0.015 A 
ATOM      7  C   UNL     1      -0.173  -2.663   1.534  0.00  0.00    +0.023 A 
ATOM      8 BR   UNL     1      -1.657  -1.865   2.393  0.00  0.00    -0.050 Br
ENDBRANCH   1   2
BRANCH   1  10
ATOM      9  C   UNL     1      -0.089   1.741   0.196  0.00  0.00    -0.011 C 
ATOM     10  C   UNL     1      -0.028   0.220   0.045  0.00  0.00    -0.044 C 
BRANCH  10  11
ATOM     11  N   UNL     1       0.614  -0.120  -1.232  0.00  0.00    +0.382 N 
ATOM     12  H   UNL     1       0.654  -1.123  -1.331  0.00  0.00    -0.090 HD
ATOM     13  H   UNL     1       0.079   0.272  -1.992  0.00  0.00    -0.090 HD
ATOM     14  H   UNL     1       1.549   0.258  -1.250  0.00  0.00    -0.090 HD
ENDBRANCH  10  11
ENDBRANCH   1  10
BRANCH   1  15
ATOM     15  O   UNL     1       2.107   0.166   1.177  0.00  0.00    -0.370 OA
BRANCH  15  16
ATOM     16  C   UNL     1       2.732   0.222   2.461  0.00  0.00    +0.119 C 
ATOM     17  C   UNL     1       2.315   1.531   3.162  0.00  0.00    +0.031 C 
ATOM     18  C   UNL     1       2.528   1.369   4.643  0.00  0.00    +0.002 C 
ATOM     19  C   UNL     1       3.901   1.896   5.102  0.00  0.00    +0.000 C 
ATOM     20  C   UNL     1       5.039   1.521   4.134  0.00  0.00    +0.000 C 
ATOM     21  C   UNL     1       4.927   0.106   3.634  0.00  0.00    +0.002 C 
ATOM     22  C   UNL     1       4.174   0.121   2.288  0.00  0.00    +0.031 C 
ENDBRANCH  15  16
ENDBRANCH   1  15
TORSDOF 5
