REMARK  Name = ZINC21722063
REMARK  4 active torsions:
REMARK  status: ('A' for Active; 'I' for Inactive)
REMARK    1  A    between atoms: C_10  and  C_25
REMARK    2  A    between atoms: N_12  and  C_13
REMARK    3  A    between atoms: C_13  and  C_14
REMARK    4  A    between atoms: C_19  and  C_22
REMARK                            x       y       z     vdW  Elec       q    Type
REMARK                         _______ _______ _______ _____ _____    ______ ____
ROOT
ATOM      1  C   UNL     1       1.241   2.826  -1.010  0.00  0.00    +0.002 A 
ATOM      2  C   UNL     1       1.142   1.449  -0.937  0.00  0.00    +0.002 A 
ATOM      3  C   UNL     1      -0.059   0.849  -0.602  0.00  0.00    +0.025 A 
ATOM      4  C   UNL     1      -1.170   1.642  -0.345  0.00  0.00    +0.052 A 
ATOM      5  C   UNL     1      -1.062   3.016  -0.399  0.00  0.00    +0.052 A 
ATOM      6  C   UNL     1       0.139   3.619  -0.739  0.00  0.00    +0.025 A 
ATOM      7  N   UNL     1      -2.196   3.763  -0.093  0.00  0.00    -0.316 N 
ATOM      8  C   UNL     1      -3.329   3.738  -0.841  0.00  0.00    +0.017 C 
ATOM      9  C   UNL     1      -3.878   2.610  -1.324  0.00  0.00    +0.037 C 
ATOM     10  C   UNL     1      -3.389   1.202  -1.082  0.00  0.00    +0.146 C 
ATOM     11  N   UNL     1      -2.397   1.066  -0.040  0.00  0.00    -0.308 N 
ATOM     12  C   UNL     1      -5.046   2.679  -2.121  0.00  0.00    +0.163 C 
ATOM     13  O   UNL     1      -5.510   1.651  -2.574  0.00  0.00    -0.292 OA
ATOM     14  C   UNL     1      -5.731   3.978  -2.427  0.00  0.00    +0.080 C 
ATOM     15  C   UNL     1      -5.464   4.954  -1.274  0.00  0.00    +0.014 C 
ATOM     16  C   UNL     1      -3.949   5.093  -1.126  0.00  0.00    +0.051 C 
ATOM     17  H   UNL     1      -2.203   4.414   0.794  0.00  0.00    +0.152 HD
ENDROOT
BRANCH  10  18
ATOM     18  C   UNL     1      -4.574   0.344  -0.719  0.00  0.00    +0.015 A 
ATOM     19  C   UNL     1      -5.280  -0.510  -1.499  0.00  0.00    +0.013 A 
ATOM     20  C   UNL     1      -6.342  -1.201  -0.946  0.00  0.00    +0.008 A 
ATOM     21  C   UNL     1      -6.645  -1.005   0.361  0.00  0.00    +0.045 A 
ATOM     22  S   UNL     1      -5.406   0.183   0.853  0.00  0.00    -0.099 S 
ENDBRANCH  10  18
BRANCH  11  23
ATOM     23  C   UNL     1      -2.238  -0.340   0.355  0.00  0.00    +0.202 C 
BRANCH  23  24
ATOM     24  C   UNL     1      -1.189  -0.443   1.432  0.00  0.00    +0.233 C 
ATOM     25  O   UNL     1      -0.718   0.564   1.918  0.00  0.00    -0.274 OA
ATOM     26  N   UNL     1      -0.775  -1.653   1.856  0.00  0.00    -0.300 N 
ATOM     27  C   UNL     1      -1.340  -2.881   1.280  0.00  0.00    +0.108 C 
ATOM     28  C   UNL     1      -0.186  -3.765   0.783  0.00  0.00    +0.032 C 
ATOM     29  C   UNL     1       0.797  -4.003   1.932  0.00  0.00    +0.078 C 
ATOM     30  C   UNL     1       1.379  -2.666   2.394  0.00  0.00    +0.032 C 
ATOM     31  C   UNL     1       0.246  -1.770   2.905  0.00  0.00    +0.108 C 
BRANCH  29  32
ATOM     32  C   UNL     1       1.913  -4.900   1.459  0.00  0.00    +0.214 C 
ATOM     33  O   UNL     1       3.060  -4.508   1.489  0.00  0.00    -0.276 OA
ATOM     34  N   UNL     1       1.635  -6.138   1.003  0.00  0.00    -0.329 N 
ATOM     35  H   UNL     1       2.450  -6.792   0.658  0.00  0.00    +0.145 HD
ATOM     36  H   UNL     1       0.595  -6.494   0.976  0.00  0.00    +0.145 HD
ENDBRANCH  29  32
ENDBRANCH  23  24
ENDBRANCH  11  23
TORSDOF 4
