REMARK  Name = ZINC21235865
REMARK  3 active torsions:
REMARK  status: ('A' for Active; 'I' for Inactive)
REMARK    1  A    between atoms: C_4  and  C_7
REMARK    2  A    between atoms: C_12  and  C_18
REMARK    3  A    between atoms: C_22  and  N_24
REMARK                            x       y       z     vdW  Elec       q    Type
REMARK                         _______ _______ _______ _____ _____    ______ ____
ROOT
ATOM      1  C   UNL     1      -0.728   1.579   1.268  0.00  0.00    +0.032 C 
ATOM      2  C   UNL     1      -0.013   1.086   0.008  0.00  0.00    +0.059 C 
ATOM      3  C   UNL     1      -0.741   1.585  -1.215  0.00  0.00    +0.018 C 
ATOM      4  C   UNL     1      -1.407   2.759  -1.192  0.00  0.00    +0.020 C 
ATOM      5  C   UNL     1      -2.125   3.241  -2.431  0.00  0.00    +0.063 C 
ATOM      6  C   UNL     1      -1.335   2.821  -3.672  0.00  0.00    +0.109 C 
ATOM      7  C   UNL     1      -0.977   1.362  -3.558  0.00  0.00    +0.218 C 
ATOM      8  O   UNL     1      -0.925   0.673  -4.554  0.00  0.00    -0.275 OA
ATOM      9  N   UNL     1      -0.714   0.823  -2.355  0.00  0.00    -0.289 N 
ATOM     10  C   UNL     1      -1.454   3.551  -0.033  0.00  0.00    +0.162 C 
ATOM     11  O   UNL     1      -2.052   4.608  -0.055  0.00  0.00    -0.292 OA
ATOM     12  C   UNL     1      -0.775   3.110   1.236  0.00  0.00    +0.088 C 
ATOM     13  H   UNL     1      -0.475  -0.249  -2.295  0.00  0.00    +0.155 HD
ENDROOT
BRANCH   5  14
ATOM     14  C   UNL     1      -3.503   2.633  -2.483  0.00  0.00    -0.037 A 
ATOM     15  C   UNL     1      -3.650   1.259  -2.530  0.00  0.00    +0.006 A 
ATOM     16  C   UNL     1      -4.914   0.701  -2.572  0.00  0.00    +0.022 A 
ATOM     17  C   UNL     1      -6.031   1.517  -2.579  0.00  0.00    +0.071 A 
ATOM     18  C   UNL     1      -5.882   2.892  -2.537  0.00  0.00    +0.145 A 
ATOM     19  C   UNL     1      -4.618   3.449  -2.489  0.00  0.00    +0.038 A 
ATOM     20 CL   UNL     1      -7.618   0.816  -2.638  0.00  0.00    -0.081 Cl
BRANCH  18  21
ATOM     21  N   UNL     1      -7.077   3.766  -2.545  0.00  0.00    +0.058 N 
ATOM     22  O   UNL     1      -6.946   4.976  -2.509  0.00  0.00    -0.126 OA
ATOM     23  O   UNL     1      -8.191   3.274  -2.587  0.00  0.00    -0.126 OA
ENDBRANCH  18  21
ENDBRANCH   5  14
BRANCH   1  27
ATOM     24  C   UNL     1       1.413   0.284   4.730  0.00  0.00    +0.000 A 
ATOM     25  C   UNL     1       0.100  -0.108   4.543  0.00  0.00    +0.000 A 
ATOM     26  C   UNL     1      -0.592   0.311   3.422  0.00  0.00    +0.004 A 
ATOM     27  C   UNL     1       0.027   1.122   2.490  0.00  0.00    -0.044 A 
ATOM     28  C   UNL     1       1.341   1.510   2.675  0.00  0.00    +0.004 A 
ATOM     29  C   UNL     1       2.032   1.094   3.798  0.00  0.00    +0.000 A 
ENDBRANCH   1  27
TORSDOF 3
