REMARK  Name = ZINC40135416
REMARK  10 active torsions:
REMARK  status: ('A' for Active; 'I' for Inactive)
REMARK    1  A    between atoms: C_1  and  C_2
REMARK    2  A    between atoms: C_2  and  C_4
REMARK    3  A    between atoms: C_2  and  N_15
REMARK    4  A    between atoms: N_6  and  C_7
REMARK    5  A    between atoms: N_11  and  C_12
REMARK    6  A    between atoms: C_12  and  C_13
REMARK    7  A    between atoms: C_12  and  C_14
REMARK    8  A    between atoms: C_18  and  C_21
REMARK    9  A    between atoms: N_23  and  C_24
REMARK   10  A    between atoms: C_29  and  O_30
REMARK                            x       y       z     vdW  Elec       q    Type
REMARK                         _______ _______ _______ _____ _____    ______ ____
ROOT
ATOM      1  N   UNL     1       0.900  -0.988   0.247  0.00  0.00    +0.387 N 
ATOM      2  C   UNL     1       0.944  -2.186  -0.600  0.00  0.00    -0.077 C 
ATOM      3  C   UNL     1       1.895  -3.215   0.015  0.00  0.00    -0.006 C 
ATOM      4  C   UNL     1       3.297  -2.609   0.118  0.00  0.00    +0.072 C 
ATOM      5  C   UNL     1       3.227  -1.320   0.941  0.00  0.00    -0.006 C 
ATOM      6  C   UNL     1       2.227  -0.361   0.292  0.00  0.00    -0.077 C 
ATOM      7  H   UNL     1       0.621  -1.248   1.181  0.00  0.00    -0.081 HD
ENDROOT
BRANCH   4   8
ATOM      8  C   UNL     1       4.221  -3.589   0.794  0.00  0.00    +0.220 C 
ATOM      9  O   UNL     1       3.801  -4.667   1.159  0.00  0.00    -0.275 OA
ATOM     10  N   UNL     1       5.515  -3.268   0.994  0.00  0.00    -0.282 N 
ATOM     11  H   UNL     1       5.834  -2.380   0.769  0.00  0.00    +0.155 HD
BRANCH  10  12
ATOM     12  C   UNL     1       6.398  -4.216   1.526  0.00  0.00    +0.077 A 
ATOM     13  C   UNL     1       6.085  -5.566   1.470  0.00  0.00    +0.047 A 
ATOM     14  C   UNL     1       6.959  -6.501   1.996  0.00  0.00    +0.043 A 
ATOM     15  C   UNL     1       8.146  -6.092   2.578  0.00  0.00    +0.023 A 
ATOM     16  C   UNL     1       8.463  -4.748   2.636  0.00  0.00    +0.049 A 
ATOM     17  C   UNL     1       7.596  -3.806   2.107  0.00  0.00    +0.138 A 
ATOM     18 CL   UNL     1       6.565  -8.190   1.926  0.00  0.00    -0.083 Cl
BRANCH  17  19
ATOM     19  O   UNL     1       7.911  -2.484   2.158  0.00  0.00    -0.505 OA
ATOM     20  H   UNL     1       7.599  -2.037   2.957  0.00  0.00    +0.292 HD
ENDBRANCH  17  19
ENDBRANCH  10  12
ENDBRANCH   4   8
BRANCH   1  22
ATOM     21  C   UNL     1      -0.072   1.241   0.539  0.00  0.00    -0.004 C 
ATOM     22  C   UNL     1      -0.072  -0.035  -0.305  0.00  0.00    +0.016 C 
BRANCH  22  23
ATOM     23  C   UNL     1      -1.447  -0.651  -0.285  0.00  0.00    +0.204 C 
ATOM     24  O   UNL     1      -1.724  -1.490   0.547  0.00  0.00    -0.277 OA
ATOM     25  N   UNL     1      -2.369  -0.271  -1.192  0.00  0.00    -0.272 N 
ATOM     26  H   UNL     1      -2.148   0.399  -1.857  0.00  0.00    +0.156 HD
BRANCH  25  27
ATOM     27  C   UNL     1      -3.642  -0.842  -1.173  0.00  0.00    +0.123 A 
ATOM     28  C   UNL     1      -4.088  -1.783  -0.297  0.00  0.00    +0.065 A 
ATOM     29  C   UNL     1      -5.414  -2.079  -0.626  0.00  0.00    +0.136 A 
ATOM     30  N   UNL     1      -5.755  -1.349  -1.656  0.00  0.00    -0.178 NA
ATOM     31  N   UNL     1      -4.658  -0.556  -2.018  0.00  0.00    -0.248 N 
BRANCH  31  32
ATOM     32  C   UNL     1      -4.619   0.410  -3.119  0.00  0.00    +0.103 C 
ATOM     33  C   UNL     1      -4.899  -0.310  -4.439  0.00  0.00    +0.032 C 
ATOM     34  C   UNL     1      -5.680   1.488  -2.890  0.00  0.00    +0.032 C 
ENDBRANCH  31  32
ENDBRANCH  25  27
ENDBRANCH  22  23
ENDBRANCH   1  22
TORSDOF 7
