REMARK  Name = ZINC39211546
REMARK  9 active torsions:
REMARK  status: ('A' for Active; 'I' for Inactive)
REMARK    1  A    between atoms: C_1  and  C_2
REMARK    2  A    between atoms: C_7  and  N_8
REMARK    3  A    between atoms: C_9  and  C_14
REMARK    4  A    between atoms: C_14  and  C_16
REMARK    5  A    between atoms: C_14  and  N_24
REMARK    6  A    between atoms: N_24  and  C_25
REMARK    7  A    between atoms: C_25  and  C_26
REMARK    8  A    between atoms: C_26  and  C_27
REMARK    9  A    between atoms: C_35  and  C_37
REMARK                            x       y       z     vdW  Elec       q    Type
REMARK                         _______ _______ _______ _____ _____    ______ ____
ROOT
ATOM      1  C   UNL     1      -0.977  -1.549   4.024  0.00  0.00    +0.120 C 
ENDROOT
BRANCH   1   3
ATOM      2  N   UNL     1      -0.222   0.076   2.335  0.00  0.00    -0.262 N 
ATOM      3  C   UNL     1      -1.320  -0.273   3.252  0.00  0.00    +0.164 C 
ATOM      4  N   UNL     1      -1.445   0.874   4.185  0.00  0.00    -0.327 NA
ATOM      5  N   UNL     1      -0.815   1.973   3.432  0.00  0.00    +0.410 N 
ATOM      6  N   UNL     1       0.282   1.294   2.725  0.00  0.00    -0.266 NA
ATOM      7  H   UNL     1      -2.414   1.078   4.380  0.00  0.00    +0.106 HD
ATOM      8  H   UNL     1      -1.468   2.379   2.779  0.00  0.00    -0.031 HD
ATOM      9  H   UNL     1       1.085   1.176   3.326  0.00  0.00    +0.125 HD
ATOM     10  H   UNL     1      -0.453   2.675   4.060  0.00  0.00    -0.031 HD
BRANCH   2  17
ATOM     11  C   UNL     1      -1.312   0.592  -0.242  0.00  0.00    +0.046 C 
ATOM     12  C   UNL     1      -0.276  -0.477  -0.014  0.00  0.00    -0.028 A 
ATOM     13  C   UNL     1       0.177  -1.238  -1.074  0.00  0.00    +0.005 A 
ATOM     14  C   UNL     1       1.128  -2.220  -0.865  0.00  0.00    +0.000 A 
ATOM     15  C   UNL     1       1.629  -2.444   0.404  0.00  0.00    +0.002 A 
ATOM     16  C   UNL     1       1.181  -1.687   1.468  0.00  0.00    +0.025 A 
ATOM     17  C   UNL     1       0.229  -0.695   1.262  0.00  0.00    +0.047 A 
ENDBRANCH   2  17
ENDBRANCH   1   3
BRANCH   1  18
ATOM     18  C   UNL     1      -2.036  -1.805   5.066  0.00  0.00    -0.009 A 
ATOM     19  C   UNL     1      -3.140  -2.576   4.754  0.00  0.00    +0.008 A 
ATOM     20  C   UNL     1      -4.111  -2.811   5.709  0.00  0.00    +0.020 A 
ATOM     21  C   UNL     1      -3.978  -2.276   6.978  0.00  0.00    +0.042 A 
ATOM     22  C   UNL     1      -2.874  -1.505   7.291  0.00  0.00    +0.040 A 
ATOM     23  C   UNL     1      -1.899  -1.274   6.336  0.00  0.00    +0.047 A 
ATOM     24 CL   UNL     1      -0.509  -0.311   6.729  0.00  0.00    -0.083 Cl
ATOM     25 CL   UNL     1      -5.199  -2.571   8.177  0.00  0.00    -0.083 Cl
ENDBRANCH   1  18
BRANCH   1  26
ATOM     26  N   UNL     1      -0.921  -2.684   3.094  0.00  0.00    -0.306 NA
ATOM     27  H   UNL     1      -1.847  -2.951   2.793  0.00  0.00    +0.123 HD
BRANCH  26  28
ATOM     28  C   UNL     1      -0.213  -3.822   3.694  0.00  0.00    +0.086 C 
BRANCH  28  29
ATOM     29  C   UNL     1      -0.144  -4.970   2.685  0.00  0.00    +0.052 C 
BRANCH  29  30
ATOM     30  C   UNL     1       0.588  -6.136   3.299  0.00  0.00    -0.018 A 
ATOM     31  C   UNL     1      -0.008  -7.232   4.066  0.00  0.00    +0.003 A 
ATOM     32  C   UNL     1      -1.311  -7.550   4.454  0.00  0.00    +0.010 A 
ATOM     33  C   UNL     1      -1.544  -8.679   5.187  0.00  0.00    +0.001 A 
ATOM     34  C   UNL     1      -0.496  -9.513   5.550  0.00  0.00    +0.002 A 
ATOM     35  C   UNL     1       0.797  -9.219   5.177  0.00  0.00    +0.026 A 
ATOM     36  C   UNL     1       1.058  -8.075   4.431  0.00  0.00    +0.047 A 
ATOM     37  N   UNL     1       2.209  -7.520   3.917  0.00  0.00    -0.358 N 
ATOM     38  C   UNL     1       1.908  -6.369   3.242  0.00  0.00    +0.017 A 
ATOM     39  H   UNL     1       3.099  -7.892   4.016  0.00  0.00    +0.166 HD
ATOM     40  C   UNL     1       2.912  -5.490   2.541  0.00  0.00    +0.063 C 
ENDBRANCH  29  30
ENDBRANCH  28  29
ENDBRANCH  26  28
ENDBRANCH   1  26
TORSDOF 7
