REMARK  Name = ZINC61875410
REMARK  3 active torsions:
REMARK  status: ('A' for Active; 'I' for Inactive)
REMARK    1  A    between atoms: C_1  and  C_2
REMARK    2  A    between atoms: C_9  and  N_12
REMARK    3  A    between atoms: C_14  and  C_19
REMARK                            x       y       z     vdW  Elec       q    Type
REMARK                         _______ _______ _______ _____ _____    ______ ____
ROOT
ATOM      1  C   UNL     1      -0.014   1.487  -0.005  0.00  0.00    +0.065 C 
ATOM      2  C   UNL     1      -0.006  -0.020  -0.007  0.00  0.00    +0.039 A 
ATOM      3  C   UNL     1      -0.016  -0.698  -1.224  0.00  0.00    +0.023 A 
ATOM      4  C   UNL     1      -0.008  -2.063  -1.244  0.00  0.00    +0.012 A 
ATOM      5  C   UNL     1       0.011  -2.746  -0.013  0.00  0.00    +0.002 A 
ATOM      6  C   UNL     1       0.020  -4.149   0.044  0.00  0.00    +0.010 A 
ATOM      7  C   UNL     1       0.038  -4.780   1.250  0.00  0.00    +0.003 A 
ATOM      8  C   UNL     1       0.047  -4.055   2.438  0.00  0.00    +0.025 A 
ATOM      9  C   UNL     1       0.037  -2.677   2.424  0.00  0.00    +0.059 A 
ATOM     10  C   UNL     1       0.020  -1.994   1.188  0.00  0.00    +0.092 A 
ATOM     11  N   UNL     1       0.016  -0.660   1.138  0.00  0.00    -0.250 NA
ENDROOT
BRANCH   9  12
ATOM     12  N   UNL     1       0.045  -1.962   3.622  0.00  0.00    -0.296 N 
ATOM     13  C   UNL     1       0.565  -2.538   4.769  0.00  0.00    +0.159 A 
ATOM     14  C   UNL     1       0.462  -1.873   6.003  0.00  0.00    +0.180 A 
ATOM     15  N   UNL     1       0.965  -2.435   7.098  0.00  0.00    -0.240 NA
ATOM     16  C   UNL     1       1.557  -3.611   7.022  0.00  0.00    +0.132 A 
ATOM     17  C   UNL     1       1.659  -4.267   5.805  0.00  0.00    +0.132 A 
ATOM     18  N   UNL     1       1.159  -3.724   4.710  0.00  0.00    -0.236 NA
ATOM     19  H   UNL     1      -0.314  -1.061   3.651  0.00  0.00    +0.154 HD
BRANCH  14  20
ATOM     20  C   UNL     1      -0.181  -0.595   6.081  0.00  0.00    +0.123 C 
ATOM     21  N   UNL     1      -0.691   0.418   6.142  0.00  0.00    -0.189 NA
ENDBRANCH  14  20
ENDBRANCH   9  12
TORSDOF 2
