REMARK  Name = ZINC43607518
REMARK  7 active torsions:
REMARK  status: ('A' for Active; 'I' for Inactive)
REMARK    1  A    between atoms: C_1  and  O_2
REMARK    2  A    between atoms: O_2  and  C_3
REMARK    3  A    between atoms: C_5  and  C_10
REMARK    4  A    between atoms: C_8  and  O_9
REMARK    5  A    between atoms: C_11  and  C_12
REMARK    6  A    between atoms: N_18  and  C_26
REMARK    7  A    between atoms: C_26  and  C_27
REMARK                            x       y       z     vdW  Elec       q    Type
REMARK                         _______ _______ _______ _____ _____    ______ ____
ROOT
ATOM      1  C   UNL     1      -7.306   0.405   0.057  0.00  0.00    -0.043 C 
ATOM      2  C   UNL     1      -8.172   0.020   1.284  0.00  0.00    -0.007 C 
ATOM      3  C   UNL     1      -9.589   0.417   0.802  0.00  0.00    +0.003 C 
ATOM      4  C   UNL     1     -10.623  -0.570   1.375  0.00  0.00    +0.110 C 
ATOM      5  N   UNL     1     -10.710  -1.675   0.414  0.00  0.00    -0.298 N 
ATOM      6  C   UNL     1     -10.156  -1.345  -0.765  0.00  0.00    +0.206 C 
ATOM      7  O   UNL     1     -10.142  -2.057  -1.747  0.00  0.00    -0.277 OA
ATOM      8  C   UNL     1      -9.550   0.052  -0.701  0.00  0.00    +0.018 C 
ATOM      9  N   UNL     1      -8.134   0.066  -1.120  0.00  0.00    +0.394 N 
ATOM     10  C   UNL     1      -7.974   1.119  -2.147  0.00  0.00    -0.077 C 
ATOM     11  C   UNL     1      -9.382   1.274  -2.779  0.00  0.00    -0.019 C 
ATOM     12  C   UNL     1     -10.307   1.083  -1.542  0.00  0.00    -0.004 C 
ATOM     13  H   UNL     1      -7.869  -0.836  -1.488  0.00  0.00    -0.079 HD
ENDROOT
BRANCH   1  15
ATOM     14  C   UNL     1      -4.857   0.229   0.038  0.00  0.00    +0.002 C 
ATOM     15  C   UNL     1      -6.028  -0.393   0.046  0.00  0.00    -0.041 C 
BRANCH  14  18
ATOM     16  C   UNL     1      -1.201  -0.638   0.010  0.00  0.00    +0.162 A 
ATOM     17  C   UNL     1      -2.371   0.099   0.019  0.00  0.00    +0.057 A 
ATOM     18  C   UNL     1      -3.604  -0.554   0.028  0.00  0.00    -0.022 A 
ATOM     19  C   UNL     1      -3.651  -1.949   0.027  0.00  0.00    +0.012 A 
ATOM     20  C   UNL     1      -2.481  -2.679   0.017  0.00  0.00    +0.050 A 
ATOM     21  C   UNL     1      -1.255  -2.030   0.003  0.00  0.00    +0.158 A 
BRANCH  16  23
ATOM     22  C   UNL     1      -0.017   1.425   0.010  0.00  0.00    +0.277 C 
ATOM     23  O   UNL     1       0.002  -0.004   0.002  0.00  0.00    -0.491 OA
ENDBRANCH  16  23
BRANCH  21  24
ATOM     24  O   UNL     1      -0.104  -2.753  -0.012  0.00  0.00    -0.503 OA
ATOM     25  H   UNL     1       0.237  -2.967   0.867  0.00  0.00    +0.292 HD
ENDBRANCH  21  24
ENDBRANCH  14  18
ENDBRANCH   1  15
BRANCH   5  26
ATOM     26  C   UNL     1     -11.323  -2.974   0.704  0.00  0.00    +0.142 C 
BRANCH  26  27
ATOM     27  C   UNL     1     -12.787  -2.928   0.351  0.00  0.00    -0.029 A 
ATOM     28  C   UNL     1     -13.714  -2.534   1.299  0.00  0.00    +0.005 A 
ATOM     29  C   UNL     1     -15.057  -2.491   0.976  0.00  0.00    +0.002 A 
ATOM     30  C   UNL     1     -15.475  -2.844  -0.293  0.00  0.00    +0.020 A 
ATOM     31  C   UNL     1     -14.549  -3.239  -1.241  0.00  0.00    +0.041 A 
ATOM     32  C   UNL     1     -13.203  -3.275  -0.920  0.00  0.00    +0.025 A 
ATOM     33 CL   UNL     1     -15.072  -3.681  -2.836  0.00  0.00    -0.084 Cl
ENDBRANCH  26  27
ENDBRANCH   5  26
TORSDOF 6
