REMARK  Name = ZINC12324782
REMARK  7 active torsions:
REMARK  status: ('A' for Active; 'I' for Inactive)
REMARK    1  A    between atoms: C_1  and  C_2
REMARK    2  A    between atoms: C_2  and  C_3
REMARK    3  A    between atoms: C_2  and  C_4
REMARK    4  A    between atoms: C_7  and  N_10
REMARK    5  A    between atoms: C_11  and  C_13
REMARK    6  A    between atoms: C_16  and  O_30
REMARK    7  A    between atoms: C_20  and  N_29
REMARK                            x       y       z     vdW  Elec       q    Type
REMARK                         _______ _______ _______ _____ _____    ______ ____
ROOT
ATOM      1  C   UNL     1       4.550  -2.673  -5.723  0.00  0.00    +0.121 C 
ATOM      2  C   UNL     1       5.132  -1.396  -6.335  0.00  0.00    +0.113 C 
ATOM      3  C   UNL     1       6.048  -1.748  -7.476  0.00  0.00    +0.190 C 
ATOM      4  N   UNL     1       6.777  -2.820  -7.457  0.00  0.00    -0.197 NA
ATOM      5  C   UNL     1       6.732  -3.700  -6.418  0.00  0.00    +0.167 A 
ATOM      6  C   UNL     1       5.658  -3.673  -5.527  0.00  0.00    +0.049 A 
ATOM      7  C   UNL     1       5.636  -4.573  -4.471  0.00  0.00    +0.127 A 
ATOM      8  N   UNL     1       6.635  -5.448  -4.353  0.00  0.00    -0.199 NA
ATOM      9  C   UNL     1       7.629  -5.465  -5.228  0.00  0.00    +0.221 A 
ATOM     10  N   UNL     1       7.688  -4.614  -6.245  0.00  0.00    -0.195 NA
ATOM     11  N   UNL     1       8.641  -6.397  -5.075  0.00  0.00    -0.300 N 
ATOM     12  C   UNL     1       9.812  -6.542  -5.952  0.00  0.00    +0.108 C 
ATOM     13  C   UNL     1      10.648  -7.720  -5.409  0.00  0.00    +0.020 C 
ATOM     14  C   UNL     1       9.611  -8.534  -4.590  0.00  0.00    +0.020 C 
ATOM     15  C   UNL     1       8.727  -7.403  -4.001  0.00  0.00    +0.108 C 
ENDROOT
BRANCH   1  17
ATOM     16  N   UNL     1       2.593  -2.526  -4.217  0.00  0.00    -0.285 N 
ATOM     17  C   UNL     1       3.918  -2.353  -4.393  0.00  0.00    +0.225 C 
ATOM     18  O   UNL     1       4.602  -1.939  -3.480  0.00  0.00    -0.275 OA
ATOM     19  H   UNL     1       2.058  -2.921  -4.922  0.00  0.00    +0.155 HD
BRANCH  16  23
ATOM     20  C   UNL     1       0.796  -1.362  -0.643  0.00  0.00    -0.045 A 
ATOM     21  C   UNL     1       1.873  -0.649  -1.137  0.00  0.00    +0.006 A 
ATOM     22  C   UNL     1       2.471  -1.033  -2.322  0.00  0.00    +0.023 A 
ATOM     23  C   UNL     1       1.990  -2.135  -3.016  0.00  0.00    +0.033 A 
ATOM     24  C   UNL     1       0.909  -2.849  -2.516  0.00  0.00    +0.023 A 
ATOM     25  C   UNL     1       0.318  -2.463  -1.329  0.00  0.00    +0.006 A 
BRANCH  20  27
ATOM     26  C   UNL     1       1.178  -0.988   1.779  0.00  0.00    +0.012 C 
ATOM     27  C   UNL     1       0.146  -0.941   0.650  0.00  0.00    +0.013 C 
ATOM     28  C   UNL     1      -0.392   0.484   0.510  0.00  0.00    +0.012 C 
ENDBRANCH  20  27
ENDBRANCH  16  23
ENDBRANCH   1  17
BRANCH   7  29
ATOM     29  N   UNL     1       4.595  -4.562  -3.555  0.00  0.00    -0.343 N 
ATOM     30  H   UNL     1       3.700  -4.319  -3.841  0.00  0.00    +0.144 HD
ATOM     31  H   UNL     1       4.761  -4.798  -2.629  0.00  0.00    +0.144 HD
ENDBRANCH   7  29
BRANCH   3  32
ATOM     32  O   UNL     1       6.113  -0.929  -8.543  0.00  0.00    -0.495 OA
ATOM     33  H   UNL     1       6.724  -1.227  -9.230  0.00  0.00    +0.293 HD
ENDBRANCH   3  32
TORSDOF 5
