REMARK  Name = ZINC46813739
REMARK  6 active torsions:
REMARK  status: ('A' for Active; 'I' for Inactive)
REMARK    1  A    between atoms: C_1  and  C_2
REMARK    2  A    between atoms: C_2  and  C_3
REMARK    3  A    between atoms: C_3  and  C_5
REMARK    4  A    between atoms: C_3  and  N_22
REMARK    5  A    between atoms: C_5  and  N_6
REMARK    6  A    between atoms: C_7  and  C_9
REMARK                            x       y       z     vdW  Elec       q    Type
REMARK                         _______ _______ _______ _____ _____    ______ ____
ROOT
ATOM      1  N   UNL     1      -2.697  -2.655   0.185  0.00  0.00    -0.313 N 
ATOM      2  C   UNL     1      -2.855  -3.992   0.249  0.00  0.00    +0.244 C 
ATOM      3  O   UNL     1      -1.883  -4.721   0.214  0.00  0.00    -0.270 OA
ATOM      4  H   UNL     1      -3.473  -2.074   0.213  0.00  0.00    +0.149 HD
ENDROOT
BRANCH   2   5
ATOM      5  C   UNL     1      -4.213  -4.573   0.362  0.00  0.00    +0.039 A 
ATOM      6  C   UNL     1      -5.331  -3.726   0.396  0.00  0.00    +0.014 A 
ATOM      7  C   UNL     1      -6.590  -4.236   0.499  0.00  0.00    +0.016 A 
ATOM      8  C   UNL     1      -6.777  -5.623   0.573  0.00  0.00    +0.065 A 
ATOM      9  C   UNL     1      -5.655  -6.492   0.539  0.00  0.00    +0.080 A 
ATOM     10  C   UNL     1      -4.368  -5.948   0.427  0.00  0.00    +0.041 A 
ATOM     11  N   UNL     1      -5.852  -7.817   0.610  0.00  0.00    -0.223 NA
ATOM     12  C   UNL     1      -7.075  -8.315   0.710  0.00  0.00    +0.180 A 
ATOM     13  N   UNL     1      -8.169  -7.535   0.746  0.00  0.00    -0.301 N 
ATOM     14  H   UNL     1      -9.045  -7.945   0.819  0.00  0.00    +0.171 HD
ATOM     15  C   UNL     1      -8.065  -6.191   0.680  0.00  0.00    +0.260 A 
ATOM     16  O   UNL     1      -9.161  -5.412   0.715  0.00  0.00    -0.267 OA
ATOM     17  S   UNL     1      -7.269 -10.013   0.798  0.00  0.00    -0.011 S 
ENDBRANCH   2   5
BRANCH   1  18
ATOM     18  C   UNL     1      -1.355  -2.081   0.074  0.00  0.00    +0.089 C 
BRANCH  18  19
ATOM     19  C   UNL     1      -1.442  -0.556   0.170  0.00  0.00    -0.051 C 
BRANCH  19  20
ATOM     20  N   UNL     1      -1.703  -0.168   1.563  0.00  0.00    +0.385 N 
ATOM     21  C   UNL     1      -0.703  -0.790   2.443  0.00  0.00    -0.073 C 
ATOM     22  C   UNL     1      -0.797  -0.141   3.824  0.00  0.00    +0.017 C 
ATOM     23  C   UNL     1      -2.228  -0.154   4.298  0.00  0.00    -0.048 A 
ATOM     24  C   UNL     1      -2.486   0.064   5.642  0.00  0.00    +0.004 A 
ATOM     25  C   UNL     1      -3.784   0.062   6.112  0.00  0.00    +0.000 A 
ATOM     26  C   UNL     1      -4.832  -0.158   5.236  0.00  0.00    +0.000 A 
ATOM     27  C   UNL     1      -4.575  -0.376   3.898  0.00  0.00    +0.002 A 
ATOM     28  C   UNL     1      -3.272  -0.377   3.425  0.00  0.00    -0.061 A 
ATOM     29  C   UNL     1      -3.038  -0.627   1.958  0.00  0.00    -0.042 C 
ATOM     30  H   UNL     1      -1.653   0.836   1.649  0.00  0.00    -0.081 HD
ENDBRANCH  19  20
BRANCH  19  32
ATOM     31  C   UNL     1      -0.235   1.587  -0.269  0.00  0.00    +0.002 C 
ATOM     32  C   UNL     1      -0.121   0.061  -0.292  0.00  0.00    -0.017 C 
ENDBRANCH  19  32
ENDBRANCH  18  19
ENDBRANCH   1  18
TORSDOF 5
