REMARK  Name = ZINC39943237
REMARK  10 active torsions:
REMARK  status: ('A' for Active; 'I' for Inactive)
REMARK    1  A    between atoms: C_1  and  C_2
REMARK    2  A    between atoms: C_4  and  C_12
REMARK    3  A    between atoms: C_12  and  C_14
REMARK    4  A    between atoms: C_14  and  C_16
REMARK    5  A    between atoms: C_14  and  O_17
REMARK    6  A    between atoms: O_17  and  C_18
REMARK    7  A    between atoms: C_18  and  C_20
REMARK    8  A    between atoms: C_23  and  N_26
REMARK    9  A    between atoms: C_30  and  S_33
REMARK   10  A    between atoms: S_33  and  C_34
REMARK                            x       y       z     vdW  Elec       q    Type
REMARK                         _______ _______ _______ _____ _____    ______ ____
ROOT
ATOM      1  C   UNL     1      -5.164  -2.224  -2.268  0.00  0.00    +0.340 C 
ATOM      2  O   UNL     1      -5.238  -3.091  -1.420  0.00  0.00    -0.245 OA
ENDROOT
BRANCH   1   3
ATOM      3  C   UNL     1      -5.832  -2.408  -3.570  0.00  0.00    +0.059 A 
ATOM      4  C   UNL     1      -5.744  -1.414  -4.549  0.00  0.00    +0.017 A 
ATOM      5  C   UNL     1      -6.369  -1.588  -5.762  0.00  0.00    +0.026 A 
ATOM      6  C   UNL     1      -7.090  -2.752  -6.015  0.00  0.00    +0.051 A 
ATOM      7  C   UNL     1      -7.180  -3.743  -5.042  0.00  0.00    +0.026 A 
ATOM      8  C   UNL     1      -6.552  -3.578  -3.829  0.00  0.00    +0.017 A 
BRANCH   6   9
ATOM      9  N   UNL     1      -7.722  -2.925  -7.244  0.00  0.00    -0.221 N 
ATOM     10  C   UNL     1      -8.486  -1.923  -7.740  0.00  0.00    +0.130 C 
ATOM     11  S   UNL     1      -8.875  -0.421  -7.017  0.00  0.00    -0.026 S 
ATOM     12  S   UNL     1      -8.989  -2.554  -9.338  0.00  0.00    -0.070 S 
ATOM     13  C   UNL     1      -7.833  -3.993  -9.373  0.00  0.00    +0.194 C 
ATOM     14  N   UNL     1      -7.553  -4.083  -7.913  0.00  0.00    -0.212 NA
ATOM     15  H   UNL     1      -8.089  -4.826  -7.490  0.00  0.00    +0.147 HD
BRANCH  13  16
ATOM     16  S   UNL     1      -8.648  -5.489  -9.996  0.00  0.00    -0.133 S 
ATOM     17  C   UNL     1     -10.034  -5.742  -8.854  0.00  0.00    +0.087 C 
ENDBRANCH  13  16
ENDBRANCH   6   9
ENDBRANCH   1   3
BRANCH   1  18
ATOM     18  O   UNL     1      -4.471  -1.095  -2.020  0.00  0.00    -0.450 OA
BRANCH  18  19
ATOM     19  C   UNL     1      -3.849  -0.985  -0.738  0.00  0.00    +0.244 C 
ATOM     20  C   UNL     1      -4.820  -0.329   0.246  0.00  0.00    +0.061 C 
BRANCH  19  21
ATOM     21  C   UNL     1      -2.606  -0.141  -0.854  0.00  0.00    +0.202 C 
ATOM     22  O   UNL     1      -2.460   0.597  -1.807  0.00  0.00    -0.288 OA
BRANCH  21  25
ATOM     23  C   UNL     1      -0.500   2.024   0.146  0.00  0.00    +0.035 C 
ATOM     24  C   UNL     1      -0.280   0.510   0.160  0.00  0.00    +0.111 C 
ATOM     25  C   UNL     1      -1.611  -0.210   0.144  0.00  0.00    +0.030 C 
ATOM     26  C   UNL     1      -1.648  -0.949   1.313  0.00  0.00    +0.007 A 
ATOM     27  C   UNL     1      -2.613  -1.820   1.870  0.00  0.00    +0.010 A 
ATOM     28  C   UNL     1      -2.382  -2.422   3.058  0.00  0.00    +0.001 A 
ATOM     29  C   UNL     1      -1.199  -2.222   3.787  0.00  0.00    +0.002 A 
ATOM     30  C   UNL     1      -0.215  -1.411   3.344  0.00  0.00    +0.026 A 
ATOM     31  C   UNL     1      -0.386  -0.715   2.057  0.00  0.00    +0.043 A 
ATOM     32  N   UNL     1       0.385   0.109   1.404  0.00  0.00    -0.377 N 
ATOM     33  H   UNL     1       1.260   0.409   1.694  0.00  0.00    +0.160 HD
ENDBRANCH  21  25
ENDBRANCH  19  21
ENDBRANCH  18  19
ENDBRANCH   1  18
TORSDOF 7
