REMARK  Name = ZINC63350131
REMARK  7 active torsions:
REMARK  status: ('A' for Active; 'I' for Inactive)
REMARK    1  A    between atoms: C_1  and  C_2
REMARK    2  A    between atoms: C_4  and  C_31
REMARK    3  A    between atoms: N_5  and  C_7
REMARK    4  A    between atoms: C_7  and  C_8
REMARK    5  A    between atoms: C_10  and  C_16
REMARK    6  A    between atoms: C_13  and  O_14
REMARK    7  A    between atoms: O_14  and  C_15
REMARK                            x       y       z     vdW  Elec       q    Type
REMARK                         _______ _______ _______ _____ _____    ______ ____
ROOT
ATOM      1  C   UNL     1       1.482  -3.681   1.774  0.00  0.00    +0.016 A 
ATOM      2  C   UNL     1       2.064  -3.331   2.978  0.00  0.00    +0.014 A 
ATOM      3  C   UNL     1       3.374  -3.685   3.243  0.00  0.00    -0.028 A 
ATOM      4  C   UNL     1       4.105  -4.391   2.305  0.00  0.00    +0.009 A 
ATOM      5  C   UNL     1       3.528  -4.744   1.101  0.00  0.00    +0.046 A 
ATOM      6  C   UNL     1       2.212  -4.394   0.834  0.00  0.00    +0.125 A 
ENDROOT
BRANCH   3   7
ATOM      7  C   UNL     1       4.006  -3.301   4.556  0.00  0.00    +0.111 C 
ATOM      8  C   UNL     1       4.892  -2.068   4.360  0.00  0.00    +0.128 C 
ATOM      9  C   UNL     1       5.620  -1.852   5.682  0.00  0.00    -0.035 C 
ATOM     10  C   UNL     1       5.377  -0.600   6.044  0.00  0.00    -0.001 A 
ATOM     11  C   UNL     1       5.869   0.209   7.171  0.00  0.00    +0.010 A 
ATOM     12  C   UNL     1       5.394   1.480   7.249  0.00  0.00    +0.001 A 
ATOM     13  C   UNL     1       4.489   2.021   6.331  0.00  0.00    +0.002 A 
ATOM     14  C   UNL     1       3.989   1.351   5.262  0.00  0.00    +0.026 A 
ATOM     15  C   UNL     1       4.419   0.006   5.069  0.00  0.00    +0.043 A 
ATOM     16  N   UNL     1       4.118  -0.852   4.114  0.00  0.00    -0.376 N 
ATOM     17  C   UNL     1       6.351  -2.976   6.376  0.00  0.00    +0.048 C 
ATOM     18  C   UNL     1       5.384  -4.175   6.387  0.00  0.00    +0.086 C 
ATOM     19  N   UNL     1       4.849  -4.404   5.042  0.00  0.00    -0.307 NA
ATOM     20  H   UNL     1       4.357  -5.284   4.993  0.00  0.00    +0.123 HD
ATOM     21  H   UNL     1       3.495  -0.714   3.383  0.00  0.00    +0.160 HD
ENDBRANCH   3   7
BRANCH   6  22
ATOM     22  O   UNL     1       1.640  -4.745  -0.348  0.00  0.00    -0.495 OA
ATOM     23  C   UNL     1       2.451  -5.478  -1.268  0.00  0.00    +0.277 C 
ENDBRANCH   6  22
BRANCH   1  24
ATOM     24  C   UNL     1       0.055  -3.295   1.486  0.00  0.00    +0.182 C 
BRANCH  24  29
ATOM     25  C   UNL     1      -0.018   1.503   0.010  0.00  0.00    +0.069 C 
ATOM     26  C   UNL     1       0.002  -0.004   0.002  0.00  0.00    +0.078 A 
ATOM     27  C   UNL     1       0.008  -0.818  -1.136  0.00  0.00    +0.084 A 
ATOM     28  C   UNL     1       0.028  -2.108  -0.725  0.00  0.00    +0.055 A 
ATOM     29  N   UNL     1       0.034  -2.109   0.625  0.00  0.00    -0.262 N 
ATOM     30  N   UNL     1       0.023  -0.777   1.058  0.00  0.00    -0.174 NA
ATOM     31  C   UNL     1       0.041  -3.324  -1.615  0.00  0.00    +0.067 C 
ATOM     32 CL   UNL     1      -0.008  -0.271  -2.784  0.00  0.00    -0.080 Cl
ENDBRANCH  24  29
ENDBRANCH   1  24
TORSDOF 4
