REMARK  Name = ZINC16921796
REMARK  6 active torsions:
REMARK  status: ('A' for Active; 'I' for Inactive)
REMARK    1  A    between atoms: C_1  and  C_2
REMARK    2  A    between atoms: C_5  and  C_8
REMARK    3  A    between atoms: N_12  and  C_16
REMARK    4  A    between atoms: C_16  and  C_17
REMARK    5  A    between atoms: C_22  and  C_25
REMARK    6  A    between atoms: C_25  and  C_26
REMARK                            x       y       z     vdW  Elec       q    Type
REMARK                         _______ _______ _______ _____ _____    ______ ____
ROOT
ATOM      1  C   UNL     1       0.060  -4.244  -0.021  0.00  0.00    +0.028 C 
ATOM      2  C   UNL     1       0.177  -4.927   1.144  0.00  0.00    +0.077 C 
ATOM      3  C   UNL     1       0.324  -6.380   1.375  0.00  0.00    +0.259 C 
ATOM      4  O   UNL     1       0.356  -7.174   0.453  0.00  0.00    -0.269 OA
ATOM      5  N   UNL     1       0.419  -6.773   2.634  0.00  0.00    -0.246 N 
ATOM      6  C   UNL     1       0.383  -5.889   3.652  0.00  0.00    +0.121 C 
ATOM      7  S   UNL     1       0.491  -6.200   5.333  0.00  0.00    -0.027 S 
ATOM      8  S   UNL     1       0.205  -4.317   2.825  0.00  0.00    -0.061 S 
ENDROOT
BRANCH   1  13
ATOM      9  C   UNL     1      -1.204   1.362   0.048  0.00  0.00    +0.044 C 
ATOM     10  C   UNL     1      -0.873  -0.108   0.029  0.00  0.00    -0.050 A 
ATOM     11  C   UNL     1      -0.513  -0.718  -1.160  0.00  0.00    +0.004 A 
ATOM     12  C   UNL     1      -0.208  -2.062  -1.185  0.00  0.00    +0.008 A 
ATOM     13  C   UNL     1      -0.263  -2.810  -0.004  0.00  0.00    -0.024 A 
ATOM     14  C   UNL     1      -0.627  -2.186   1.195  0.00  0.00    +0.008 A 
ATOM     15  C   UNL     1      -0.924  -0.839   1.203  0.00  0.00    +0.004 A 
ENDBRANCH   1  13
BRANCH   5  16
ATOM     16  C   UNL     1       0.567  -8.200   2.929  0.00  0.00    +0.211 C 
BRANCH  16  17
ATOM     17  C   UNL     1       2.031  -8.556   2.965  0.00  0.00    +0.236 C 
ATOM     18  O   UNL     1       2.868  -7.703   2.764  0.00  0.00    -0.274 OA
ATOM     19  N   UNL     1       2.410  -9.824   3.221  0.00  0.00    -0.263 N 
ATOM     20  C   UNL     1       3.760 -10.153   3.254  0.00  0.00    +0.165 A 
ATOM     21  N   UNL     1       4.310 -11.327   3.480  0.00  0.00    -0.229 NA
ATOM     22  C   UNL     1       5.621 -11.477   3.478  0.00  0.00    +0.061 A 
ATOM     23  C   UNL     1       6.368 -10.372   3.233  0.00  0.00    +0.072 A 
ATOM     24  S   UNL     1       5.087  -9.149   3.007  0.00  0.00    -0.060 S 
ATOM     25  H   UNL     1       1.740 -10.507   3.382  0.00  0.00    +0.157 HD
BRANCH  22  26
ATOM     26  C   UNL     1       6.260 -12.817   3.736  0.00  0.00    +0.181 C 
BRANCH  26  27
ATOM     27  C   UNL     1       5.764 -13.366   5.049  0.00  0.00    +0.362 C 
ATOM     28  O   UNL     1       4.965 -12.727   5.713  0.00  0.00    -0.246 OA
ATOM     29  O   UNL     1       6.161 -14.448   5.447  0.00  0.00    -0.246 OA
ENDBRANCH  26  27
ENDBRANCH  22  26
ENDBRANCH  16  17
ENDBRANCH   5  16
TORSDOF 5
