REMARK  Name = ZINC37310130
REMARK  8 active torsions:
REMARK  status: ('A' for Active; 'I' for Inactive)
REMARK    1  A    between atoms: C_1  and  C_2
REMARK    2  A    between atoms: C_2  and  C_3
REMARK    3  A    between atoms: C_3  and  N_4
REMARK    4  A    between atoms: C_5  and  C_7
REMARK    5  A    between atoms: C_7  and  C_9
REMARK    6  A    between atoms: C_7  and  S_10
REMARK    7  A    between atoms: S_10  and  C_13
REMARK    8  A    between atoms: C_17  and  C_19
REMARK                            x       y       z     vdW  Elec       q    Type
REMARK                         _______ _______ _______ _____ _____    ______ ____
ROOT
ATOM      1  S   UNL     1      -4.144  -4.825   0.601  0.00  0.00    +0.008 S 
ATOM      2  O   UNL     1      -4.305  -4.521   1.980  0.00  0.00    -0.169 OA
ATOM      3  O   UNL     1      -5.171  -4.520  -0.333  0.00  0.00    -0.169 OA
ENDROOT
BRANCH   1   4
ATOM      4  C   UNL     1      -3.989  -6.579   0.542  0.00  0.00    +0.090 A 
ATOM      5  C   UNL     1      -4.343  -7.265  -0.607  0.00  0.00    +0.028 A 
ATOM      6  C   UNL     1      -4.225  -8.642  -0.663  0.00  0.00    +0.018 A 
ATOM      7  C   UNL     1      -3.751  -9.342   0.428  0.00  0.00    +0.032 A 
ATOM      8  C   UNL     1      -3.390  -8.655   1.591  0.00  0.00    +0.079 A 
ATOM      9  C   UNL     1      -3.508  -7.263   1.638  0.00  0.00    +0.043 A 
ATOM     10 BR   UNL     1      -3.591 -11.225   0.350  0.00  0.00    -0.049 Br
BRANCH   8  11
ATOM     11  C   UNL     1      -2.883  -9.396   2.762  0.00  0.00    +0.388 C 
ATOM     12  O   UNL     1      -2.569  -8.792   3.778  0.00  0.00    -0.241 OA
ATOM     13  O   UNL     1      -2.777 -10.613   2.716  0.00  0.00    -0.241 OA
ENDBRANCH   8  11
ENDBRANCH   1   4
BRANCH   1  14
ATOM     14  C   UNL     1      -2.551  -4.195   0.004  0.00  0.00    +0.218 C 
ATOM     15  C   UNL     1      -2.307  -4.694  -1.422  0.00  0.00    +0.042 C 
BRANCH  14  17
ATOM     16  N   UNL     1      -1.413  -1.998   0.005  0.00  0.00    -0.314 N 
ATOM     17  C   UNL     1      -2.571  -2.688   0.012  0.00  0.00    +0.237 C 
ATOM     18  O   UNL     1      -3.630  -2.096   0.025  0.00  0.00    -0.274 OA
ATOM     19  H   UNL     1      -0.567  -2.472  -0.006  0.00  0.00    +0.149 HD
BRANCH  16  20
ATOM     20  C   UNL     1      -1.433  -0.534   0.013  0.00  0.00    +0.104 C 
BRANCH  20  22
ATOM     21  C   UNL     1      -0.019   1.526   0.010  0.00  0.00    +0.005 C 
ATOM     22  C   UNL     1       0.002  -0.004   0.002  0.00  0.00    +0.015 C 
ENDBRANCH  20  22
ENDBRANCH  16  20
ENDBRANCH  14  17
ENDBRANCH   1  14
TORSDOF 6
