REMARK  Name = ZINC65985370
REMARK  5 active torsions:
REMARK  status: ('A' for Active; 'I' for Inactive)
REMARK    1  A    between atoms: C_1  and  C_2
REMARK    2  A    between atoms: C_2  and  C_3
REMARK    3  A    between atoms: C_2  and  N_10
REMARK    4  A    between atoms: C_16  and  N_19
REMARK    5  A    between atoms: C_20  and  C_22
REMARK                            x       y       z     vdW  Elec       q    Type
REMARK                         _______ _______ _______ _____ _____    ______ ____
ROOT
ATOM      1  N   UNL     1       2.743  -0.262  -0.118  0.00  0.00    -0.293 N 
ATOM      2  C   UNL     1       2.031  -0.587  -1.215  0.00  0.00    +0.303 C 
ATOM      3  O   UNL     1       0.816  -0.575  -1.176  0.00  0.00    -0.253 OA
ATOM      4  N   UNL     1       2.666  -0.925  -2.355  0.00  0.00    -0.286 N 
ATOM      5  C   UNL     1       1.908  -1.168  -3.590  0.00  0.00    +0.111 C 
ATOM      6  C   UNL     1       2.483  -0.287  -4.703  0.00  0.00    +0.041 C 
ATOM      7  C   UNL     1       3.986  -0.545  -4.827  0.00  0.00    +0.076 C 
ATOM      8  C   UNL     1       4.679  -0.176  -3.513  0.00  0.00    +0.041 C 
ATOM      9  C   UNL     1       4.129  -1.050  -2.388  0.00  0.00    +0.111 C 
ATOM     10  H   UNL     1       3.710  -0.342  -0.126  0.00  0.00    +0.151 HD
ENDROOT
BRANCH   7  11
ATOM     11  N   UNL     1       4.533   0.272  -5.913  0.00  0.00    -0.312 N 
ATOM     12  C   UNL     1       5.659  -0.115  -6.546  0.00  0.00    +0.216 C 
ATOM     13  O   UNL     1       6.218  -1.139  -6.217  0.00  0.00    -0.276 OA
ATOM     14  H   UNL     1       4.086   1.091  -6.177  0.00  0.00    +0.149 HD
BRANCH  12  15
ATOM     15  C   UNL     1       6.221   0.725  -7.664  0.00  0.00    +0.075 C 
ATOM     16  C   UNL     1       5.188   0.841  -8.785  0.00  0.00    +0.013 C 
ATOM     17  C   UNL     1       5.759   1.694  -9.920  0.00  0.00    +0.001 C 
ATOM     18  C   UNL     1       7.029   1.036 -10.463  0.00  0.00    +0.000 C 
ATOM     19  C   UNL     1       8.063   0.920  -9.341  0.00  0.00    +0.001 C 
ATOM     20  C   UNL     1       7.492   0.067  -8.207  0.00  0.00    +0.013 C 
ENDBRANCH  12  15
ENDBRANCH   7  11
BRANCH   1  22
ATOM     21  C   UNL     1       1.600  -0.988   1.919  0.00  0.00    +0.033 C 
ATOM     22  C   UNL     1       2.058   0.212   1.087  0.00  0.00    +0.102 C 
BRANCH  22  23
ATOM     23  C   UNL     1       3.002   1.058   1.902  0.00  0.00    -0.027 A 
ATOM     24  C   UNL     1       4.328   0.689   2.026  0.00  0.00    +0.008 A 
ATOM     25  C   UNL     1       5.194   1.464   2.773  0.00  0.00    +0.038 A 
ATOM     26  C   UNL     1       4.734   2.611   3.397  0.00  0.00    +0.123 A 
ATOM     27  C   UNL     1       3.405   2.979   3.272  0.00  0.00    +0.038 A 
ATOM     28  C   UNL     1       2.541   2.205   2.521  0.00  0.00    +0.008 A 
ATOM     29  F   UNL     1       5.580   3.369   4.128  0.00  0.00    -0.205 F 
ENDBRANCH  22  23
ENDBRANCH   1  22
TORSDOF 4
