REMARK  Name = ZINC03323098
REMARK  7 active torsions:
REMARK  status: ('A' for Active; 'I' for Inactive)
REMARK    1  A    between atoms: C_1  and  C_2
REMARK    2  A    between atoms: C_2  and  C_4
REMARK    3  A    between atoms: C_2  and  N_48
REMARK    4  A    between atoms: C_16  and  C_17
REMARK    5  A    between atoms: C_16  and  N_48
REMARK    6  A    between atoms: C_20  and  S_23
REMARK    7  A    between atoms: S_23  and  N_26
REMARK                            x       y       z     vdW  Elec       q    Type
REMARK                         _______ _______ _______ _____ _____    ______ ____
ROOT
ATOM      1  N   UNL     1       0.102   0.809  -0.192  0.00  0.00    +0.389 N 
ATOM      2  H   UNL     1      -0.459   0.832   0.667  0.00  0.00    -0.084 HD
ATOM      3  H   UNL     1       0.333  -0.164  -0.424  0.00  0.00    -0.084 HD
ENDROOT
BRANCH   1   5
ATOM      4  C   UNL     1       1.072   2.758   0.940  0.00  0.00    -0.004 C 
ATOM      5  C   UNL     1       1.350   1.567   0.022  0.00  0.00    +0.014 C 
BRANCH   5   6
ATOM      6  C   UNL     1       2.372   0.665   0.664  0.00  0.00    +0.206 C 
ATOM      7  O   UNL     1       2.017  -0.341   1.241  0.00  0.00    -0.277 OA
ATOM      8  N   UNL     1       3.682   0.976   0.598  0.00  0.00    -0.272 N 
ATOM      9  C   UNL     1       4.121   2.229  -0.032  0.00  0.00    +0.114 C 
ATOM     10  C   UNL     1       5.318   1.912  -0.931  0.00  0.00    +0.024 C 
ATOM     11  C   UNL     1       6.466   1.394  -0.066  0.00  0.00    +0.038 C 
ATOM     12  C   UNL     1       5.992   0.276   0.825  0.00  0.00    -0.026 A 
ATOM     13  C   UNL     1       4.648   0.108   1.123  0.00  0.00    +0.039 A 
ATOM     14  C   UNL     1       4.245  -0.932   1.953  0.00  0.00    +0.024 A 
ATOM     15  C   UNL     1       5.181  -1.800   2.479  0.00  0.00    +0.002 A 
ATOM     16  C   UNL     1       6.521  -1.633   2.179  0.00  0.00    +0.000 A 
ATOM     17  C   UNL     1       6.924  -0.600   1.355  0.00  0.00    +0.005 A 
ENDBRANCH   5   6
ENDBRANCH   1   5
BRANCH   1  18
ATOM     18  C   UNL     1      -0.674   1.402  -1.297  0.00  0.00    -0.046 C 
BRANCH  18  19
ATOM     19  C   UNL     1      -1.941   0.609  -1.492  0.00  0.00    -0.064 A 
ATOM     20  C   UNL     1      -1.957  -0.463  -2.365  0.00  0.00    +0.003 A 
ATOM     21  C   UNL     1      -3.118  -1.193  -2.541  0.00  0.00    +0.029 A 
ATOM     22  C   UNL     1      -4.264  -0.846  -1.850  0.00  0.00    +0.105 A 
ATOM     23  C   UNL     1      -4.249   0.229  -0.981  0.00  0.00    +0.029 A 
ATOM     24  C   UNL     1      -3.087   0.956  -0.802  0.00  0.00    +0.003 A 
BRANCH  22  25
ATOM     25  S   UNL     1      -5.744  -1.774  -2.078  0.00  0.00    +0.056 S 
ATOM     26  O   UNL     1      -5.351  -3.062  -2.530  0.00  0.00    -0.153 OA
ATOM     27  O   UNL     1      -6.527  -1.584  -0.907  0.00  0.00    -0.153 OA
BRANCH  25  28
ATOM     28  N   UNL     1      -6.578  -1.070  -3.323  0.00  0.00    -0.204 NA
ATOM     29  H   UNL     1      -6.214  -0.289  -3.770  0.00  0.00    +0.144 HD
ATOM     30  H   UNL     1      -7.430  -1.437  -3.606  0.00  0.00    +0.144 HD
ENDBRANCH  25  28
ENDBRANCH  22  25
ENDBRANCH  18  19
ENDBRANCH   1  18
TORSDOF 6
