REMARK  Name = ZINC09729968
REMARK  5 active torsions:
REMARK  status: ('A' for Active; 'I' for Inactive)
REMARK    1  A    between atoms: C_4  and  C_7
REMARK    2  A    between atoms: C_18  and  C_20
REMARK    3  A    between atoms: C_20  and  N_21
REMARK    4  A    between atoms: C_24  and  C_29
REMARK    5  A    between atoms: C_29  and  C_30
REMARK                            x       y       z     vdW  Elec       q    Type
REMARK                         _______ _______ _______ _____ _____    ______ ____
ROOT
ATOM      1  C   UNL     1      -1.169  -1.038   0.493  0.00  0.00    +0.214 C 
ENDROOT
BRANCH   1  12
ATOM      2  C   UNL     1      -1.161   1.785   0.001  0.00  0.00    +0.149 C 
ATOM      3  C   UNL     1      -1.203   2.730  -1.208  0.00  0.00    +0.256 C 
ATOM      4  O   UNL     1      -2.336   3.588  -1.089  0.00  0.00    -0.488 OA
ATOM      5  C   UNL     1      -3.539   3.020  -0.810  0.00  0.00    +0.142 A 
ATOM      6  C   UNL     1      -4.707   3.717  -1.078  0.00  0.00    +0.047 A 
ATOM      7  C   UNL     1      -5.934   3.150  -0.789  0.00  0.00    +0.004 A 
ATOM      8  C   UNL     1      -6.004   1.887  -0.232  0.00  0.00    +0.002 A 
ATOM      9  C   UNL     1      -4.845   1.183   0.038  0.00  0.00    +0.027 A 
ATOM     10  C   UNL     1      -3.612   1.749  -0.246  0.00  0.00    +0.079 A 
ATOM     11  N   UNL     1      -2.431   1.038   0.026  0.00  0.00    -0.256 N 
ATOM     12  C   UNL     1      -2.458  -0.282   0.299  0.00  0.00    +0.238 C 
ATOM     13  O   UNL     1      -3.521  -0.860   0.389  0.00  0.00    -0.273 OA
BRANCH   2  17
ATOM     14  C   UNL     1      -0.739   4.046   3.600  0.00  0.00    +0.000 A 
ATOM     15  C   UNL     1       0.357   3.403   3.055  0.00  0.00    +0.000 A 
ATOM     16  C   UNL     1       0.220   2.672   1.890  0.00  0.00    +0.005 A 
ATOM     17  C   UNL     1      -1.012   2.582   1.271  0.00  0.00    -0.023 A 
ATOM     18  C   UNL     1      -2.107   3.229   1.813  0.00  0.00    +0.005 A 
ATOM     19  C   UNL     1      -1.971   3.957   2.981  0.00  0.00    +0.000 A 
ENDBRANCH   2  17
ENDBRANCH   1  12
BRANCH   1  20
ATOM     20  N   UNL     1      -1.460  -2.464   0.659  0.00  0.00    -0.216 N 
ATOM     21  C   UNL     1      -1.530  -3.346  -0.358  0.00  0.00    +0.244 C 
ATOM     22  O   UNL     1      -1.371  -3.117  -1.538  0.00  0.00    -0.273 OA
ATOM     23  C   UNL     1      -1.849  -4.683   0.280  0.00  0.00    +0.165 C 
ATOM     24  N   UNL     1      -1.930  -4.371   1.717  0.00  0.00    -0.287 N 
ATOM     25  C   UNL     1      -1.684  -3.054   1.839  0.00  0.00    +0.310 C 
ATOM     26  O   UNL     1      -1.670  -2.464   2.902  0.00  0.00    -0.252 OA
ATOM     27  H   UNL     1      -2.120  -4.994   2.436  0.00  0.00    +0.151 HD
BRANCH  23  28
ATOM     28  C   UNL     1      -3.189  -5.217  -0.231  0.00  0.00    +0.069 C 
BRANCH  28  29
ATOM     29  C   UNL     1      -3.423  -6.599   0.323  0.00  0.00    -0.020 A 
ATOM     30  C   UNL     1      -3.134  -7.762  -0.282  0.00  0.00    +0.087 A 
ATOM     31  N   UNL     1      -3.487  -8.809   0.525  0.00  0.00    -0.360 N 
ATOM     32  H   UNL     1      -3.374  -9.746   0.303  0.00  0.00    +0.165 HD
ATOM     33  C   UNL     1      -4.026  -8.333   1.700  0.00  0.00    +0.047 A 
ATOM     34  C   UNL     1      -4.004  -6.928   1.627  0.00  0.00    +0.003 A 
ATOM     35  C   UNL     1      -4.501  -6.168   2.688  0.00  0.00    +0.010 A 
ATOM     36  C   UNL     1      -4.996  -6.794   3.797  0.00  0.00    +0.001 A 
ATOM     37  C   UNL     1      -5.014  -8.180   3.876  0.00  0.00    +0.002 A 
ATOM     38  C   UNL     1      -4.534  -8.949   2.838  0.00  0.00    +0.026 A 
ENDBRANCH  28  29
ENDBRANCH  23  28
ENDBRANCH   1  20
TORSDOF 5
