REMARK  Name = ZINC65479322
REMARK  10 active torsions:
REMARK  status: ('A' for Active; 'I' for Inactive)
REMARK    1  A    between atoms: C_1  and  N_2
REMARK    2  A    between atoms: N_2  and  C_3
REMARK    3  A    between atoms: N_2  and  C_4
REMARK    4  A    between atoms: C_4  and  C_5
REMARK    5  A    between atoms: C_5  and  C_7
REMARK    6  A    between atoms: C_5  and  C_23
REMARK    7  A    between atoms: C_7  and  N_8
REMARK    8  A    between atoms: N_11  and  C_12
REMARK    9  A    between atoms: C_23  and  C_25
REMARK   10  A    between atoms: C_23  and  O_31
REMARK                            x       y       z     vdW  Elec       q    Type
REMARK                         _______ _______ _______ _____ _____    ______ ____
ROOT
ATOM      1  N   UNL     1       2.373  -0.300   1.197  0.00  0.00    -0.299 N 
ATOM      2  C   UNL     1       2.853  -0.915   2.296  0.00  0.00    +0.304 C 
ATOM      3  O   UNL     1       3.830  -1.635   2.212  0.00  0.00    -0.253 OA
ATOM      4  N   UNL     1       2.251  -0.733   3.488  0.00  0.00    -0.268 N 
ATOM      5  H   UNL     1       1.594   0.274   1.264  0.00  0.00    +0.150 HD
ATOM      6  H   UNL     1       1.424  -0.229   3.541  0.00  0.00    +0.156 HD
ENDROOT
BRANCH   4   7
ATOM      7  C   UNL     1       2.820  -1.272   4.650  0.00  0.00    +0.057 A 
ATOM      8  C   UNL     1       4.197  -1.403   4.753  0.00  0.00    +0.074 A 
ATOM      9  C   UNL     1       4.760  -1.935   5.903  0.00  0.00    +0.164 A 
ATOM     10  C   UNL     1       3.942  -2.336   6.953  0.00  0.00    +0.164 A 
ATOM     11  C   UNL     1       2.565  -2.206   6.847  0.00  0.00    +0.071 A 
ATOM     12  C   UNL     1       2.005  -1.671   5.702  0.00  0.00    +0.066 A 
ATOM     13 CL   UNL     1       0.281  -1.502   5.577  0.00  0.00    -0.081 Cl
ATOM     14  O   UNL     1       4.477  -2.854   8.093  0.00  0.00    -0.485 OA
ATOM     15  C   UNL     1       5.830  -3.315   8.018  0.00  0.00    +0.270 C 
ATOM     16  C   UNL     1       6.662  -2.247   7.295  0.00  0.00    +0.270 C 
ATOM     17  O   UNL     1       6.113  -2.060   5.987  0.00  0.00    -0.485 OA
ENDBRANCH   4   7
BRANCH   1  18
ATOM     18  C   UNL     1       3.028  -0.498  -0.098  0.00  0.00    +0.110 C 
BRANCH  18  19
ATOM     19  C   UNL     1       2.189   0.154  -1.199  0.00  0.00    +0.023 C 
BRANCH  19  20
ATOM     20  C   UNL     1       0.898  -0.643  -1.396  0.00  0.00    -0.072 C 
BRANCH  20  22
ATOM     21  C   UNL     1      -0.328   0.839   0.038  0.00  0.00    -0.097 C 
ATOM     22  N   UNL     1       0.078  -0.556  -0.179  0.00  0.00    +0.376 N 
ATOM     23  C   UNL     1      -1.117  -1.396  -0.333  0.00  0.00    -0.097 C 
ATOM     24  H   UNL     1       0.616  -0.877   0.612  0.00  0.00    -0.083 HD
ENDBRANCH  20  22
ENDBRANCH  19  20
BRANCH  19  25
ATOM     25  C   UNL     1       2.984   0.168  -2.506  0.00  0.00    +0.147 C 
BRANCH  25  26
ATOM     26  C   UNL     1       2.208   0.918  -3.558  0.00  0.00    -0.019 A 
ATOM     27  C   UNL     1       1.172   0.295  -4.229  0.00  0.00    +0.006 A 
ATOM     28  C   UNL     1       0.461   0.983  -5.194  0.00  0.00    +0.000 A 
ATOM     29  C   UNL     1       0.785   2.295  -5.487  0.00  0.00    +0.000 A 
ATOM     30  C   UNL     1       1.820   2.918  -4.816  0.00  0.00    +0.000 A 
ATOM     31  C   UNL     1       2.529   2.231  -3.848  0.00  0.00    +0.006 A 
ENDBRANCH  25  26
BRANCH  25  32
ATOM     32  O   UNL     1       3.204  -1.175  -2.944  0.00  0.00    -0.387 OA
ATOM     33  H   UNL     1       2.392  -1.673  -3.109  0.00  0.00    +0.210 HD
ENDBRANCH  25  32
ENDBRANCH  19  25
ENDBRANCH  18  19
ENDBRANCH   1  18
TORSDOF 8
