REMARK  Name = ZINC45334512
REMARK  17 active torsions:
REMARK  status: ('A' for Active; 'I' for Inactive)
REMARK    1  A    between atoms: C_1  and  C_2
REMARK    2  A    between atoms: C_2  and  C_3
REMARK    3  A    between atoms: C_2  and  C_4
REMARK    4  A    between atoms: C_2  and  C_20
REMARK    5  A    between atoms: C_4  and  N_5
REMARK    6  A    between atoms: N_5  and  C_6
REMARK    7  A    between atoms: C_6  and  C_7
REMARK    8  A    between atoms: C_10  and  O_13
REMARK    9  A    between atoms: O_13  and  C_14
REMARK   10  A    between atoms: C_14  and  C_15
REMARK   11  A    between atoms: C_15  and  C_16
REMARK   12  A    between atoms: C_16  and  N_17
REMARK   13  A    between atoms: N_17  and  C_18
REMARK   14  A    between atoms: N_17  and  C_19
REMARK   15  A    between atoms: C_23  and  C_34
REMARK   16  A    between atoms: C_24  and  C_26
REMARK   17  A    between atoms: C_30  and  O_32
REMARK                            x       y       z     vdW  Elec       q    Type
REMARK                         _______ _______ _______ _____ _____    ______ ____
ROOT
ATOM      1  C   UNL     1      -0.201   1.696  -0.319  0.00  0.00    +0.017 C 
ATOM      2  C   UNL     1      -0.130   0.175  -0.161  0.00  0.00    +0.008 C 
ATOM      3  C   UNL     1       0.565  -0.168   1.158  0.00  0.00    +0.017 C 
ENDROOT
BRANCH   2   4
ATOM      4  C   UNL     1       0.651  -0.413  -1.308  0.00  0.00    +0.112 A 
ATOM      5  N   UNL     1       1.820   0.068  -1.782  0.00  0.00    -0.341 N 
ATOM      6  H   UNL     1       2.300   0.842  -1.449  0.00  0.00    +0.167 HD
ATOM      7  C   UNL     1       2.206  -0.744  -2.824  0.00  0.00    +0.074 A 
ATOM      8  C   UNL     1       1.224  -1.712  -2.942  0.00  0.00    +0.097 A 
ATOM      9  N   UNL     1       0.303  -1.468  -1.991  0.00  0.00    -0.231 NA
BRANCH   8  10
ATOM     10  C   UNL     1       1.195  -2.817  -3.928  0.00  0.00    +0.006 A 
ATOM     11  C   UNL     1       2.360  -3.527  -4.218  0.00  0.00    +0.012 A 
ATOM     12  C   UNL     1       2.330  -4.556  -5.137  0.00  0.00    +0.024 A 
ATOM     13  C   UNL     1       1.147  -4.886  -5.774  0.00  0.00    +0.082 A 
ATOM     14  C   UNL     1      -0.018  -4.184  -5.491  0.00  0.00    +0.136 A 
ATOM     15  C   UNL     1       0.002  -3.154  -4.565  0.00  0.00    +0.057 A 
ATOM     16 CL   UNL     1       1.118  -6.181  -6.929  0.00  0.00    -0.080 Cl
BRANCH  14  17
ATOM     17  O   UNL     1      -1.178  -4.511  -6.118  0.00  0.00    -0.505 OA
ATOM     18  H   UNL     1      -1.702  -5.178  -5.654  0.00  0.00    +0.292 HD
ENDBRANCH  14  17
ENDBRANCH   8  10
BRANCH   7  19
ATOM     19  C   UNL     1       3.421  -0.610  -3.650  0.00  0.00    +0.003 A 
ATOM     20  C   UNL     1       3.354  -0.681  -5.048  0.00  0.00    +0.030 A 
ATOM     21  C   UNL     1       4.514  -0.550  -5.780  0.00  0.00    +0.111 A 
ATOM     22  N   UNL     1       5.675  -0.360  -5.182  0.00  0.00    -0.263 NA
ATOM     23  C   UNL     1       5.784  -0.287  -3.869  0.00  0.00    +0.111 A 
ATOM     24  C   UNL     1       4.674  -0.401  -3.059  0.00  0.00    +0.030 A 
ENDBRANCH   7  19
ENDBRANCH   2   4
BRANCH   2  25
ATOM     25  C   UNL     1      -1.546  -0.404  -0.157  0.00  0.00    -0.068 C 
BRANCH  25  26
ATOM     26  N   UNL     1      -2.307   0.170   0.961  0.00  0.00    +0.382 N 
ATOM     27  H   UNL     1      -1.848  -0.057   1.831  0.00  0.00    -0.085 HD
ATOM     28  H   UNL     1      -2.353   1.172   0.856  0.00  0.00    -0.085 HD
BRANCH  26  29
ATOM     29  C   UNL     1      -3.666  -0.386   0.964  0.00  0.00    -0.047 C 
BRANCH  29  30
ATOM     30  C   UNL     1      -4.447   0.202   2.111  0.00  0.00    -0.064 A 
ATOM     31  C   UNL     1      -4.432  -0.419   3.346  0.00  0.00    +0.005 A 
ATOM     32  C   UNL     1      -5.147   0.119   4.399  0.00  0.00    +0.046 A 
ATOM     33  C   UNL     1      -5.880   1.282   4.216  0.00  0.00    +0.121 A 
ATOM     34  C   UNL     1      -5.893   1.904   2.976  0.00  0.00    +0.046 A 
ATOM     35  C   UNL     1      -5.171   1.365   1.928  0.00  0.00    +0.005 A 
BRANCH  33  36
ATOM     36  O   UNL     1      -6.585   1.813   5.251  0.00  0.00    -0.492 OA
BRANCH  36  37
ATOM     37  C   UNL     1      -7.316   3.012   4.990  0.00  0.00    +0.227 C 
BRANCH  37  38
ATOM     38  C   UNL     1      -8.040   3.455   6.263  0.00  0.00    +0.022 C 
BRANCH  38  39
ATOM     39  C   UNL     1      -8.823   4.740   5.983  0.00  0.00    -0.076 C 
BRANCH  39  40
ATOM     40  N   UNL     1      -9.518   5.165   7.206  0.00  0.00    +0.376 N 
ATOM     41  C   UNL     1      -8.530   5.527   8.230  0.00  0.00    -0.097 C 
ATOM     42  C   UNL     1     -10.364   6.328   6.908  0.00  0.00    -0.097 C 
ATOM     43  H   UNL     1     -10.094   4.409   7.545  0.00  0.00    -0.083 HD
ENDBRANCH  39  40
ENDBRANCH  38  39
ENDBRANCH  37  38
ENDBRANCH  36  37
ENDBRANCH  33  36
ENDBRANCH  29  30
ENDBRANCH  26  29
ENDBRANCH  25  26
ENDBRANCH   2  25
TORSDOF 13
