REMARK  Name = ZINC09543088
REMARK  10 active torsions:
REMARK  status: ('A' for Active; 'I' for Inactive)
REMARK    1  A    between atoms: C_1  and  C_2
REMARK    2  A    between atoms: C_2  and  O_3
REMARK    3  A    between atoms: O_3  and  C_4
REMARK    4  A    between atoms: C_9  and  C_10
REMARK    5  A    between atoms: C_12  and  C_24
REMARK    6  A    between atoms: C_15  and  C_17
REMARK    7  A    between atoms: C_28  and  O_31
REMARK    8  A    between atoms: C_29  and  O_30
REMARK    9  A    between atoms: O_31  and  C_32
REMARK   10  A    between atoms: C_32  and  C_33
REMARK                            x       y       z     vdW  Elec       q    Type
REMARK                         _______ _______ _______ _____ _____    ______ ____
ROOT
ATOM      1  C   UNL     1      -2.334  -2.854  -0.631  0.00  0.00    +0.084 C 
ATOM      2  C   UNL     1      -1.293  -0.775   0.011  0.00  0.00    -0.028 C 
ATOM      3  C   UNL     1      -1.835  -0.859   1.441  0.00  0.00    +0.044 C 
ATOM      4  C   UNL     1      -2.936  -1.881   1.501  0.00  0.00    +0.040 C 
ATOM      5  N   UNL     1      -3.135  -2.749   0.582  0.00  0.00    -0.298 NA
ATOM      6  N   UNL     1      -1.053  -2.148  -0.474  0.00  0.00    +0.401 N 
ATOM      7  H   UNL     1      -0.572  -2.111  -1.380  0.00  0.00    -0.081 HD
ATOM      8  H   UNL     1      -0.468  -2.652   0.203  0.00  0.00    -0.081 HD
ENDROOT
BRANCH   4   9
ATOM      9  C   UNL     1      -3.832  -1.881   2.674  0.00  0.00    -0.004 A 
ATOM     10  C   UNL     1      -3.644  -0.952   3.700  0.00  0.00    +0.011 A 
ATOM     11  C   UNL     1      -4.488  -0.954   4.790  0.00  0.00    +0.016 A 
ATOM     12  C   UNL     1      -5.512  -1.882   4.876  0.00  0.00    +0.018 A 
ATOM     13  C   UNL     1      -5.700  -2.809   3.864  0.00  0.00    +0.016 A 
ATOM     14  C   UNL     1      -4.867  -2.814   2.765  0.00  0.00    +0.011 A 
ATOM     15 BR   UNL     1      -6.659  -1.883   6.379  0.00  0.00    -0.050 Br
ENDBRANCH   4   9
BRANCH   1  21
ATOM     16  C   UNL     1      -4.479  -2.352  -1.829  0.00  0.00    +0.124 A 
ATOM     17  C   UNL     1      -5.178  -1.795  -2.890  0.00  0.00    +0.046 A 
ATOM     18  C   UNL     1      -4.497  -1.141  -3.897  0.00  0.00    +0.004 A 
ATOM     19  C   UNL     1      -3.118  -1.040  -3.849  0.00  0.00    +0.000 A 
ATOM     20  C   UNL     1      -2.420  -1.590  -2.790  0.00  0.00    +0.007 A 
ATOM     21  C   UNL     1      -3.097  -2.250  -1.783  0.00  0.00    +0.001 A 
BRANCH  16  22
ATOM     22  O   UNL     1      -5.148  -2.996  -0.837  0.00  0.00    -0.492 OA
BRANCH  22  24
ATOM     23  C   UNL     1      -7.143  -3.819   0.250  0.00  0.00    +0.048 C 
ATOM     24  C   UNL     1      -6.571  -3.062  -0.950  0.00  0.00    +0.225 C 
ENDBRANCH  22  24
ENDBRANCH  16  22
ENDBRANCH   1  21
BRANCH   2  25
ATOM     25  C   UNL     1       0.002  -0.004   0.002  0.00  0.00    -0.016 A 
ATOM     26  C   UNL     1       1.209  -0.679  -0.013  0.00  0.00    +0.006 A 
ATOM     27  C   UNL     1       2.398   0.025  -0.021  0.00  0.00    +0.004 A 
ATOM     28  C   UNL     1       2.386   1.408  -0.014  0.00  0.00    +0.049 A 
ATOM     29  C   UNL     1       1.181   2.090   0.002  0.00  0.00    +0.162 A 
ATOM     30  C   UNL     1      -0.017   1.381   0.010  0.00  0.00    +0.160 A 
BRANCH  30  31
ATOM     31  O   UNL     1      -1.203   2.046   0.019  0.00  0.00    -0.503 OA
ATOM     32  H   UNL     1      -1.542   2.234   0.905  0.00  0.00    +0.292 HD
ENDBRANCH  30  31
BRANCH  29  33
ATOM     33  O   UNL     1       1.168   3.450   0.009  0.00  0.00    -0.489 OA
BRANCH  33  34
ATOM     34  C   UNL     1       2.434   4.111   0.001  0.00  0.00    +0.226 C 
ATOM     35  C   UNL     1       2.219   5.626   0.010  0.00  0.00    +0.048 C 
ENDBRANCH  33  34
ENDBRANCH  29  33
ENDBRANCH   2  25
TORSDOF 8
