REMARK  Name = ZINC46578698
REMARK  10 active torsions:
REMARK  status: ('A' for Active; 'I' for Inactive)
REMARK    1  A    between atoms: C_1  and  C_2
REMARK    2  A    between atoms: C_2  and  C_3
REMARK    3  A    between atoms: C_3  and  C_5
REMARK    4  A    between atoms: C_3  and  N_18
REMARK    5  A    between atoms: C_5  and  N_6
REMARK    6  A    between atoms: C_7  and  C_9
REMARK    7  A    between atoms: C_9  and  C_11
REMARK    8  A    between atoms: C_9  and  N_14
REMARK    9  A    between atoms: C_11  and  C_12
REMARK   10  A    between atoms: C_11  and  C_13
REMARK                            x       y       z     vdW  Elec       q    Type
REMARK                         _______ _______ _______ _____ _____    ______ ____
ROOT
ATOM      1  C   UNL     1       0.599  -2.013  -1.226  0.00  0.00    +0.089 C 
ENDROOT
BRANCH   1   2
ATOM      2  N   UNL     1       1.138  -2.534  -2.484  0.00  0.00    -0.315 N 
ATOM      3  C   UNL     1       1.211  -3.865  -2.686  0.00  0.00    +0.234 C 
ATOM      4  O   UNL     1       0.749  -4.629  -1.865  0.00  0.00    -0.274 OA
ATOM      5  H   UNL     1       1.442  -1.922  -3.172  0.00  0.00    +0.149 HD
BRANCH   3   6
ATOM      6  C   UNL     1       1.867  -4.403  -3.931  0.00  0.00    +0.163 C 
BRANCH   6   7
ATOM      7  N   UNL     1       1.310  -5.721  -4.246  0.00  0.00    -0.288 N 
ATOM      8  C   UNL     1       1.336  -6.178  -5.514  0.00  0.00    +0.298 C 
ATOM      9  O   UNL     1       1.822  -5.496  -6.396  0.00  0.00    -0.253 OA
ATOM     10  N   UNL     1       0.823  -7.390  -5.804  0.00  0.00    -0.313 N 
ATOM     11  H   UNL     1       0.922  -6.264  -3.542  0.00  0.00    +0.151 HD
ATOM     12  H   UNL     1       0.435  -7.933  -5.100  0.00  0.00    +0.146 HD
ATOM     13  H   UNL     1       0.842  -7.718  -6.716  0.00  0.00    +0.146 HD
ENDBRANCH   6   7
BRANCH   6  14
ATOM     14  C   UNL     1       3.374  -4.529  -3.699  0.00  0.00    +0.012 C 
ATOM     15  C   UNL     1       4.056  -4.964  -4.998  0.00  0.00    +0.009 C 
ATOM     16  C   UNL     1       3.937  -3.177  -3.255  0.00  0.00    +0.009 C 
ENDBRANCH   6  14
ENDBRANCH   3   6
ENDBRANCH   1   2
BRANCH   1  17
ATOM     17  C   UNL     1       0.489  -0.489  -1.310  0.00  0.00    -0.051 C 
BRANCH  17  18
ATOM     18  N   UNL     1      -0.646  -0.127  -2.170  0.00  0.00    +0.385 N 
ATOM     19  C   UNL     1      -1.859  -0.814  -1.700  0.00  0.00    -0.073 C 
ATOM     20  C   UNL     1      -3.071  -0.198  -2.400  0.00  0.00    +0.017 C 
ATOM     21  C   UNL     1      -2.837  -0.164  -3.889  0.00  0.00    -0.048 A 
ATOM     22  C   UNL     1      -3.923   0.029  -4.728  0.00  0.00    +0.004 A 
ATOM     23  C   UNL     1      -3.747   0.070  -6.097  0.00  0.00    +0.000 A 
ATOM     24  C   UNL     1      -2.482  -0.082  -6.632  0.00  0.00    +0.000 A 
ATOM     25  C   UNL     1      -1.400  -0.276  -5.797  0.00  0.00    +0.002 A 
ATOM     26  C   UNL     1      -1.575  -0.318  -4.422  0.00  0.00    -0.061 A 
ATOM     27  C   UNL     1      -0.368  -0.540  -3.549  0.00  0.00    -0.042 C 
ATOM     28  H   UNL     1      -0.789   0.872  -2.139  0.00  0.00    -0.081 HD
ENDBRANCH  17  18
BRANCH  17  30
ATOM     29  C   UNL     1       0.239   1.613   0.016  0.00  0.00    +0.002 C 
ATOM     30  C   UNL     1       0.270   0.086   0.091  0.00  0.00    -0.017 C 
ENDBRANCH  17  30
ENDBRANCH   1  17
TORSDOF 7
