REMARK  Name = ZINC23293780
REMARK  6 active torsions:
REMARK  status: ('A' for Active; 'I' for Inactive)
REMARK    1  A    between atoms: C_1  and  C_2
REMARK    2  A    between atoms: C_2  and  C_25
REMARK    3  A    between atoms: N_5  and  C_9
REMARK    4  A    between atoms: C_9  and  C_10
REMARK    5  A    between atoms: N_12  and  C_13
REMARK    6  A    between atoms: N_12  and  C_14
REMARK                            x       y       z     vdW  Elec       q    Type
REMARK                         _______ _______ _______ _____ _____    ______ ____
ROOT
ATOM      1  C   UNL     1       8.971  -0.882  -0.160  0.00  0.00    +0.047 C 
ATOM      2  C   UNL     1       8.140   0.238   0.468  0.00  0.00    +0.135 C 
ATOM      3  C   UNL     1       6.760   0.293  -0.155  0.00  0.00    +0.251 C 
ATOM      4  O   UNL     1       5.916  -0.577  -0.143  0.00  0.00    -0.272 OA
ATOM      5  N   UNL     1       6.666   1.511  -0.726  0.00  0.00    -0.215 N 
ATOM      6  C   UNL     1       7.786   2.223  -0.555  0.00  0.00    +0.310 C 
ATOM      7  O   UNL     1       7.942   3.350  -0.983  0.00  0.00    -0.252 OA
ATOM      8  N   UNL     1       8.719   1.554   0.147  0.00  0.00    -0.281 N 
ATOM      9  H   UNL     1       9.735   1.806   0.484  0.00  0.00    +0.152 HD
ENDROOT
BRANCH   2  10
ATOM     10  C   UNL     1       8.041   0.049   1.960  0.00  0.00    -0.012 A 
ATOM     11  C   UNL     1       6.970  -0.640   2.497  0.00  0.00    +0.010 A 
ATOM     12  C   UNL     1       6.872  -0.818   3.866  0.00  0.00    +0.050 A 
ATOM     13  C   UNL     1       7.851  -0.301   4.697  0.00  0.00    +0.162 A 
ATOM     14  C   UNL     1       8.926   0.391   4.158  0.00  0.00    +0.162 A 
ATOM     15  C   UNL     1       9.025   0.561   2.787  0.00  0.00    +0.055 A 
ATOM     16  O   UNL     1       9.886   0.896   4.985  0.00  0.00    -0.488 OA
ATOM     17  C   UNL     1      10.705  -0.066   5.653  0.00  0.00    +0.232 C 
ATOM     18  C   UNL     1      10.029  -0.560   6.923  0.00  0.00    +0.082 C 
ATOM     19  C   UNL     1       8.747  -1.325   6.636  0.00  0.00    +0.232 C 
ATOM     20  O   UNL     1       7.766  -0.467   6.049  0.00  0.00    -0.488 OA
ENDBRANCH   2  10
BRANCH   5  21
ATOM     21  C   UNL     1       5.487   1.992  -1.449  0.00  0.00    +0.213 C 
BRANCH  21  22
ATOM     22  C   UNL     1       4.555   2.684  -0.487  0.00  0.00    +0.234 C 
ATOM     23  O   UNL     1       4.848   2.766   0.687  0.00  0.00    -0.274 OA
ATOM     24  N   UNL     1       3.397   3.210  -0.931  0.00  0.00    -0.296 N 
ATOM     25  C   UNL     1       3.043   3.111  -2.349  0.00  0.00    +0.132 C 
BRANCH  24  26
ATOM     26  C   UNL     1       2.492   3.882   0.004  0.00  0.00    +0.106 C 
ATOM     27  C   UNL     1       2.322   5.340  -0.419  0.00  0.00    +0.027 C 
ATOM     28  C   UNL     1       1.212   5.965   0.435  0.00  0.00    +0.007 C 
ATOM     29  C   UNL     1      -0.122   5.351   0.015  0.00  0.00    +0.035 C 
ATOM     30  C   UNL     1      -0.037   3.848   0.017  0.00  0.00    -0.042 A 
ATOM     31  C   UNL     1       1.163   3.173   0.006  0.00  0.00    -0.024 A 
ATOM     32  C   UNL     1       1.171   1.784   0.001  0.00  0.00    +0.006 A 
ATOM     33  C   UNL     1      -0.013   1.076   0.008  0.00  0.00    +0.000 A 
ATOM     34  C   UNL     1      -1.218   1.753   0.017  0.00  0.00    +0.000 A 
ATOM     35  C   UNL     1      -1.228   3.133   0.028  0.00  0.00    +0.004 A 
ENDBRANCH  24  26
ENDBRANCH  21  22
ENDBRANCH   5  21
TORSDOF 4
