REMARK  Name = ZINC13716653
REMARK  6 active torsions:
REMARK  status: ('A' for Active; 'I' for Inactive)
REMARK    1  A    between atoms: C_8  and  C_12
REMARK    2  A    between atoms: N_14  and  C_15
REMARK    3  A    between atoms: C_18  and  C_21
REMARK    4  A    between atoms: C_21  and  C_22
REMARK    5  A    between atoms: N_24  and  C_25
REMARK    6  A    between atoms: C_25  and  C_26
REMARK                            x       y       z     vdW  Elec       q    Type
REMARK                         _______ _______ _______ _____ _____    ______ ____
ROOT
ATOM      1  C   UNL     1       1.220  -0.680  -0.007  0.00  0.00    +0.034 A 
ATOM      2  C   UNL     1       0.009  -0.000   0.006  0.00  0.00    +0.023 A 
ATOM      3  C   UNL     1      -0.006   1.381   0.019  0.00  0.00    +0.006 A 
ATOM      4  C   UNL     1       1.184   2.086   0.021  0.00  0.00    -0.039 A 
ATOM      5  C   UNL     1       2.391   1.412   0.008  0.00  0.00    +0.006 A 
ATOM      6  C   UNL     1       2.412   0.031  -0.005  0.00  0.00    +0.023 A 
ENDROOT
BRANCH   1   9
ATOM      7  C   UNL     1       2.198  -2.734  -0.703  0.00  0.00    +0.255 C 
ATOM      8  O   UNL     1       3.097  -2.112  -1.236  0.00  0.00    -0.270 OA
ATOM      9  N   UNL     1       1.238  -2.079  -0.020  0.00  0.00    -0.281 N 
ATOM     10  H   UNL     1       0.559  -2.577   0.461  0.00  0.00    +0.155 HD
BRANCH   7  18
ATOM     11  C   UNL     1       0.136  -8.456   0.158  0.00  0.00    +0.001 A 
ATOM     12  C   UNL     1       1.144  -9.093  -0.553  0.00  0.00    +0.004 A 
ATOM     13  C   UNL     1       2.152  -8.366  -1.149  0.00  0.00    +0.047 A 
ATOM     14  C   UNL     1       2.166  -6.979  -1.041  0.00  0.00    +0.139 A 
ATOM     15  C   UNL     1       1.143  -6.335  -0.321  0.00  0.00    +0.018 A 
ATOM     16  C   UNL     1       0.128  -7.096   0.278  0.00  0.00    +0.011 A 
ATOM     17  C   UNL     1       1.145  -4.923  -0.195  0.00  0.00    +0.031 A 
ATOM     18  C   UNL     1       2.159  -4.202  -0.802  0.00  0.00    +0.122 A 
ATOM     19  C   UNL     1       3.197  -4.929  -1.541  0.00  0.00    +0.350 A 
ATOM     20  O   UNL     1       4.101  -4.316  -2.079  0.00  0.00    -0.244 OA
ATOM     21  O   UNL     1       3.154  -6.269  -1.626  0.00  0.00    -0.422 OA
ENDBRANCH   7  18
ENDBRANCH   1   9
BRANCH   4  22
ATOM     22  C   UNL     1       1.164   3.593   0.036  0.00  0.00    +0.130 C 
BRANCH  22  23
ATOM     23  C   UNL     1       1.165   4.081   1.462  0.00  0.00    +0.218 C 
ATOM     24  O   UNL     1       1.179   3.284   2.376  0.00  0.00    -0.275 OA
ATOM     25  N   UNL     1       1.149   5.403   1.721  0.00  0.00    -0.310 N 
ATOM     26  H   UNL     1       1.137   6.041   0.990  0.00  0.00    +0.149 HD
BRANCH  25  27
ATOM     27  C   UNL     1       1.149   5.878   3.107  0.00  0.00    +0.146 C 
BRANCH  27  28
ATOM     28  C   UNL     1       1.130   7.385   3.122  0.00  0.00    +0.007 A 
ATOM     29  C   UNL     1       0.066   8.225   3.130  0.00  0.00    +0.013 A 
ATOM     30  C   UNL     1       0.289   9.589   3.148  0.00  0.00    +0.008 A 
ATOM     31  C   UNL     1       1.565  10.046   3.146  0.00  0.00    +0.045 A 
ATOM     32  S   UNL     1       2.502   8.527   3.127  0.00  0.00    -0.100 S 
ENDBRANCH  27  28
ENDBRANCH  25  27
ENDBRANCH  22  23
ENDBRANCH   4  22
TORSDOF 6
