REMARK  Name = ZINC26290506
REMARK  9 active torsions:
REMARK  status: ('A' for Active; 'I' for Inactive)
REMARK    1  A    between atoms: C_1  and  C_2
REMARK    2  A    between atoms: C_3  and  C_11
REMARK    3  A    between atoms: C_11  and  C_13
REMARK    4  A    between atoms: C_11  and  S_14
REMARK    5  A    between atoms: S_14  and  C_15
REMARK    6  A    between atoms: C_15  and  C_16
REMARK    7  A    between atoms: C_16  and  N_17
REMARK    8  A    between atoms: C_21  and  O_24
REMARK    9  A    between atoms: C_22  and  O_23
REMARK                            x       y       z     vdW  Elec       q    Type
REMARK                         _______ _______ _______ _____ _____    ______ ____
ROOT
ATOM      1  S   UNL     1       0.592  -1.644  -3.611  0.00  0.00    -0.150 S 
ENDROOT
BRANCH   1   2
ATOM      2  C   UNL     1      -0.006  -0.315  -2.531  0.00  0.00    +0.092 C 
ATOM      3  C   UNL     1      -1.435   0.062  -2.930  0.00  0.00    +0.025 C 
BRANCH   2   6
ATOM      4  C   UNL     1       1.092   1.275  -0.076  0.00  0.00    +0.065 C 
ATOM      5  C   UNL     1       0.481  -0.102  -0.035  0.00  0.00    +0.035 A 
ATOM      6  C   UNL     1       0.008  -0.786  -1.100  0.00  0.00    +0.056 A 
ATOM      7  N   UNL     1      -0.457  -1.986  -0.635  0.00  0.00    -0.304 N 
ATOM      8  C   UNL     1      -1.033  -3.056  -1.256  0.00  0.00    +0.093 A 
ATOM      9  C   UNL     1      -1.408  -4.142  -0.548  0.00  0.00    +0.018 A 
ATOM     10  C   UNL     1      -1.210  -4.185   0.842  0.00  0.00    +0.005 A 
ATOM     11  C   UNL     1      -0.636  -3.125   1.474  0.00  0.00    +0.045 A 
ATOM     12  C   UNL     1      -0.250  -1.999   0.720  0.00  0.00    +0.116 A 
ATOM     13  N   UNL     1       0.322  -0.852   1.058  0.00  0.00    -0.343 N 
ATOM     14  H   UNL     1       0.582  -0.597   1.957  0.00  0.00    +0.167 HD
ENDBRANCH   2   6
ENDBRANCH   1   2
BRANCH   1  15
ATOM     15  C   UNL     1       0.658  -0.879  -5.254  0.00  0.00    +0.093 C 
BRANCH  15  16
ATOM     16  C   UNL     1       1.154  -1.905  -6.275  0.00  0.00    +0.153 C 
BRANCH  16  17
ATOM     17  N   UNL     1       1.207  -1.286  -7.602  0.00  0.00    -0.277 NA
ATOM     18  C   UNL     1       2.353  -1.130  -8.202  0.00  0.00    +0.132 C 
ATOM     19  C   UNL     1       3.770  -1.449  -7.869  0.00  0.00    +0.129 C 
ATOM     20  N   UNL     1       4.418  -1.996  -6.879  0.00  0.00    -0.294 NA
ATOM     21  C   UNL     1       4.098  -0.860  -9.182  0.00  0.00    +0.188 C 
ATOM     22  C   UNL     1       2.786  -0.568  -9.497  0.00  0.00    +0.188 C 
ATOM     23  H   UNL     1       5.383  -2.085  -6.922  0.00  0.00    +0.187 HD
BRANCH  22  24
ATOM     24  O   UNL     1       2.158  -0.002 -10.554  0.00  0.00    -0.502 OA
ATOM     25  H   UNL     1       2.752   0.268 -11.267  0.00  0.00    +0.292 HD
ENDBRANCH  22  24
BRANCH  21  26
ATOM     26  O   UNL     1       5.266  -0.677  -9.843  0.00  0.00    -0.502 OA
ATOM     27  H   UNL     1       5.168  -0.253 -10.707  0.00  0.00    +0.292 HD
ENDBRANCH  21  26
ENDBRANCH  16  17
ENDBRANCH  15  16
ENDBRANCH   1  15
TORSDOF 7
