REMARK  Name = ZINC02276582
REMARK  6 active torsions:
REMARK  status: ('A' for Active; 'I' for Inactive)
REMARK    1  A    between atoms: C_6  and  C_7
REMARK    2  A    between atoms: C_7  and  O_8
REMARK    3  A    between atoms: O_8  and  C_9
REMARK    4  A    between atoms: C_12  and  C_15
REMARK    5  A    between atoms: C_17  and  C_28
REMARK    6  A    between atoms: C_18  and  N_27
REMARK                            x       y       z     vdW  Elec       q    Type
REMARK                         _______ _______ _______ _____ _____    ______ ____
ROOT
ATOM      1  C   UNL     1       2.490   1.045  -0.016  0.00  0.00    +0.101 C 
ATOM      2  C   UNL     1       3.253   1.414  -1.257  0.00  0.00    +0.098 C 
ATOM      3  C   UNL     1       4.274   2.304  -1.196  0.00  0.00    +0.198 C 
ATOM      4  O   UNL     1       4.629   2.880  -0.037  0.00  0.00    -0.445 OA
ATOM      5  C   UNL     1       4.302   2.293   1.130  0.00  0.00    +0.115 C 
ATOM      6  C   UNL     1       3.287   1.415   1.212  0.00  0.00    +0.046 C 
ATOM      7  C   UNL     1       2.934   0.816   2.436  0.00  0.00    +0.163 C 
ATOM      8  O   UNL     1       2.021   0.015   2.468  0.00  0.00    -0.292 OA
ATOM      9  C   UNL     1       3.667   1.149   3.707  0.00  0.00    +0.080 C 
ATOM     10  C   UNL     1       4.223   2.573   3.599  0.00  0.00    +0.016 C 
ATOM     11  C   UNL     1       5.111   2.654   2.355  0.00  0.00    +0.075 C 
ENDROOT
BRANCH   1  15
ATOM     12  C   UNL     1      -1.237   3.137   0.031  0.00  0.00    +0.121 A 
ATOM     13  C   UNL     1      -1.218   1.750   0.017  0.00  0.00    +0.046 A 
ATOM     14  C   UNL     1      -0.013   1.076   0.008  0.00  0.00    +0.008 A 
ATOM     15  C   UNL     1       1.176   1.783   0.000  0.00  0.00    -0.034 A 
ATOM     16  C   UNL     1       1.160   3.165   0.008  0.00  0.00    +0.008 A 
ATOM     17  C   UNL     1      -0.043   3.844   0.024  0.00  0.00    +0.046 A 
BRANCH  12  18
ATOM     18  O   UNL     1      -2.422   3.802   0.045  0.00  0.00    -0.487 OA
BRANCH  18  19
ATOM     19  C   UNL     1      -3.611   3.009   0.052  0.00  0.00    +0.264 C 
BRANCH  19  25
ATOM     20  C   UNL     1      -5.362   4.316   1.272  0.00  0.00    +0.008 A 
ATOM     21  C   UNL     1      -6.465   5.149   1.288  0.00  0.00    +0.020 A 
ATOM     22  C   UNL     1      -7.030   5.570   0.097  0.00  0.00    +0.041 A 
ATOM     23  C   UNL     1      -6.487   5.162  -1.108  0.00  0.00    +0.020 A 
ATOM     24  C   UNL     1      -5.381   4.333  -1.122  0.00  0.00    +0.008 A 
ATOM     25  C   UNL     1      -4.817   3.913   0.068  0.00  0.00    -0.010 A 
ATOM     26 CL   UNL     1      -8.419   6.611   0.115  0.00  0.00    -0.084 Cl
ENDBRANCH  19  25
ENDBRANCH  18  19
ENDBRANCH  12  18
ENDBRANCH   1  15
BRANCH   3  27
ATOM     27  N   UNL     1       4.958   2.622  -2.342  0.00  0.00    -0.328 N 
ATOM     28  H   UNL     1       5.690   3.257  -2.310  0.00  0.00    +0.145 HD
ATOM     29  H   UNL     1       4.709   2.211  -3.186  0.00  0.00    +0.145 HD
ENDBRANCH   3  27
BRANCH   2  30
ATOM     30  C   UNL     1       2.899   0.823  -2.513  0.00  0.00    +0.101 C 
ATOM     31  N   UNL     1       2.619   0.353  -3.508  0.00  0.00    -0.191 NA
ENDBRANCH   2  30
TORSDOF 6
