REMARK  Name = ZINC50558445
REMARK  5 active torsions:
REMARK  status: ('A' for Active; 'I' for Inactive)
REMARK    1  A    between atoms: C_7  and  N_27
REMARK    2  A    between atoms: C_9  and  C_11
REMARK    3  A    between atoms: C_11  and  N_12
REMARK    4  A    between atoms: C_18  and  C_20
REMARK    5  A    between atoms: C_21  and  C_22
REMARK                            x       y       z     vdW  Elec       q    Type
REMARK                         _______ _______ _______ _____ _____    ______ ____
ROOT
ATOM      1  N   UNL     1       5.368  -2.837  -1.447  0.00  0.00    -0.292 NA
ATOM      2  C   UNL     1       4.464  -3.769  -2.133  0.00  0.00    +0.104 C 
ATOM      3  C   UNL     1       4.831  -3.832  -3.619  0.00  0.00    +0.123 C 
ATOM      4  N   UNL     1       6.262  -4.154  -3.734  0.00  0.00    -0.296 N 
ATOM      5  C   UNL     1       7.221  -3.347  -2.965  0.00  0.00    +0.123 C 
ATOM      6  C   UNL     1       6.759  -3.304  -1.504  0.00  0.00    +0.104 C 
ATOM      7  C   UNL     1       6.682  -5.163  -4.523  0.00  0.00    +0.240 C 
ATOM      8  O   UNL     1       5.871  -5.881  -5.078  0.00  0.00    -0.271 OA
ENDROOT
BRANCH   7   9
ATOM      9  C   UNL     1       8.069  -5.387  -4.707  0.00  0.00    +0.069 C 
ATOM     10  C   UNL     1       8.492  -6.332  -5.577  0.00  0.00    +0.033 C 
BRANCH  10  11
ATOM     11  C   UNL     1       9.928  -6.564  -5.768  0.00  0.00    +0.071 A 
ATOM     12  C   UNL     1      10.409  -7.515  -6.648  0.00  0.00    +0.074 A 
ATOM     13  S   UNL     1      12.072  -7.359  -6.473  0.00  0.00    -0.083 S 
ATOM     14  C   UNL     1      12.113  -6.134  -5.327  0.00  0.00    +0.156 A 
ATOM     15  N   UNL     1      10.856  -5.865  -5.105  0.00  0.00    -0.248 NA
ENDBRANCH  10  11
ENDBRANCH   7   9
BRANCH   1  16
ATOM     16  C   UNL     1       4.943  -2.617  -0.058  0.00  0.00    +0.160 C 
BRANCH  16  25
ATOM     17  C   UNL     1      -0.014   1.369  -0.002  0.00  0.00    +0.001 A 
ATOM     18  C   UNL     1       1.173   2.097  -0.003  0.00  0.00    +0.002 A 
ATOM     19  C   UNL     1       2.382   1.469  -0.015  0.00  0.00    +0.028 A 
ATOM     20  C   UNL     1       2.434   0.068  -0.026  0.00  0.00    +0.076 A 
ATOM     21  C   UNL     1       1.226  -0.670  -0.024  0.00  0.00    +0.040 A 
ATOM     22  C   UNL     1       0.000   0.006  -0.012  0.00  0.00    +0.013 A 
ATOM     23  C   UNL     1       1.306  -2.084  -0.034  0.00  0.00    +0.127 A 
ATOM     24  N   UNL     1       2.508  -2.643  -0.045  0.00  0.00    -0.216 NA
ATOM     25  C   UNL     1       3.611  -1.911  -0.046  0.00  0.00    +0.146 A 
ATOM     26  N   UNL     1       3.597  -0.599  -0.037  0.00  0.00    -0.231 NA
BRANCH  23  27
ATOM     27  N   UNL     1       0.165  -2.858  -0.033  0.00  0.00    -0.343 N 
ATOM     28  H   UNL     1      -0.708  -2.435  -0.025  0.00  0.00    +0.144 HD
ATOM     29  H   UNL     1       0.235  -3.825  -0.040  0.00  0.00    +0.144 HD
ENDBRANCH  23  27
ENDBRANCH  16  25
ENDBRANCH   1  16
TORSDOF 5
