REMARK  Name = ZINC14878678
REMARK  12 active torsions:
REMARK  status: ('A' for Active; 'I' for Inactive)
REMARK    1  A    between atoms: C_1  and  C_2
REMARK    2  A    between atoms: C_3  and  C_4
REMARK    3  A    between atoms: C_4  and  N_5
REMARK    4  A    between atoms: C_8  and  C_12
REMARK    5  A    between atoms: C_8  and  C_20
REMARK    6  A    between atoms: C_12  and  C_13
REMARK    7  A    between atoms: C_25  and  C_26
REMARK    8  A    between atoms: C_25  and  N_70
REMARK    9  A    between atoms: C_29  and  O_34
REMARK   10  A    between atoms: C_30  and  C_33
REMARK   11  A    between atoms: C_31  and  C_32
REMARK   12  A    between atoms: O_34  and  C_35
REMARK                            x       y       z     vdW  Elec       q    Type
REMARK                         _______ _______ _______ _____ _____    ______ ____
ROOT
ATOM      1  N   UNL     1       1.238  -0.440   2.716  0.00  0.00    -0.212 N 
ATOM      2  C   UNL     1      -0.089  -0.196   2.633  0.00  0.00    +0.248 C 
ATOM      3  O   UNL     1      -0.984  -1.010   2.572  0.00  0.00    -0.273 OA
ATOM      4  C   UNL     1      -0.223   1.314   2.631  0.00  0.00    +0.119 C 
ATOM      5  N   UNL     1       1.169   1.789   2.724  0.00  0.00    -0.284 N 
ATOM      6  C   UNL     1       1.947   0.693   2.769  0.00  0.00    +0.310 C 
ATOM      7  O   UNL     1       3.159   0.728   2.848  0.00  0.00    -0.252 OA
ATOM      8  H   UNL     1       1.466   2.712   2.749  0.00  0.00    +0.151 HD
ENDROOT
BRANCH   4   9
ATOM      9  C   UNL     1      -0.870   1.796   1.331  0.00  0.00    +0.018 C 
ATOM     10  C   UNL     1      -0.113   1.210   0.136  0.00  0.00    -0.013 C 
ATOM     11  C   UNL     1      -0.799   1.645  -1.161  0.00  0.00    -0.078 C 
ATOM     12  C   UNL     1      -2.950   1.760  -0.051  0.00  0.00    -0.078 C 
ATOM     13  C   UNL     1      -2.328   1.328   1.279  0.00  0.00    -0.013 C 
ATOM     14  N   UNL     1      -2.190   1.144  -1.159  0.00  0.00    +0.382 N 
ATOM     15  H   UNL     1      -2.177   0.126  -1.028  0.00  0.00    -0.081 HD
BRANCH  14  16
ATOM     16  C   UNL     1      -2.840   1.453  -2.449  0.00  0.00    -0.043 C 
BRANCH  16  17
ATOM     17  C   UNL     1      -4.103   0.638  -2.562  0.00  0.00    -0.061 A 
ATOM     18  C   UNL     1      -5.335   1.251  -2.421  0.00  0.00    +0.005 A 
ATOM     19  C   UNL     1      -6.493   0.507  -2.522  0.00  0.00    +0.046 A 
ATOM     20  C   UNL     1      -6.421  -0.857  -2.767  0.00  0.00    +0.123 A 
ATOM     21  C   UNL     1      -5.185  -1.470  -2.909  0.00  0.00    -0.006 A 
ATOM     22  C   UNL     1      -4.028  -0.719  -2.811  0.00  0.00    -0.043 A 
ATOM     23  C   UNL     1      -2.685  -1.383  -2.970  0.00  0.00    +0.044 C 
ATOM     24  C   UNL     1      -5.102  -2.950  -3.175  0.00  0.00    +0.048 C 
BRANCH  20  25
ATOM     25  O   UNL     1      -7.560  -1.592  -2.868  0.00  0.00    -0.495 OA
ATOM     26  C   UNL     1      -8.798  -0.895  -2.711  0.00  0.00    +0.277 C 
ENDBRANCH  20  25
ENDBRANCH  16  17
ENDBRANCH  14  16
ENDBRANCH   4   9
BRANCH   1  27
ATOM     27  C   UNL     1       1.826  -1.782   2.747  0.00  0.00    +0.206 C 
BRANCH  27  30
ATOM     28  C   UNL     1       2.124  -3.059   6.651  0.00  0.00    +0.106 C 
ATOM     29  C   UNL     1       2.017  -2.603   5.255  0.00  0.00    -0.104 C 
ATOM     30  C   UNL     1       1.932  -2.238   4.143  0.00  0.00    -0.083 C 
ENDBRANCH  27  30
ENDBRANCH   1  27
BRANCH   4  31
ATOM     31  C   UNL     1      -1.034   1.784   3.840  0.00  0.00    +0.070 C 
BRANCH  31  32
ATOM     32  C   UNL     1      -0.313   1.404   5.108  0.00  0.00    -0.042 A 
ATOM     33  C   UNL     1       0.599   2.276   5.672  0.00  0.00    +0.004 A 
ATOM     34  C   UNL     1       1.261   1.929   6.835  0.00  0.00    +0.003 A 
ATOM     35  C   UNL     1       1.012   0.709   7.434  0.00  0.00    +0.038 A 
ATOM     36  C   UNL     1       0.100  -0.166   6.870  0.00  0.00    +0.124 A 
ATOM     37  C   UNL     1      -0.568   0.186   5.708  0.00  0.00    +0.042 A 
ATOM     38  F   UNL     1      -0.145  -1.359   7.455  0.00  0.00    -0.205 F 
ENDBRANCH  31  32
ENDBRANCH   4  31
TORSDOF 8
