REMARK  Name = ZINC12731312
REMARK  10 active torsions:
REMARK  status: ('A' for Active; 'I' for Inactive)
REMARK    1  A    between atoms: C_1  and  C_2
REMARK    2  A    between atoms: C_5  and  N_8
REMARK    3  A    between atoms: C_9  and  C_34
REMARK    4  A    between atoms: N_13  and  C_16
REMARK    5  A    between atoms: C_16  and  C_17
REMARK    6  A    between atoms: N_19  and  C_20
REMARK    7  A    between atoms: C_20  and  C_21
REMARK    8  A    between atoms: C_21  and  C_23
REMARK    9  A    between atoms: C_21  and  N_65
REMARK   10  A    between atoms: C_30  and  C_33
REMARK                            x       y       z     vdW  Elec       q    Type
REMARK                         _______ _______ _______ _____ _____    ______ ____
ROOT
ATOM      1  C   UNL     1      -3.758   3.492   2.612  0.00  0.00    +0.231 C 
ATOM      2  O   UNL     1      -3.358   2.934   3.612  0.00  0.00    -0.274 OA
ATOM      3  N   UNL     1      -3.053   3.410   1.467  0.00  0.00    -0.315 N 
ATOM      4  H   UNL     1      -3.373   3.855   0.667  0.00  0.00    +0.149 HD
ENDROOT
BRANCH   1   5
ATOM      5  C   UNL     1      -5.045   4.276   2.650  0.00  0.00    +0.213 C 
BRANCH   5  10
ATOM      6  N   UNL     1      -5.999   4.808   6.113  0.00  0.00    -0.243 N 
ATOM      7  C   UNL     1      -6.795   3.595   5.855  0.00  0.00    +0.166 C 
ATOM      8  C   UNL     1      -6.483   3.265   4.409  0.00  0.00    +0.244 C 
ATOM      9  O   UNL     1      -6.920   2.341   3.758  0.00  0.00    -0.273 OA
ATOM     10  N   UNL     1      -5.616   4.212   3.998  0.00  0.00    -0.215 N 
ATOM     11  C   UNL     1      -5.346   5.090   4.971  0.00  0.00    +0.316 C 
ATOM     12  O   UNL     1      -4.595   6.036   4.838  0.00  0.00    -0.252 OA
ATOM     13  C   UNL     1      -6.357   2.457   6.778  0.00  0.00    +0.038 C 
BRANCH   6  18
ATOM     14  C   UNL     1      -5.738   7.720  10.975  0.00  0.00    +0.044 C 
ATOM     15  C   UNL     1      -5.807   6.946   9.683  0.00  0.00    -0.050 A 
ATOM     16  C   UNL     1      -5.072   7.364   8.589  0.00  0.00    +0.005 A 
ATOM     17  C   UNL     1      -5.134   6.657   7.404  0.00  0.00    +0.024 A 
ATOM     18  C   UNL     1      -5.935   5.526   7.312  0.00  0.00    +0.039 A 
ATOM     19  C   UNL     1      -6.676   5.113   8.411  0.00  0.00    +0.024 A 
ATOM     20  C   UNL     1      -6.605   5.821   9.595  0.00  0.00    +0.005 A 
ENDBRANCH   6  18
ENDBRANCH   5  10
ENDBRANCH   1   5
BRANCH   3  21
ATOM     21  C   UNL     1      -1.802   2.647   1.430  0.00  0.00    +0.094 C 
BRANCH  21  22
ATOM     22  C   UNL     1      -1.206   2.714   0.023  0.00  0.00    -0.013 C 
BRANCH  22  29
ATOM     23  C   UNL     1      -2.740   0.940  -0.576  0.00  0.00    -0.078 C 
ATOM     24  C   UNL     1      -3.874   0.559  -1.531  0.00  0.00    -0.015 C 
ATOM     25  C   UNL     1      -3.336   0.518  -2.964  0.00  0.00    -0.018 C 
ATOM     26  C   UNL     1      -2.737   1.883  -3.315  0.00  0.00    -0.015 C 
ATOM     27  C   UNL     1      -1.636   2.225  -2.309  0.00  0.00    -0.078 C 
ATOM     28  C   UNL     1      -4.478   0.197  -3.929  0.00  0.00    +0.007 C 
ATOM     29  N   UNL     1      -2.224   2.273  -0.953  0.00  0.00    +0.386 N 
ATOM     30  H   UNL     1      -3.001   2.945  -0.950  0.00  0.00    -0.081 HD
ENDBRANCH  22  29
BRANCH  22  31
ATOM     31  C   UNL     1       0.014   1.831  -0.048  0.00  0.00    -0.022 A 
ATOM     32  C   UNL     1       1.319   2.184  -0.141  0.00  0.00    +0.009 A 
ATOM     33  C   UNL     1       2.279   1.192  -0.199  0.00  0.00    +0.008 A 
ATOM     34  C   UNL     1       1.887  -0.105  -0.161  0.00  0.00    +0.045 A 
ATOM     35  S   UNL     1       0.113   0.049  -0.041  0.00  0.00    -0.103 S 
ENDBRANCH  22  31
ENDBRANCH  21  22
ENDBRANCH   3  21
TORSDOF 7
