REMARK  Name = ZINC06726187
REMARK  6 active torsions:
REMARK  status: ('A' for Active; 'I' for Inactive)
REMARK    1  A    between atoms: C_1  and  C_2
REMARK    2  A    between atoms: C_2  and  C_3
REMARK    3  A    between atoms: C_10  and  N_14
REMARK    4  A    between atoms: C_11  and  C_12
REMARK    5  A    between atoms: C_15  and  C_17
REMARK    6  A    between atoms: C_17  and  N_54
REMARK                            x       y       z     vdW  Elec       q    Type
REMARK                         _______ _______ _______ _____ _____    ______ ____
ROOT
ATOM      1  N   UNL     1      -0.682   1.969   5.025  0.00  0.00    -0.281 N 
ATOM      2  C   UNL     1      -1.555   2.474   5.918  0.00  0.00    +0.201 C 
ATOM      3  O   UNL     1      -2.723   2.604   5.617  0.00  0.00    -0.278 OA
ATOM      4  H   UNL     1       0.252   1.865   5.266  0.00  0.00    +0.155 HD
ENDROOT
BRANCH   1  11
ATOM      5  C   UNL     1      -2.727  -0.106  -0.666  0.00  0.00    -0.006 C 
ATOM      6  C   UNL     1      -1.313   0.404  -0.963  0.00  0.00    +0.008 C 
ATOM      7  C   UNL     1      -0.410   0.167   0.249  0.00  0.00    +0.037 C 
ATOM      8  C   UNL     1      -1.078   0.756   1.485  0.00  0.00    -0.018 A 
ATOM      9  C   UNL     1      -2.405   1.029   1.492  0.00  0.00    -0.004 A 
ATOM     10  S   UNL     1      -2.720   1.683   3.107  0.00  0.00    -0.077 S 
ATOM     11  C   UNL     1      -1.118   1.596   3.762  0.00  0.00    +0.090 A 
ATOM     12  C   UNL     1      -0.378   1.063   2.717  0.00  0.00    +0.084 A 
ATOM     13  C   UNL     1      -3.378   0.818   0.374  0.00  0.00    +0.046 C 
BRANCH   5  15
ATOM     14  C   UNL     1      -4.925  -0.725  -1.680  0.00  0.00    +0.004 C 
ATOM     15  C   UNL     1      -3.555  -0.099  -1.952  0.00  0.00    +0.000 C 
ENDBRANCH   5  15
BRANCH  12  16
ATOM     16  C   UNL     1       1.028   0.824   2.849  0.00  0.00    +0.102 C 
ATOM     17  N   UNL     1       2.143   0.635   2.954  0.00  0.00    -0.191 NA
ENDBRANCH  12  16
ENDBRANCH   1  11
BRANCH   2  18
ATOM     18  C   UNL     1      -1.081   2.880   7.290  0.00  0.00    +0.019 C 
BRANCH  18  28
ATOM     19  C   UNL     1      -1.841   3.715   9.432  0.00  0.00    -0.073 C 
ATOM     20  C   UNL     1      -3.059   4.258  10.183  0.00  0.00    +0.046 C 
ATOM     21  C   UNL     1      -3.482   5.590   9.559  0.00  0.00    +0.167 C 
ATOM     22  C   UNL     1      -3.777   5.389   8.071  0.00  0.00    +0.046 C 
ATOM     23  C   UNL     1      -2.538   4.811   7.385  0.00  0.00    -0.073 C 
ATOM     24  O   UNL     1      -4.662   6.076  10.221  0.00  0.00    -0.346 OA
ATOM     25  C   UNL     1      -4.170   6.995  11.226  0.00  0.00    +0.191 C 
ATOM     26  C   UNL     1      -2.964   7.641  10.499  0.00  0.00    +0.191 C 
ATOM     27  O   UNL     1      -2.432   6.552   9.717  0.00  0.00    -0.346 OA
ATOM     28  N   UNL     1      -2.203   3.515   8.012  0.00  0.00    +0.386 N 
ATOM     29  H   UNL     1      -3.023   2.899   7.961  0.00  0.00    -0.081 HD
ENDBRANCH  18  28
ENDBRANCH   2  18
TORSDOF 5
