REMARK  Name = ZINC02425358
REMARK  6 active torsions:
REMARK  status: ('A' for Active; 'I' for Inactive)
REMARK    1  A    between atoms: C_1  and  C_2
REMARK    2  A    between atoms: C_2  and  C_29
REMARK    3  A    between atoms: C_10  and  C_15
REMARK    4  A    between atoms: C_16  and  C_17
REMARK    5  A    between atoms: C_26  and  O_27
REMARK    6  A    between atoms: O_27  and  C_28
REMARK                            x       y       z     vdW  Elec       q    Type
REMARK                         _______ _______ _______ _____ _____    ______ ____
ROOT
ATOM      1  C   UNL     1       0.751   7.663   2.026  0.00  0.00    +0.020 C 
ATOM      2  C   UNL     1       1.502   6.348   2.243  0.00  0.00    +0.034 C 
ATOM      3  C   UNL     1       2.804   6.588   2.980  0.00  0.00    -0.017 A 
ATOM      4  C   UNL     1       3.071   6.813   4.315  0.00  0.00    +0.006 A 
ATOM      5  C   UNL     1       4.374   7.000   4.739  0.00  0.00    +0.000 A 
ATOM      6  C   UNL     1       5.409   6.963   3.823  0.00  0.00    +0.002 A 
ATOM      7  C   UNL     1       5.147   6.742   2.487  0.00  0.00    +0.023 A 
ATOM      8  C   UNL     1       3.836   6.555   2.051  0.00  0.00    +0.036 A 
ATOM      9  N   UNL     1       3.343   6.327   0.760  0.00  0.00    -0.296 N 
ATOM     10  C   UNL     1       1.974   5.759   0.894  0.00  0.00    +0.131 C 
ATOM     11  N   UNL     1       1.173   6.329  -0.193  0.00  0.00    -0.289 N 
ATOM     12  C   UNL     1       1.814   7.424  -0.689  0.00  0.00    +0.232 C 
ATOM     13  O   UNL     1       1.414   8.125  -1.594  0.00  0.00    -0.274 OA
ATOM     14  C   UNL     1       3.104   7.620   0.075  0.00  0.00    +0.203 C 
ATOM     15  C   UNL     1       0.630   5.342   2.997  0.00  0.00    +0.020 C 
ATOM     16  H   UNL     1       0.321   5.981  -0.500  0.00  0.00    +0.151 HD
ENDROOT
BRANCH  10  17
ATOM     17  C   UNL     1       1.967   4.252   0.887  0.00  0.00    +0.020 C 
ATOM     18  C   UNL     1       1.216   3.596   0.009  0.00  0.00    +0.011 C 
BRANCH  18  19
ATOM     19  C   UNL     1       1.208   2.122   0.002  0.00  0.00    +0.024 A 
ATOM     20  C   UNL     1      -0.017   1.412   0.010  0.00  0.00    -0.007 A 
ATOM     21  C   UNL     1      -1.247   2.085   0.031  0.00  0.00    +0.009 A 
ATOM     22  C   UNL     1      -2.407   1.371   0.033  0.00  0.00    +0.001 A 
ATOM     23  C   UNL     1      -2.390  -0.022   0.025  0.00  0.00    +0.001 A 
ATOM     24  C   UNL     1      -1.214  -0.708   0.010  0.00  0.00    +0.008 A 
ATOM     25  C   UNL     1       0.002  -0.004   0.002  0.00  0.00    -0.017 A 
ATOM     26  C   UNL     1       1.234  -0.682  -0.013  0.00  0.00    +0.012 A 
ATOM     27  C   UNL     1       2.401   0.017  -0.020  0.00  0.00    +0.047 A 
ATOM     28  C   UNL     1       2.405   1.413  -0.013  0.00  0.00    +0.128 A 
BRANCH  28  29
ATOM     29  O   UNL     1       3.586   2.083  -0.021  0.00  0.00    -0.495 OA
ATOM     30  C   UNL     1       4.778   1.296  -0.037  0.00  0.00    +0.277 C 
ENDBRANCH  28  29
ENDBRANCH  18  19
ENDBRANCH  10  17
TORSDOF 3
