REMARK  Name = ZINC09306472
REMARK  6 active torsions:
REMARK  status: ('A' for Active; 'I' for Inactive)
REMARK    1  A    between atoms: C_1  and  C_2
REMARK    2  A    between atoms: C_9  and  C_11
REMARK    3  A    between atoms: C_11  and  C_12
REMARK    4  A    between atoms: C_13  and  C_28
REMARK    5  A    between atoms: C_17  and  C_24
REMARK    6  A    between atoms: C_22  and  C_23
REMARK                            x       y       z     vdW  Elec       q    Type
REMARK                         _______ _______ _______ _____ _____    ______ ____
ROOT
ATOM      1  C   UNL     1      -0.143   1.417   0.016  0.00  0.00    +0.049 A 
ATOM      2  C   UNL     1       0.977   2.187   0.026  0.00  0.00    -0.026 A 
ATOM      3  C   UNL     1       0.818   3.641   0.045  0.00  0.00    +0.064 A 
ATOM      4  C   UNL     1      -0.477   4.187   0.050  0.00  0.00    +0.143 A 
ATOM      5  C   UNL     1      -0.647   5.569   0.068  0.00  0.00    +0.051 A 
ATOM      6  C   UNL     1       0.435   6.401   0.080  0.00  0.00    -0.036 A 
ATOM      7  C   UNL     1       1.731   5.878   0.075  0.00  0.00    +0.027 A 
ATOM      8  C   UNL     1       1.936   4.492   0.057  0.00  0.00    +0.146 A 
ATOM      9  O   UNL     1       3.264   4.281   0.056  0.00  0.00    -0.462 OA
ATOM     10  C   UNL     1       3.936   5.446   0.072  0.00  0.00    +0.199 A 
ATOM     11  C   UNL     1       3.074   6.472   0.084  0.00  0.00    -0.005 A 
ATOM     12  C   UNL     1       3.415   7.940   0.104  0.00  0.00    +0.047 C 
ATOM     13  C   UNL     1       0.230   7.894   0.100  0.00  0.00    +0.044 C 
ATOM     14  O   UNL     1      -1.549   3.366   0.039  0.00  0.00    -0.422 OA
ATOM     15  C   UNL     1      -1.412   2.031   0.016  0.00  0.00    +0.341 A 
ATOM     16  O   UNL     1      -2.410   1.332   0.001  0.00  0.00    -0.245 OA
ATOM     17  C   UNL     1       2.347   1.559   0.020  0.00  0.00    +0.045 C 
ENDROOT
BRANCH   1  18
ATOM     18  C   UNL     1      -0.029  -0.085  -0.003  0.00  0.00    +0.138 C 
BRANCH  18  27
ATOM     19  C   UNL     1       0.839  -5.673   4.748  0.00  0.00    +0.044 C 
ATOM     20  C   UNL     1       0.604  -4.212   4.465  0.00  0.00    -0.046 A 
ATOM     21  C   UNL     1       0.521  -3.292   5.502  0.00  0.00    +0.023 A 
ATOM     22  C   UNL     1       0.305  -1.961   5.209  0.00  0.00    +0.113 A 
ATOM     23  N   UNL     1       0.176  -1.555   3.960  0.00  0.00    -0.240 NA
ATOM     24  C   UNL     1       0.249  -2.401   2.945  0.00  0.00    +0.125 A 
ATOM     25  C   UNL     1       0.459  -3.757   3.167  0.00  0.00    +0.047 A 
ATOM     26  N   UNL     1       0.107  -1.928   1.641  0.00  0.00    -0.270 N 
ATOM     27  C   UNL     1       0.007  -0.604   1.411  0.00  0.00    +0.223 C 
ATOM     28  O   UNL     1      -0.053   0.170   2.343  0.00  0.00    -0.275 OA
ATOM     29  H   UNL     1       0.080  -2.553   0.899  0.00  0.00    +0.156 HD
ENDBRANCH  18  27
ENDBRANCH   1  18
TORSDOF 2
