REMARK  Name = ZINC36611955
REMARK  9 active torsions:
REMARK  status: ('A' for Active; 'I' for Inactive)
REMARK    1  A    between atoms: C_1  and  C_2
REMARK    2  A    between atoms: C_2  and  O_3
REMARK    3  A    between atoms: O_3  and  C_4
REMARK    4  A    between atoms: C_6  and  C_12
REMARK    5  A    between atoms: C_9  and  O_10
REMARK    6  A    between atoms: C_14  and  C_27
REMARK    7  A    between atoms: C_15  and  N_26
REMARK    8  A    between atoms: C_22  and  C_24
REMARK    9  A    between atoms: C_22  and  C_25
REMARK                            x       y       z     vdW  Elec       q    Type
REMARK                         _______ _______ _______ _____ _____    ______ ____
ROOT
ATOM      1  C   UNL     1      -0.229  -4.968   0.479  0.00  0.00    +0.101 C 
ATOM      2  C   UNL     1      -1.272  -5.838  -0.165  0.00  0.00    +0.098 C 
ATOM      3  C   UNL     1      -0.989  -7.123  -0.492  0.00  0.00    +0.198 C 
ATOM      4  O   UNL     1       0.224  -7.649  -0.253  0.00  0.00    -0.445 OA
ATOM      5  C   UNL     1       1.038  -7.093   0.665  0.00  0.00    +0.115 C 
ATOM      6  C   UNL     1       0.873  -5.821   1.059  0.00  0.00    +0.046 C 
ATOM      7  C   UNL     1       1.720  -5.244   2.025  0.00  0.00    +0.164 C 
ATOM      8  O   UNL     1       1.552  -4.085   2.350  0.00  0.00    -0.292 OA
ATOM      9  C   UNL     1       2.828  -6.037   2.663  0.00  0.00    +0.086 C 
ATOM     10  C   UNL     1       2.438  -7.519   2.668  0.00  0.00    -0.021 C 
ATOM     11  C   UNL     1       2.150  -7.942   1.235  0.00  0.00    +0.081 C 
ATOM     12  C   UNL     1       1.189  -7.719   3.529  0.00  0.00    +0.012 C 
ATOM     13  C   UNL     1       3.593  -8.352   3.227  0.00  0.00    +0.012 C 
ENDROOT
BRANCH   1  16
ATOM     14  C   UNL     1       0.777  -1.811  -1.336  0.00  0.00    +0.163 A 
ATOM     15  C   UNL     1       0.243  -2.669  -0.388  0.00  0.00    +0.054 A 
ATOM     16  C   UNL     1       0.352  -4.037  -0.554  0.00  0.00    -0.030 A 
ATOM     17  C   UNL     1       0.992  -4.553  -1.665  0.00  0.00    +0.028 A 
ATOM     18  C   UNL     1       1.527  -3.703  -2.616  0.00  0.00    +0.086 A 
ATOM     19  C   UNL     1       1.416  -2.329  -2.458  0.00  0.00    +0.177 A 
ATOM     20 CL   UNL     1       2.331  -4.354  -4.010  0.00  0.00    -0.080 Cl
BRANCH  19  21
ATOM     21  O   UNL     1       1.936  -1.491  -3.395  0.00  0.00    -0.502 OA
ATOM     22  H   UNL     1       2.855  -1.240  -3.231  0.00  0.00    +0.292 HD
ENDBRANCH  19  21
BRANCH  14  23
ATOM     23  O   UNL     1       0.671  -0.465  -1.174  0.00  0.00    -0.489 OA
BRANCH  23  25
ATOM     24  C   UNL     1      -0.019   1.526   0.010  0.00  0.00    +0.048 C 
ATOM     25  C   UNL     1       0.002  -0.004   0.002  0.00  0.00    +0.226 C 
ENDBRANCH  23  25
ENDBRANCH  14  23
ENDBRANCH   1  16
BRANCH   3  26
ATOM     26  N   UNL     1      -1.958  -7.900  -1.076  0.00  0.00    -0.328 N 
ATOM     27  H   UNL     1      -2.837  -7.528  -1.252  0.00  0.00    +0.145 HD
ATOM     28  H   UNL     1      -1.765  -8.820  -1.313  0.00  0.00    +0.145 HD
ENDBRANCH   3  26
BRANCH   2  29
ATOM     29  C   UNL     1      -2.573  -5.306  -0.435  0.00  0.00    +0.101 C 
ATOM     30  N   UNL     1      -3.606  -4.884  -0.650  0.00  0.00    -0.191 NA
ENDBRANCH   2  29
TORSDOF 6
