REMARK  Name = ZINC32843219
REMARK  4 active torsions:
REMARK  status: ('A' for Active; 'I' for Inactive)
REMARK    1  A    between atoms: C_1  and  C_2
REMARK    2  A    between atoms: N_4  and  C_5
REMARK    3  A    between atoms: C_5  and  C_7
REMARK    4  A    between atoms: C_5  and  C_12
REMARK                            x       y       z     vdW  Elec       q    Type
REMARK                         _______ _______ _______ _____ _____    ______ ____
ROOT
ATOM      1  C   UNL     1      -0.802  -0.420  -1.241  0.00  0.00    +0.239 C 
ATOM      2  O   UNL     1      -1.605   0.332  -1.752  0.00  0.00    -0.273 OA
ATOM      3  N   UNL     1      -0.586  -1.638  -1.775  0.00  0.00    -0.263 N 
ATOM      4  C   UNL     1      -1.198  -1.991  -2.967  0.00  0.00    +0.165 A 
ATOM      5  N   UNL     1      -1.111  -3.117  -3.635  0.00  0.00    -0.225 NA
ATOM      6  C   UNL     1      -1.770  -3.326  -4.796  0.00  0.00    +0.080 A 
ATOM      7  C   UNL     1      -1.763  -4.483  -5.608  0.00  0.00    +0.030 A 
ATOM      8  C   UNL     1      -2.494  -4.531  -6.766  0.00  0.00    +0.017 A 
ATOM      9  C   UNL     1      -3.265  -3.454  -7.182  0.00  0.00    +0.019 A 
ATOM     10  C   UNL     1      -3.295  -2.305  -6.411  0.00  0.00    +0.032 A 
ATOM     11  C   UNL     1      -2.565  -2.249  -5.250  0.00  0.00    +0.042 A 
ATOM     12  S   UNL     1      -2.313  -1.031  -3.982  0.00  0.00    -0.052 S 
ATOM     13 BR   UNL     1      -4.263  -3.555  -8.785  0.00  0.00    -0.050 Br
ATOM     14  H   UNL     1       0.077  -2.352  -1.265  0.00  0.00    +0.157 HD
ENDROOT
BRANCH   1  15
ATOM     15  C   UNL     1      -0.047   0.008  -0.009  0.00  0.00    +0.162 C 
BRANCH  15  19
ATOM     16  C   UNL     1      -0.992   3.716   0.070  0.00  0.00    +0.109 C 
ATOM     17  C   UNL     1      -1.076   2.212   0.136  0.00  0.00    +0.211 C 
ATOM     18  O   UNL     1      -2.150   1.671   0.287  0.00  0.00    -0.276 OA
ATOM     19  N   UNL     1       0.044   1.470   0.025  0.00  0.00    -0.304 N 
ATOM     20  H   UNL     1       1.026   1.961  -0.039  0.00  0.00    +0.149 HD
ENDBRANCH  15  19
BRANCH  15  21
ATOM     21  C   UNL     1      -0.784  -0.486   1.238  0.00  0.00    +0.018 C 
ATOM     22  C   UNL     1      -0.056  -0.001   2.509  0.00  0.00    +0.006 C 
ATOM     23  C   UNL     1      -0.193  -1.184   3.499  0.00  0.00    +0.000 C 
ATOM     24  C   UNL     1      -0.034  -2.420   2.580  0.00  0.00    +0.000 C 
ATOM     25  C   UNL     1      -0.770  -2.024   1.283  0.00  0.00    +0.006 C 
ENDBRANCH  15  21
ENDBRANCH   1  15
TORSDOF 3
