REMARK  Name = ZINC10080053
REMARK  8 active torsions:
REMARK  status: ('A' for Active; 'I' for Inactive)
REMARK    1  A    between atoms: C_1  and  C_2
REMARK    2  A    between atoms: C_2  and  O_3
REMARK    3  A    between atoms: O_3  and  C_4
REMARK    4  A    between atoms: C_4  and  C_6
REMARK    5  A    between atoms: C_7  and  C_21
REMARK    6  A    between atoms: C_12  and  C_14
REMARK    7  A    between atoms: C_21  and  S_22
REMARK    8  A    between atoms: S_22  and  C_23
REMARK                            x       y       z     vdW  Elec       q    Type
REMARK                         _______ _______ _______ _____ _____    ______ ____
ROOT
ATOM      1  C   UNL     1      -0.900  -0.676  -0.745  0.00  0.00    +0.079 C 
ATOM      2  C   UNL     1       0.104  -0.013  -0.133  0.00  0.00    +0.034 C 
ATOM      3  N   UNL     1       1.032  -0.675   0.619  0.00  0.00    -0.272 N 
ATOM      4  C   UNL     1       1.027  -2.002   0.805  0.00  0.00    +0.304 C 
ATOM      5  O   UNL     1       1.895  -2.502   1.493  0.00  0.00    -0.252 OA
ATOM      6  N   UNL     1       0.091  -2.799   0.254  0.00  0.00    -0.288 N 
ATOM      7  C   UNL     1      -0.956  -2.181  -0.577  0.00  0.00    +0.144 C 
ATOM      8  H   UNL     1       1.733  -0.156   1.043  0.00  0.00    +0.156 HD
ATOM      9  H   UNL     1       0.106  -3.758   0.402  0.00  0.00    +0.151 HD
ENDROOT
BRANCH   7  10
ATOM     10  C   UNL     1      -2.293  -2.527   0.028  0.00  0.00    -0.022 A 
ATOM     11  C   UNL     1      -2.451  -2.528   1.401  0.00  0.00    +0.007 A 
ATOM     12  C   UNL     1      -3.678  -2.839   1.956  0.00  0.00    +0.020 A 
ATOM     13  C   UNL     1      -4.745  -3.160   1.136  0.00  0.00    +0.041 A 
ATOM     14  C   UNL     1      -4.585  -3.165  -0.238  0.00  0.00    +0.020 A 
ATOM     15  C   UNL     1      -3.359  -2.848  -0.791  0.00  0.00    +0.007 A 
ATOM     16 CL   UNL     1      -6.285  -3.559   1.832  0.00  0.00    -0.084 Cl
ENDBRANCH   7  10
BRANCH   1  17
ATOM     17  C   UNL     1      -1.865   0.009  -1.519  0.00  0.00    +0.339 C 
ATOM     18  O   UNL     1      -1.787   0.002  -2.734  0.00  0.00    -0.245 OA
BRANCH  17  19
ATOM     19  O   UNL     1      -2.871   0.672  -0.912  0.00  0.00    -0.462 OA
BRANCH  19  21
ATOM     20  C   UNL     1      -4.869   2.032  -0.894  0.00  0.00    +0.048 C 
ATOM     21  C   UNL     1      -3.809   1.342  -1.756  0.00  0.00    +0.229 C 
ENDBRANCH  19  21
ENDBRANCH  17  19
ENDBRANCH   1  17
BRANCH   2  22
ATOM     22  C   UNL     1       0.201   1.484  -0.279  0.00  0.00    +0.128 C 
BRANCH  22  23
ATOM     23  S   UNL     1      -0.352   2.277   1.256  0.00  0.00    -0.078 S 
BRANCH  23  24
ATOM     24  C   UNL     1      -0.183   4.001   0.930  0.00  0.00    +0.211 A 
ATOM     25  N   UNL     1       0.258   4.528  -0.209  0.00  0.00    -0.183 NA
ATOM     26  C   UNL     1       0.260   5.854  -0.119  0.00  0.00    +0.254 A 
ATOM     27  N   UNL     1       0.609   6.816  -0.981  0.00  0.00    -0.219 NA
ATOM     28  C   UNL     1       0.519   8.084  -0.648  0.00  0.00    +0.116 A 
ATOM     29  C   UNL     1       0.054   8.450   0.620  0.00  0.00    +0.040 A 
ATOM     30  C   UNL     1      -0.302   7.480   1.502  0.00  0.00    +0.118 A 
ATOM     31  N   UNL     1      -0.197   6.178   1.127  0.00  0.00    -0.203 N 
ATOM     32  N   UNL     1      -0.478   4.968   1.776  0.00  0.00    -0.137 NA
ENDBRANCH  23  24
ENDBRANCH  22  23
ENDBRANCH   2  22
TORSDOF 7
