REMARK  Name = ZINC33937017
REMARK  10 active torsions:
REMARK  status: ('A' for Active; 'I' for Inactive)
REMARK    1  A    between atoms: C_1  and  C_2
REMARK    2  A    between atoms: C_2  and  C_3
REMARK    3  A    between atoms: C_3  and  C_5
REMARK    4  A    between atoms: C_3  and  N_17
REMARK    5  A    between atoms: N_9  and  C_10
REMARK    6  A    between atoms: C_10  and  C_11
REMARK    7  A    between atoms: N_17  and  C_18
REMARK    8  A    between atoms: N_17  and  C_24
REMARK    9  A    between atoms: C_18  and  C_19
REMARK   10  A    between atoms: C_24  and  C_25
REMARK                            x       y       z     vdW  Elec       q    Type
REMARK                         _______ _______ _______ _____ _____    ______ ____
ROOT
ATOM      1  N   UNL     1      -0.817  -0.036  -2.708  0.00  0.00    +0.392 N 
ATOM      2  H   UNL     1      -1.638  -0.581  -2.489  0.00  0.00    -0.080 HD
ENDROOT
BRANCH   1   3
ATOM      3  C   UNL     1       0.144  -0.131  -1.602  0.00  0.00    +0.003 C 
BRANCH   3   4
ATOM      4  C   UNL     1       1.354   0.712  -1.913  0.00  0.00    +0.138 A 
ATOM      5  N   UNL     1       1.987   0.779  -3.059  0.00  0.00    -0.115 NA
ATOM      6  N   UNL     1       2.964   1.608  -2.925  0.00  0.00    -0.023 NA
ATOM      7  N   UNL     1       2.972   2.071  -1.724  0.00  0.00    -0.044 NA
ATOM      8  N   UNL     1       1.991   1.546  -1.070  0.00  0.00    -0.228 N 
BRANCH   8   9
ATOM      9  C   UNL     1       1.638   1.807   0.328  0.00  0.00    +0.178 C 
BRANCH   9  10
ATOM     10  C   UNL     1       2.493   0.926   1.242  0.00  0.00    +0.140 C 
ATOM     11  C   UNL     1       2.200   1.251   2.728  0.00  0.00    +0.035 C 
ATOM     12  C   UNL     1       2.608  -0.085   3.408  0.00  0.00    +0.031 C 
ATOM     13  C   UNL     1       2.207  -1.129   2.344  0.00  0.00    +0.160 C 
ATOM     14  O   UNL     1       2.135  -0.456   1.080  0.00  0.00    -0.375 OA
ENDBRANCH   9  10
ENDBRANCH   8   9
ENDBRANCH   3   4
BRANCH   3  16
ATOM     15  C   UNL     1      -0.644  -2.433  -1.035  0.00  0.00    +0.002 C 
ATOM     16  C   UNL     1       0.572  -1.589  -1.422  0.00  0.00    -0.011 C 
ENDBRANCH   3  16
ENDBRANCH   1   3
BRANCH   1  17
ATOM     17  C   UNL     1      -1.200   1.369  -2.904  0.00  0.00    -0.034 C 
BRANCH  17  18
ATOM     18  C   UNL     1      -1.966   1.853  -1.699  0.00  0.00    -0.027 A 
ATOM     19  C   UNL     1      -1.514   2.534  -0.618  0.00  0.00    +0.009 A 
ATOM     20  C   UNL     1      -2.408   2.880   0.379  0.00  0.00    +0.008 A 
ATOM     21  C   UNL     1      -3.709   2.526   0.245  0.00  0.00    +0.045 A 
ATOM     22  S   UNL     1      -3.704   1.685  -1.329  0.00  0.00    -0.103 S 
ENDBRANCH  17  18
ENDBRANCH   1  17
BRANCH   1  23
ATOM     23  C   UNL     1      -0.201  -0.551  -3.938  0.00  0.00    -0.036 C 
BRANCH  23  24
ATOM     24  C   UNL     1      -1.231  -0.587  -5.038  0.00  0.00    +0.001 A 
ATOM     25  C   UNL     1      -1.311   0.439  -5.923  0.00  0.00    +0.017 A 
ATOM     26  C   UNL     1      -2.320   0.374  -6.979  0.00  0.00    +0.002 A 
ATOM     27  C   UNL     1      -2.450   1.404  -7.919  0.00  0.00    +0.059 A 
ATOM     28  C   UNL     1      -3.410   1.315  -8.905  0.00  0.00    +0.163 A 
ATOM     29  C   UNL     1      -4.252   0.200  -8.969  0.00  0.00    +0.164 A 
ATOM     30  C   UNL     1      -4.132  -0.822  -8.043  0.00  0.00    +0.075 A 
ATOM     31  C   UNL     1      -3.171  -0.747  -7.043  0.00  0.00    +0.053 A 
ATOM     32  N   UNL     1      -3.037  -1.757  -6.112  0.00  0.00    -0.322 N 
ATOM     33  H   UNL     1      -3.623  -2.529  -6.157  0.00  0.00    +0.169 HD
ATOM     34  C   UNL     1      -2.103  -1.690  -5.148  0.00  0.00    +0.251 A 
ATOM     35  O   UNL     1      -2.010  -2.603  -4.346  0.00  0.00    -0.268 OA
ATOM     36  O   UNL     1      -5.196   0.101  -9.944  0.00  0.00    -0.485 OA
ATOM     37  C   UNL     1      -5.543   1.308 -10.630  0.00  0.00    +0.270 C 
ATOM     38  C   UNL     1      -4.246   2.034 -11.012  0.00  0.00    +0.270 C 
ATOM     39  O   UNL     1      -3.526   2.326  -9.809  0.00  0.00    -0.485 OA
ENDBRANCH  23  24
ENDBRANCH   1  23
TORSDOF 9
