REMARK  Name = ZINC01433842
REMARK  5 active torsions:
REMARK  status: ('A' for Active; 'I' for Inactive)
REMARK    1  A    between atoms: C_9  and  C_11
REMARK    2  A    between atoms: C_13  and  N_18
REMARK    3  A    between atoms: C_16  and  O_17
REMARK    4  A    between atoms: C_19  and  C_20
REMARK    5  A    between atoms: C_25  and  O_26
REMARK                            x       y       z     vdW  Elec       q    Type
REMARK                         _______ _______ _______ _____ _____    ______ ____
ROOT
ATOM      1  C   UNL     1       3.746  -3.302  -0.052  0.00  0.00    +0.061 A 
ATOM      2  C   UNL     1       5.137  -3.233  -0.060  0.00  0.00    +0.043 A 
ATOM      3  C   UNL     1       5.888  -4.408  -0.073  0.00  0.00    +0.065 A 
ATOM      4  C   UNL     1       5.243  -5.649  -0.079  0.00  0.00    +0.031 A 
ATOM      5  C   UNL     1       3.866  -5.715  -0.072  0.00  0.00    +0.048 A 
ATOM      6  C   UNL     1       3.111  -4.551  -0.053  0.00  0.00    +0.128 A 
ENDROOT
BRANCH   1  15
ATOM      7  C   UNL     1      -0.017   1.375   0.010  0.00  0.00    +0.002 A 
ATOM      8  C   UNL     1       1.170   2.095   0.002  0.00  0.00    +0.002 A 
ATOM      9  C   UNL     1       2.375   1.452  -0.013  0.00  0.00    +0.030 A 
ATOM     10  C   UNL     1       2.419   0.054  -0.021  0.00  0.00    +0.089 A 
ATOM     11  C   UNL     1       1.217  -0.676  -0.013  0.00  0.00    +0.066 A 
ATOM     12  C   UNL     1       0.002  -0.004   0.002  0.00  0.00    +0.028 A 
ATOM     13  N   UNL     1       1.575  -2.010  -0.024  0.00  0.00    -0.338 N 
ATOM     14  H   UNL     1       0.970  -2.768  -0.022  0.00  0.00    +0.167 HD
ATOM     15  C   UNL     1       2.943  -2.062  -0.038  0.00  0.00    +0.143 A 
ATOM     16  N   UNL     1       3.433  -0.846  -0.035  0.00  0.00    -0.228 NA
ENDBRANCH   1  15
BRANCH   6  17
ATOM     17  O   UNL     1       1.755  -4.623  -0.041  0.00  0.00    -0.506 OA
ATOM     18  H   UNL     1       1.354  -4.638  -0.920  0.00  0.00    +0.292 HD
ENDBRANCH   6  17
BRANCH   3  19
ATOM     19  N   UNL     1       7.255  -4.346  -0.081  0.00  0.00    -0.255 NA
ATOM     20  C   UNL     1       7.947  -5.121   0.708  0.00  0.00    +0.123 C 
BRANCH  20  21
ATOM     21  C   UNL     1       9.416  -5.055   0.699  0.00  0.00    +0.037 A 
ATOM     22  C   UNL     1      10.162  -5.888   1.539  0.00  0.00    +0.033 A 
ATOM     23  C   UNL     1      11.539  -5.822   1.526  0.00  0.00    +0.043 A 
ATOM     24  C   UNL     1      12.188  -4.932   0.684  0.00  0.00    +0.043 A 
ATOM     25  C   UNL     1      11.463  -4.103  -0.151  0.00  0.00    +0.084 A 
ATOM     26  C   UNL     1      10.077  -4.160  -0.155  0.00  0.00    +0.144 A 
ATOM     27 CL   UNL     1      12.287  -2.993  -1.200  0.00  0.00    -0.080 Cl
ATOM     28 CL   UNL     1      12.464  -6.856   2.570  0.00  0.00    -0.083 Cl
BRANCH  26  29
ATOM     29  O   UNL     1       9.364  -3.351  -0.979  0.00  0.00    -0.505 OA
ATOM     30  H   UNL     1       9.133  -2.497  -0.588  0.00  0.00    +0.292 HD
ENDBRANCH  26  29
ENDBRANCH  20  21
ENDBRANCH   3  19
TORSDOF 5
