REMARK  Name = ZINC63214761
REMARK  5 active torsions:
REMARK  status: ('A' for Active; 'I' for Inactive)
REMARK    1  A    between atoms: C_3  and  S_18
REMARK    2  A    between atoms: C_6  and  N_7
REMARK    3  A    between atoms: N_7  and  C_8
REMARK    4  A    between atoms: C_15  and  N_17
REMARK    5  A    between atoms: S_18  and  C_21
REMARK                            x       y       z     vdW  Elec       q    Type
REMARK                         _______ _______ _______ _____ _____    ______ ____
ROOT
ATOM      1  N   UNL     1      -1.197  -0.720   0.010  0.00  0.00    -0.343 N 
ATOM      2  H   UNL     1      -2.044  -0.248   0.021  0.00  0.00    +0.146 HD
ENDROOT
BRANCH   1   3
ATOM      3  C   UNL     1      -1.175  -2.185   0.002  0.00  0.00    +0.056 C 
ATOM      4  C   UNL     1      -1.015  -2.672  -1.451  0.00  0.00    +0.020 C 
ATOM      5  C   UNL     1      -1.395  -4.118  -1.619  0.00  0.00    +0.002 C 
ATOM      6  C   UNL     1      -2.871  -4.188  -2.061  0.00  0.00    +0.000 C 
ATOM      7  C   UNL     1      -3.792  -4.028  -0.946  0.00  0.00    -0.002 C 
ATOM      8  C   UNL     1      -3.650  -2.655  -0.258  0.00  0.00    -0.014 C 
ATOM      9  C   UNL     1      -2.465  -2.705   0.665  0.00  0.00    -0.055 C 
BRANCH   9  10
ATOM     10  N   UNL     1      -2.754  -1.885   1.849  0.00  0.00    +0.381 N 
ATOM     11  H   UNL     1      -2.877  -0.924   1.571  0.00  0.00    -0.090 HD
ATOM     12  H   UNL     1      -3.598  -2.219   2.291  0.00  0.00    -0.090 HD
ATOM     13  H   UNL     1      -1.986  -1.952   2.500  0.00  0.00    -0.090 HD
ENDBRANCH   9  10
ENDBRANCH   1   3
BRANCH   1  19
ATOM     14  C   UNL     1      -0.017   1.385   0.010  0.00  0.00    +0.025 A 
ATOM     15  C   UNL     1       1.171   2.090   0.002  0.00  0.00    +0.029 A 
ATOM     16  C   UNL     1       2.377   1.415  -0.013  0.00  0.00    +0.095 A 
ATOM     17  C   UNL     1       2.400   0.032  -0.021  0.00  0.00    +0.029 A 
ATOM     18  C   UNL     1       1.216  -0.679  -0.014  0.00  0.00    +0.025 A 
ATOM     19  C   UNL     1       0.002  -0.004   0.002  0.00  0.00    +0.027 A 
BRANCH  16  20
ATOM     20  S   UNL     1       3.890   2.319  -0.024  0.00  0.00    +0.058 S 
ATOM     21  O   UNL     1       4.828   1.448  -0.641  0.00  0.00    -0.164 OA
ATOM     22  O   UNL     1       3.562   3.567  -0.618  0.00  0.00    -0.164 OA
BRANCH  20  23
ATOM     23  C   UNL     1       4.308   2.549   1.726  0.00  0.00    +0.485 C 
ATOM     24  F   UNL     1       3.284   3.261   2.360  0.00  0.00    -0.183 F 
ATOM     25  F   UNL     1       4.456   1.300   2.338  0.00  0.00    -0.183 F 
ENDBRANCH  20  23
ENDBRANCH  16  20
ENDBRANCH   1  19
TORSDOF 5
