REMARK  Name = ZINC66556780
REMARK  7 active torsions:
REMARK  status: ('A' for Active; 'I' for Inactive)
REMARK    1  A    between atoms: C_1  and  C_2
REMARK    2  A    between atoms: C_6  and  C_7
REMARK    3  A    between atoms: N_9  and  N_10
REMARK    4  A    between atoms: C_11  and  C_13
REMARK    5  A    between atoms: C_13  and  C_15
REMARK    6  A    between atoms: C_13  and  S_16
REMARK    7  A    between atoms: S_16  and  C_17
REMARK                            x       y       z     vdW  Elec       q    Type
REMARK                         _______ _______ _______ _____ _____    ______ ____
ROOT
ATOM      1  N   UNL     1       0.130  -0.754   4.893  0.00  0.00    -0.233 N 
ATOM      2  C   UNL     1       0.123  -1.643   5.906  0.00  0.00    +0.242 C 
ATOM      3  O   UNL     1       0.147  -2.832   5.669  0.00  0.00    -0.273 OA
ATOM      4  H   UNL     1       0.111   0.197   5.083  0.00  0.00    +0.173 HD
ENDROOT
BRANCH   1   7
ATOM      5  C   UNL     1       0.171  -0.314   2.554  0.00  0.00    +0.267 C 
ATOM      6  O   UNL     1       0.147   0.879   2.792  0.00  0.00    -0.268 OA
ATOM      7  N   UNL     1       0.165  -1.203   3.567  0.00  0.00    -0.230 N 
ATOM      8  H   UNL     1       0.184  -2.154   3.377  0.00  0.00    +0.173 HD
BRANCH   5  14
ATOM      9  C   UNL     1       0.195   1.462  -0.005  0.00  0.00    +0.045 C 
ATOM     10  C   UNL     1       0.220  -0.045  -0.007  0.00  0.00    -0.031 A 
ATOM     11  C   UNL     1       0.262  -0.774  -1.171  0.00  0.00    +0.011 A 
ATOM     12  C   UNL     1       0.282  -2.128  -1.101  0.00  0.00    +0.046 A 
ATOM     13  S   UNL     1       0.245  -2.455   0.546  0.00  0.00    -0.092 S 
ATOM     14  C   UNL     1       0.207  -0.784   1.166  0.00  0.00    +0.078 A 
ENDBRANCH   5  14
ENDBRANCH   1   7
BRANCH   2  15
ATOM     15  C   UNL     1       0.086  -1.159   7.333  0.00  0.00    +0.135 C 
ATOM     16  C   UNL     1      -1.364  -0.900   7.746  0.00  0.00    +0.029 C 
BRANCH  15  17
ATOM     17  S   UNL     1       0.807  -2.422   8.418  0.00  0.00    -0.111 S 
BRANCH  17  18
ATOM     18  C   UNL     1       2.517  -2.421   7.995  0.00  0.00    +0.027 A 
ATOM     19  C   UNL     1       3.014  -1.479   7.102  0.00  0.00    +0.016 A 
ATOM     20  C   UNL     1       4.355  -1.481   6.773  0.00  0.00    +0.001 A 
ATOM     21  C   UNL     1       5.204  -2.419   7.331  0.00  0.00    +0.001 A 
ATOM     22  C   UNL     1       4.715  -3.359   8.220  0.00  0.00    +0.021 A 
ATOM     23  C   UNL     1       3.375  -3.359   8.559  0.00  0.00    +0.054 A 
ATOM     24 CL   UNL     1       2.763  -4.534   9.681  0.00  0.00    -0.082 Cl
ENDBRANCH  17  18
ENDBRANCH  15  17
ENDBRANCH   2  15
TORSDOF 5
