REMARK  Name = ZINC21132920
REMARK  4 active torsions:
REMARK  status: ('A' for Active; 'I' for Inactive)
REMARK    1  A    between atoms: C_6  and  N_7
REMARK    2  A    between atoms: C_8  and  C_10
REMARK    3  A    between atoms: C_10  and  C_11
REMARK    4  A    between atoms: N_17  and  C_18
REMARK                            x       y       z     vdW  Elec       q    Type
REMARK                         _______ _______ _______ _____ _____    ______ ____
ROOT
ATOM      1  C   UNL     1       3.869  -4.725  -0.378  0.00  0.00    +0.149 C 
ATOM      2  C   UNL     1       3.928  -6.232  -0.566  0.00  0.00    +0.232 C 
ATOM      3  O   UNL     1       3.511  -7.002   0.272  0.00  0.00    -0.274 OA
ATOM      4  N   UNL     1       4.463  -6.650  -1.701  0.00  0.00    -0.264 N 
ATOM      5  C   UNL     1       4.939  -5.776  -2.658  0.00  0.00    +0.157 C 
ATOM      6  N   UNL     1       5.484  -6.060  -3.807  0.00  0.00    -0.260 NA
ATOM      7  S   UNL     1       4.634  -4.164  -1.950  0.00  0.00    -0.077 S 
ATOM      8  H   UNL     1       4.540  -7.728  -1.908  0.00  0.00    +0.157 HD
ENDROOT
BRANCH   6   9
ATOM      9  C   UNL     1       5.932  -4.982  -4.692  0.00  0.00    +0.108 C 
ATOM     10  C   UNL     1       5.182  -5.071  -6.023  0.00  0.00    +0.027 C 
ATOM     11  C   UNL     1       5.649  -3.945  -6.948  0.00  0.00    +0.002 C 
ATOM     12  C   UNL     1       7.153  -4.082  -7.199  0.00  0.00    +0.000 C 
ATOM     13  C   UNL     1       7.902  -3.993  -5.867  0.00  0.00    +0.002 C 
ATOM     14  C   UNL     1       7.435  -5.119  -4.943  0.00  0.00    +0.027 C 
ENDBRANCH   6   9
BRANCH   1  15
ATOM     15  C   UNL     1       2.424  -4.237  -0.260  0.00  0.00    +0.120 C 
BRANCH  15  17
ATOM     16  N   UNL     1       1.237  -2.080  -0.021  0.00  0.00    -0.285 N 
ATOM     17  C   UNL     1       2.409  -2.735  -0.138  0.00  0.00    +0.219 C 
ATOM     18  O   UNL     1       3.451  -2.115  -0.144  0.00  0.00    -0.275 OA
ATOM     19  H   UNL     1       0.298  -2.645   0.072  0.00  0.00    +0.155 HD
BRANCH  16  25
ATOM     20  C   UNL     1       2.137   0.031  -0.773  0.00  0.00    +0.024 A 
ATOM     21  C   UNL     1       2.113   1.412  -0.769  0.00  0.00    +0.017 A 
ATOM     22  C   UNL     1       1.170   2.086  -0.013  0.00  0.00    +0.018 A 
ATOM     23  C   UNL     1       0.249   1.379   0.739  0.00  0.00    +0.017 A 
ATOM     24  C   UNL     1       0.269  -0.002   0.738  0.00  0.00    +0.024 A 
ATOM     25  C   UNL     1       1.214  -0.681  -0.019  0.00  0.00    +0.033 A 
ATOM     26 BR   UNL     1       1.140   3.977  -0.010  0.00  0.00    -0.050 Br
ENDBRANCH  16  25
ENDBRANCH  15  17
ENDBRANCH   1  15
TORSDOF 4
