REMARK  Name = ZINC13682348
REMARK  4 active torsions:
REMARK  status: ('A' for Active; 'I' for Inactive)
REMARK    1  A    between atoms: C_1  and  C_2
REMARK    2  A    between atoms: C_4  and  C_32
REMARK    3  A    between atoms: C_11  and  C_13
REMARK    4  A    between atoms: C_19  and  C_25
REMARK                            x       y       z     vdW  Elec       q    Type
REMARK                         _______ _______ _______ _____ _____    ______ ____
ROOT
ATOM      1  C   UNL     1       0.068   2.164   0.624  0.00  0.00    +0.066 C 
ATOM      2  C   UNL     1       0.168   0.670   0.460  0.00  0.00    +0.044 A 
ATOM      3  C   UNL     1       0.171   0.102  -0.805  0.00  0.00    +0.046 A 
ATOM      4  C   UNL     1       0.265  -1.277  -0.911  0.00  0.00    +0.044 A 
ATOM      5  N   UNL     1       0.349  -2.004   0.190  0.00  0.00    -0.216 NA
ATOM      6  C   UNL     1       0.344  -1.430   1.383  0.00  0.00    +0.253 A 
ATOM      7  N   UNL     1       0.261  -0.116   1.519  0.00  0.00    -0.216 NA
ATOM      8  N   UNL     1       0.434  -2.228   2.522  0.00  0.00    -0.183 N 
ATOM      9  C   UNL     1       0.436  -1.791   3.801  0.00  0.00    +0.136 A 
ATOM     10  C   UNL     1       0.525  -2.885   4.615  0.00  0.00    +0.028 A 
ATOM     11  C   UNL     1       0.593  -4.021   3.803  0.00  0.00    +0.099 A 
ATOM     12  N   UNL     1       0.532  -3.628   2.544  0.00  0.00    -0.162 NA
ATOM     13  C   UNL     1       0.531  -2.776   6.118  0.00  0.00    +0.066 C 
ATOM     14  C   UNL     1       1.133  -1.419   6.499  0.00  0.00    +0.109 C 
ATOM     15  C   UNL     1       0.587  -0.320   5.632  0.00  0.00    +0.219 C 
ATOM     16  O   UNL     1       0.352   0.760   6.131  0.00  0.00    -0.275 OA
ATOM     17  N   UNL     1       0.350  -0.498   4.315  0.00  0.00    -0.270 N 
ATOM     18  C   UNL     1       0.270  -1.939  -2.265  0.00  0.00    +0.066 C 
ATOM     19  H   UNL     1       0.127   0.253   3.743  0.00  0.00    +0.156 HD
ENDROOT
BRANCH  13  20
ATOM     20  C   UNL     1       1.366  -3.886   6.705  0.00  0.00    -0.004 A 
ATOM     21  C   UNL     1       2.664  -4.077   6.272  0.00  0.00    +0.007 A 
ATOM     22  C   UNL     1       3.429  -5.095   6.809  0.00  0.00    +0.000 A 
ATOM     23  C   UNL     1       2.897  -5.922   7.781  0.00  0.00    +0.003 A 
ATOM     24  C   UNL     1       1.599  -5.732   8.216  0.00  0.00    +0.038 A 
ATOM     25  C   UNL     1       0.834  -4.710   7.682  0.00  0.00    +0.127 A 
ATOM     26  F   UNL     1      -0.434  -4.520   8.110  0.00  0.00    -0.205 F 
ENDBRANCH  13  20
BRANCH  11  27
ATOM     27  C   UNL     1       0.707  -5.424   4.274  0.00  0.00    +0.002 A 
ATOM     28  C   UNL     1      -0.102  -5.881   5.312  0.00  0.00    +0.010 A 
ATOM     29  C   UNL     1       0.008  -7.187   5.746  0.00  0.00    +0.001 A 
ATOM     30  C   UNL     1       0.920  -8.040   5.153  0.00  0.00    +0.000 A 
ATOM     31  C   UNL     1       1.726  -7.592   4.122  0.00  0.00    +0.001 A 
ATOM     32  C   UNL     1       1.620  -6.290   3.675  0.00  0.00    +0.010 A 
ENDBRANCH  11  27
TORSDOF 2
