REMARK  Name = ZINC63362084
REMARK  6 active torsions:
REMARK  status: ('A' for Active; 'I' for Inactive)
REMARK    1  A    between atoms: C_1  and  C_2
REMARK    2  A    between atoms: C_5  and  C_8
REMARK    3  A    between atoms: C_8  and  N_9
REMARK    4  A    between atoms: C_10  and  C_12
REMARK    5  A    between atoms: C_17  and  N_18
REMARK    6  A    between atoms: C_21  and  C_37
REMARK                            x       y       z     vdW  Elec       q    Type
REMARK                         _______ _______ _______ _____ _____    ______ ____
ROOT
ATOM      1  N   UNL     1       2.342  -8.843  -0.059  0.00  0.00    -0.192 N 
ATOM      2  C   UNL     1       1.773  -9.344  -1.175  0.00  0.00    +0.253 C 
ATOM      3  O   UNL     1       2.037  -9.059  -2.324  0.00  0.00    -0.272 OA
ATOM      4  C   UNL     1       0.739 -10.337  -0.695  0.00  0.00    +0.137 C 
ATOM      5  C   UNL     1      -0.654  -9.947  -1.189  0.00  0.00    +0.139 C 
ATOM      6  C   UNL     1      -1.458  -9.502   0.025  0.00  0.00    -0.034 C 
ATOM      7  C   UNL     1      -1.891  -8.274  -0.247  0.00  0.00    -0.001 A 
ATOM      8  C   UNL     1      -2.762  -7.357   0.506  0.00  0.00    +0.010 A 
ATOM      9  C   UNL     1      -2.999  -6.149  -0.069  0.00  0.00    +0.001 A 
ATOM     10  C   UNL     1      -2.462  -5.765  -1.302  0.00  0.00    +0.002 A 
ATOM     11  C   UNL     1      -1.655  -6.546  -2.064  0.00  0.00    +0.026 A 
ATOM     12  C   UNL     1      -1.338  -7.843  -1.566  0.00  0.00    +0.043 A 
ATOM     13  N   UNL     1      -0.609  -8.800  -2.098  0.00  0.00    -0.375 N 
ATOM     14  C   UNL     1      -1.613 -10.333   1.275  0.00  0.00    +0.052 C 
ATOM     15  C   UNL     1      -0.198 -10.761   1.710  0.00  0.00    +0.115 C 
ATOM     16  N   UNL     1       0.761 -10.168   0.773  0.00  0.00    -0.268 N 
ATOM     17  C   UNL     1       1.786  -9.349   1.049  0.00  0.00    +0.317 C 
ATOM     18  O   UNL     1       2.164  -9.093   2.175  0.00  0.00    -0.252 OA
ATOM     19  C   UNL     1       1.108 -11.766  -1.098  0.00  0.00    +0.044 C 
ATOM     20  H   UNL     1      -0.124  -8.759  -2.937  0.00  0.00    +0.160 HD
ENDROOT
BRANCH   1  26
ATOM     21  C   UNL     1       3.108  -6.541  -0.051  0.00  0.00    +0.059 A 
ATOM     22  C   UNL     1       4.160  -5.624  -0.046  0.00  0.00    +0.015 A 
ATOM     23  C   UNL     1       5.464  -6.073  -0.055  0.00  0.00    +0.001 A 
ATOM     24  C   UNL     1       5.735  -7.431  -0.070  0.00  0.00    +0.002 A 
ATOM     25  C   UNL     1       4.704  -8.349  -0.075  0.00  0.00    +0.025 A 
ATOM     26  C   UNL     1       3.386  -7.915  -0.060  0.00  0.00    +0.058 A 
BRANCH  21  28
ATOM     27  N   UNL     1       1.447  -4.746  -0.032  0.00  0.00    -0.307 N 
ATOM     28  C   UNL     1       1.710  -6.067  -0.040  0.00  0.00    +0.246 C 
ATOM     29  O   UNL     1       0.796  -6.870  -0.040  0.00  0.00    -0.270 OA
ATOM     30  H   UNL     1       2.176  -4.106  -0.032  0.00  0.00    +0.149 HD
BRANCH  27  31
ATOM     31  C   UNL     1       0.059  -4.275  -0.021  0.00  0.00    +0.139 C 
BRANCH  31  36
ATOM     32  C   UNL     1      -0.018   1.503   0.010  0.00  0.00    +0.044 C 
ATOM     33  C   UNL     1       0.002  -0.004   0.002  0.00  0.00    -0.050 A 
ATOM     34  C   UNL     1       0.006  -0.689  -1.199  0.00  0.00    +0.003 A 
ATOM     35  C   UNL     1       0.025  -2.071  -1.206  0.00  0.00    +0.005 A 
ATOM     36  C   UNL     1       0.040  -2.768  -0.013  0.00  0.00    -0.030 A 
ATOM     37  C   UNL     1       0.037  -2.084   1.188  0.00  0.00    +0.005 A 
ATOM     38  C   UNL     1       0.023  -0.702   1.195  0.00  0.00    +0.003 A 
ENDBRANCH  31  36
ENDBRANCH  27  31
ENDBRANCH  21  28
ENDBRANCH   1  26
TORSDOF 4
