REMARK  Name = ZINC08915363
REMARK  5 active torsions:
REMARK  status: ('A' for Active; 'I' for Inactive)
REMARK    1  A    between atoms: C_4  and  C_8
REMARK    2  A    between atoms: C_10  and  C_22
REMARK    3  A    between atoms: C_12  and  C_17
REMARK    4  A    between atoms: C_12  and  O_21
REMARK    5  A    between atoms: C_22  and  C_24
REMARK                            x       y       z     vdW  Elec       q    Type
REMARK                         _______ _______ _______ _____ _____    ______ ____
ROOT
ATOM      1  C   UNL     1       2.489   5.628  -0.713  0.00  0.00    +0.124 C 
ATOM      2  C   UNL     1       1.677   4.549   0.011  0.00  0.00    +0.145 C 
ATOM      3  C   UNL     1       1.452   4.997   1.459  0.00  0.00    +0.243 C 
ATOM      4  N   UNL     1       0.814   6.314   1.460  0.00  0.00    -0.264 N 
ATOM      5  C   UNL     1       1.016   7.188   0.463  0.00  0.00    +0.302 C 
ATOM      6  O   UNL     1       0.470   8.274   0.518  0.00  0.00    -0.253 OA
ATOM      7  N   UNL     1       1.795   6.912  -0.593  0.00  0.00    -0.292 N 
ATOM      8  H   UNL     1       0.233   6.561   2.197  0.00  0.00    +0.153 HD
ATOM      9  H   UNL     1       1.901   7.576  -1.292  0.00  0.00    +0.151 HD
ENDROOT
BRANCH   1  13
ATOM     10  C   UNL     1       2.883   4.593  -4.841  0.00  0.00    +0.004 A 
ATOM     11  C   UNL     1       1.680   5.076  -4.362  0.00  0.00    +0.039 A 
ATOM     12  C   UNL     1       1.549   5.406  -3.024  0.00  0.00    +0.130 A 
ATOM     13  C   UNL     1       2.628   5.263  -2.168  0.00  0.00    +0.027 A 
ATOM     14  C   UNL     1       3.831   4.779  -2.648  0.00  0.00    +0.049 A 
ATOM     15  C   UNL     1       3.958   4.444  -3.985  0.00  0.00    +0.020 A 
ATOM     16 CL   UNL     1       5.182   4.593  -1.574  0.00  0.00    -0.083 Cl
ATOM     17  F   UNL     1       0.371   5.873  -2.555  0.00  0.00    -0.205 F 
ENDBRANCH   1  13
BRANCH   3  18
ATOM     18  C   UNL     1       0.545   3.990   2.171  0.00  0.00    +0.436 C 
ATOM     19  F   UNL     1       1.152   2.729   2.162  0.00  0.00    -0.166 F 
ATOM     20  F   UNL     1       0.341   4.400   3.493  0.00  0.00    -0.166 F 
ATOM     21  F   UNL     1      -0.685   3.920   1.508  0.00  0.00    -0.166 F 
ENDBRANCH   3  18
BRANCH   3  22
ATOM     22  O   UNL     1       2.708   5.073   2.136  0.00  0.00    -0.364 OA
ATOM     23  H   UNL     1       2.640   5.351   3.060  0.00  0.00    +0.212 HD
ENDBRANCH   3  22
BRANCH   2  24
ATOM     24  C   UNL     1       2.438   3.248  -0.004  0.00  0.00    +0.179 C 
ATOM     25  O   UNL     1       3.652   3.255  -0.016  0.00  0.00    -0.291 OA
BRANCH  24  26
ATOM     26  C   UNL     1       1.739   2.021  -0.004  0.00  0.00    +0.055 A 
ATOM     27  C   UNL     1       2.243   0.725  -0.015  0.00  0.00    +0.019 A 
ATOM     28  C   UNL     1       1.331  -0.298  -0.012  0.00  0.00    +0.008 A 
ATOM     29  C   UNL     1       0.002  -0.004   0.002  0.00  0.00    +0.046 A 
ATOM     30  S   UNL     1      -0.021   1.729   0.012  0.00  0.00    -0.094 S 
ENDBRANCH  24  26
ENDBRANCH   2  24
TORSDOF 5
