REMARK  Name = ZINC38821346
REMARK  6 active torsions:
REMARK  status: ('A' for Active; 'I' for Inactive)
REMARK    1  A    between atoms: C_1  and  C_2
REMARK    2  A    between atoms: C_2  and  C_31
REMARK    3  A    between atoms: C_6  and  C_19
REMARK    4  A    between atoms: C_12  and  S_16
REMARK    5  A    between atoms: S_16  and  C_17
REMARK    6  A    between atoms: C_24  and  N_25
REMARK                            x       y       z     vdW  Elec       q    Type
REMARK                         _______ _______ _______ _____ _____    ______ ____
ROOT
ATOM      1  C   UNL     1       2.541   3.427  -2.580  0.00  0.00    +0.011 C 
ATOM      2  C   UNL     1       1.993   2.004  -2.701  0.00  0.00    -0.023 C 
ATOM      3  C   UNL     1       2.987   1.133  -3.470  0.00  0.00    +0.058 C 
ATOM      4  C   UNL     1       4.298   1.075  -2.722  0.00  0.00    +0.017 C 
ATOM      5  C   UNL     1       4.332   1.144  -1.377  0.00  0.00    +0.021 C 
ATOM      6  C   UNL     1       5.625   1.061  -0.598  0.00  0.00    +0.075 C 
ATOM      7  C   UNL     1       6.808   1.440  -1.492  0.00  0.00    +0.152 C 
ATOM      8  C   UNL     1       6.625   0.727  -2.811  0.00  0.00    +0.115 C 
ATOM      9  N   UNL     1       7.524  -0.078  -3.289  0.00  0.00    -0.213 NA
ATOM     10  C   UNL     1       8.658  -0.353  -2.632  0.00  0.00    +0.182 C 
ATOM     11  N   UNL     1       8.924   0.172  -1.445  0.00  0.00    -0.154 NA
ATOM     12  C   UNL     1       8.097   1.024  -0.844  0.00  0.00    +0.250 C 
ATOM     13  O   UNL     1       8.384   1.474   0.248  0.00  0.00    -0.273 OA
ATOM     14  N   UNL     1       5.449   0.960  -3.469  0.00  0.00    -0.305 N 
ATOM     15  C   UNL     1       3.145   1.299  -0.632  0.00  0.00    +0.162 C 
ATOM     16  O   UNL     1       3.207   1.349   0.580  0.00  0.00    -0.292 OA
ATOM     17  C   UNL     1       1.805   1.403  -1.304  0.00  0.00    +0.086 C 
ATOM     18  C   UNL     1       0.652   2.030  -3.437  0.00  0.00    +0.011 C 
ATOM     19  H   UNL     1       5.427   1.042  -4.436  0.00  0.00    +0.153 HD
ENDROOT
BRANCH   6  20
ATOM     20  C   UNL     1       5.815  -0.346  -0.095  0.00  0.00    -0.009 A 
ATOM     21  C   UNL     1       5.756  -1.410  -0.976  0.00  0.00    +0.006 A 
ATOM     22  C   UNL     1       5.930  -2.701  -0.514  0.00  0.00    +0.000 A 
ATOM     23  C   UNL     1       6.163  -2.928   0.830  0.00  0.00    +0.002 A 
ATOM     24  C   UNL     1       6.223  -1.865   1.711  0.00  0.00    +0.033 A 
ATOM     25  C   UNL     1       6.053  -0.573   1.248  0.00  0.00    +0.130 A 
BRANCH  25  26
ATOM     26  N   UNL     1       6.123   0.566   2.190  0.00  0.00    +0.057 N 
ATOM     27  O   UNL     1       6.965   0.583   3.057  0.00  0.00    -0.126 OA
ATOM     28  O   UNL     1       5.337   1.479   2.094  0.00  0.00    -0.126 OA
ENDBRANCH  25  26
ENDBRANCH   6  20
BRANCH  10  29
ATOM     29  S   UNL     1       9.830  -1.445  -3.368  0.00  0.00    -0.092 S 
ATOM     30  C   UNL     1      11.176  -1.525  -2.155  0.00  0.00    +0.093 C 
ENDBRANCH  10  29
TORSDOF 3
