REMARK  Name = ZINC39449569
REMARK  5 active torsions:
REMARK  status: ('A' for Active; 'I' for Inactive)
REMARK    1  A    between atoms: C_1  and  O_2
REMARK    2  A    between atoms: O_2  and  C_3
REMARK    3  A    between atoms: C_13  and  S_16
REMARK    4  A    between atoms: S_16  and  C_17
REMARK    5  A    between atoms: N_20  and  C_21
REMARK                            x       y       z     vdW  Elec       q    Type
REMARK                         _______ _______ _______ _____ _____    ______ ____
ROOT
ATOM      1  C   UNL     1      -1.295  -0.603   0.011  0.00  0.00    +0.210 C 
ATOM      2  C   UNL     1      -1.176  -2.091   0.361  0.00  0.00    +0.132 C 
ATOM      3  C   UNL     1      -2.508  -2.762   0.152  0.00  0.00    +0.186 C 
ATOM      4  O   UNL     1      -2.810  -3.723   0.831  0.00  0.00    -0.290 OA
ATOM      5  C   UNL     1      -3.408  -2.286  -0.826  0.00  0.00    +0.116 A 
ATOM      6  C   UNL     1      -3.091  -1.156  -1.560  0.00  0.00    +0.083 A 
ATOM      7  C   UNL     1      -4.024  -0.666  -2.582  0.00  0.00    +0.099 A 
ATOM      8  C   UNL     1      -5.234  -1.370  -2.774  0.00  0.00    +0.068 A 
ATOM      9  C   UNL     1      -6.136  -0.925  -3.737  0.00  0.00    +0.031 A 
ATOM     10  C   UNL     1      -5.799   0.208  -4.474  0.00  0.00    +0.026 A 
ATOM     11  C   UNL     1      -4.584   0.850  -4.226  0.00  0.00    +0.126 A 
ATOM     12  N   UNL     1      -3.750   0.409  -3.311  0.00  0.00    -0.252 NA
ATOM     13  C   UNL     1      -5.505  -2.557  -1.950  0.00  0.00    +0.266 A 
ATOM     14  O   UNL     1      -6.542  -3.176  -2.099  0.00  0.00    -0.267 OA
ATOM     15  N   UNL     1      -4.607  -2.959  -1.032  0.00  0.00    -0.268 N 
ATOM     16  N   UNL     1      -1.903  -0.491  -1.324  0.00  0.00    -0.315 N 
ATOM     17  H   UNL     1      -1.480   0.035  -2.020  0.00  0.00    +0.149 HD
ENDROOT
BRANCH  15  18
ATOM     18  C   UNL     1      -4.890  -4.091  -0.259  0.00  0.00    +0.097 A 
ATOM     19  C   UNL     1      -5.567  -3.960   0.946  0.00  0.00    +0.030 A 
ATOM     20  C   UNL     1      -5.845  -5.079   1.707  0.00  0.00    +0.002 A 
ATOM     21  C   UNL     1      -5.451  -6.332   1.272  0.00  0.00    +0.004 A 
ATOM     22  C   UNL     1      -4.776  -6.470   0.073  0.00  0.00    +0.053 A 
ATOM     23  C   UNL     1      -4.499  -5.354  -0.699  0.00  0.00    +0.203 A 
ATOM     24  O   UNL     1      -3.841  -5.489  -1.881  0.00  0.00    -0.286 OA
ENDBRANCH  15  18
BRANCH   1  26
ATOM     25  C   UNL     1      -0.017   1.425   0.010  0.00  0.00    +0.196 C 
ATOM     26  O   UNL     1       0.002  -0.004   0.002  0.00  0.00    -0.362 OA
ENDBRANCH   1  26
BRANCH  10  27
ATOM     27  S   UNL     1      -6.894   0.824  -5.708  0.00  0.00    -0.127 S 
ATOM     28  C   UNL     1      -6.033   2.276  -6.374  0.00  0.00    +0.090 C 
ENDBRANCH  10  27
TORSDOF 3
