REMARK  Name = ZINC23312015
REMARK  4 active torsions:
REMARK  status: ('A' for Active; 'I' for Inactive)
REMARK    1  A    between atoms: C_1  and  C_2
REMARK    2  A    between atoms: C_3  and  C_8
REMARK    3  A    between atoms: C_13  and  N_16
REMARK    4  A    between atoms: C_18  and  C_21
REMARK                            x       y       z     vdW  Elec       q    Type
REMARK                         _______ _______ _______ _____ _____    ______ ____
ROOT
ATOM      1  C   UNL     1      -2.619  11.364   0.595  0.00  0.00    +0.255 C 
ATOM      2  O   UNL     1      -3.339  12.040   1.307  0.00  0.00    -0.269 OA
ATOM      3  N   UNL     1      -2.626  10.021   0.712  0.00  0.00    -0.297 N 
ATOM      4  C   UNL     1      -3.425   9.364   1.755  0.00  0.00    +0.110 C 
ATOM      5  C   UNL     1      -2.514   8.435   2.562  0.00  0.00    +0.046 C 
ATOM      6  C   UNL     1      -1.806   7.468   1.611  0.00  0.00    +0.112 C 
ATOM      7  C   UNL     1      -0.940   8.259   0.628  0.00  0.00    +0.046 C 
ATOM      8  C   UNL     1      -1.833   9.187  -0.201  0.00  0.00    +0.110 C 
ENDROOT
BRANCH   1  11
ATOM      9  C   UNL     1      -0.850  13.873   1.052  0.00  0.00    +0.067 C 
ATOM     10  C   UNL     1      -0.935  13.124  -0.253  0.00  0.00    +0.060 A 
ATOM     11  C   UNL     1      -1.748  12.008  -0.387  0.00  0.00    +0.098 A 
ATOM     12  S   UNL     1      -1.442  11.582  -2.095  0.00  0.00    -0.048 S 
ATOM     13  C   UNL     1      -0.316  12.855  -2.449  0.00  0.00    +0.156 A 
ATOM     14  N   UNL     1      -0.242  13.503  -1.295  0.00  0.00    -0.230 NA
ATOM     15  N   UNL     1       0.337  13.125  -3.632  0.00  0.00    -0.337 N 
ATOM     16  H   UNL     1       1.028  13.979  -3.697  0.00  0.00    +0.144 HD
ATOM     17  H   UNL     1       0.168  12.486  -4.512  0.00  0.00    +0.144 HD
ENDBRANCH   1  11
BRANCH   6  18
ATOM     18  N   UNL     1      -0.960   6.555   2.383  0.00  0.00    -0.248 N 
ATOM     19  C   UNL     1       0.307   6.806   2.791  0.00  0.00    +0.139 A 
ATOM     20  C   UNL     1       0.710   5.694   3.472  0.00  0.00    +0.113 A 
ATOM     21  N   UNL     1      -0.324   4.836   3.435  0.00  0.00    -0.129 NA
ATOM     22  N   UNL     1      -1.293   5.381   2.788  0.00  0.00    -0.065 NA
BRANCH  20  23
ATOM     23  C   UNL     1       2.029   5.474   4.120  0.00  0.00    +0.011 A 
ATOM     24  C   UNL     1       2.344   4.245   4.689  0.00  0.00    +0.018 A 
ATOM     25  C   UNL     1       3.554   4.085   5.274  0.00  0.00    +0.046 A 
ATOM     26  S   UNL     1       4.308   5.683   5.027  0.00  0.00    -0.104 S 
ATOM     27  C   UNL     1       2.959   6.472   4.163  0.00  0.00    +0.055 A 
ENDBRANCH  20  23
ENDBRANCH   6  18
TORSDOF 3
