REMARK  Name = ZINC64920784
REMARK  6 active torsions:
REMARK  status: ('A' for Active; 'I' for Inactive)
REMARK    1  A    between atoms: C_1  and  C_2
REMARK    2  A    between atoms: C_2  and  C_3
REMARK    3  A    between atoms: C_10  and  C_12
REMARK    4  A    between atoms: N_17  and  S_18
REMARK    5  A    between atoms: S_18  and  C_21
REMARK    6  A    between atoms: C_26  and  C_27
REMARK                            x       y       z     vdW  Elec       q    Type
REMARK                         _______ _______ _______ _____ _____    ______ ____
ROOT
ATOM      1  S   UNL     1      -0.669   3.561   3.641  0.00  0.00    +0.062 S 
ATOM      2  O   UNL     1       0.470   3.842   4.443  0.00  0.00    -0.153 OA
ATOM      3  O   UNL     1      -0.603   3.490   2.223  0.00  0.00    -0.153 OA
ENDROOT
BRANCH   1   4
ATOM      4  C   UNL     1      -1.873   4.788   4.028  0.00  0.00    +0.112 A 
ATOM      5  C   UNL     1      -2.578   5.407   3.011  0.00  0.00    +0.076 A 
ATOM      6  C   UNL     1      -3.524   6.369   3.315  0.00  0.00    +0.144 A 
ATOM      7  C   UNL     1      -3.763   6.713   4.645  0.00  0.00    +0.076 A 
ATOM      8  C   UNL     1      -3.055   6.089   5.659  0.00  0.00    +0.032 A 
ATOM      9  C   UNL     1      -2.114   5.124   5.347  0.00  0.00    -0.022 A 
ATOM     10  C   UNL     1      -1.346   4.440   6.449  0.00  0.00    +0.046 C 
ATOM     11  N   UNL     1      -4.723   7.691   4.939  0.00  0.00    -0.280 N 
ATOM     12  C   UNL     1      -5.607   8.049   3.982  0.00  0.00    +0.255 C 
ATOM     13  O   UNL     1      -6.426   8.915   4.203  0.00  0.00    -0.272 OA
ATOM     14  C   UNL     1      -5.570   7.368   2.638  0.00  0.00    +0.325 C 
ATOM     15  O   UNL     1      -4.227   6.987   2.328  0.00  0.00    -0.481 OA
ATOM     16  H   UNL     1      -4.752   8.105   5.816  0.00  0.00    +0.155 HD
ENDBRANCH   1   4
BRANCH   1  21
ATOM     17  C   UNL     1      -2.173   1.232   3.402  0.00  0.00    +0.166 C 
ATOM     18  C   UNL     1      -2.440  -0.018   4.267  0.00  0.00    +0.031 C 
ATOM     19  C   UNL     1      -1.221  -0.043   5.226  0.00  0.00    +0.019 C 
ATOM     20  C   UNL     1      -0.979   1.469   5.462  0.00  0.00    +0.110 C 
ATOM     21  N   UNL     1      -1.267   2.107   4.161  0.00  0.00    -0.165 NA
BRANCH  17  28
ATOM     22  C   UNL     1      -1.517  -0.487   0.037  0.00  0.00    +0.076 C 
ATOM     23  C   UNL     1      -1.632  -2.014   0.007  0.00  0.00    +0.022 C 
ATOM     24  C   UNL     1      -3.104  -2.413   0.129  0.00  0.00    +0.003 C 
ATOM     25  C   UNL     1      -3.661  -1.913   1.464  0.00  0.00    +0.019 C 
ATOM     26  C   UNL     1      -3.569  -0.385   1.510  0.00  0.00    +0.108 C 
ATOM     27  N   UNL     1      -2.180   0.017   1.248  0.00  0.00    -0.297 N 
ATOM     28  C   UNL     1      -1.526   0.828   2.103  0.00  0.00    +0.235 C 
ATOM     29  O   UNL     1      -0.416   1.232   1.826  0.00  0.00    -0.274 OA
BRANCH  22  31
ATOM     30  C   UNL     1       0.657  -0.647  -1.183  0.00  0.00    +0.006 C 
ATOM     31  C   UNL     1      -0.041  -0.084   0.056  0.00  0.00    +0.019 C 
ENDBRANCH  22  31
ENDBRANCH  17  28
ENDBRANCH   1  21
TORSDOF 4
