REMARK  Name = ZINC39936428
REMARK  6 active torsions:
REMARK  status: ('A' for Active; 'I' for Inactive)
REMARK    1  A    between atoms: C_5  and  C_7
REMARK    2  A    between atoms: C_7  and  O_8
REMARK    3  A    between atoms: O_8  and  C_9
REMARK    4  A    between atoms: C_12  and  C_15
REMARK    5  A    between atoms: N_17  and  N_18
REMARK    6  A    between atoms: C_19  and  C_20
REMARK                            x       y       z     vdW  Elec       q    Type
REMARK                         _______ _______ _______ _____ _____    ______ ____
ROOT
ATOM      1  C   UNL     1      -0.771  -8.244  -0.038  0.00  0.00    +0.263 C 
ATOM      2  O   UNL     1       0.203  -8.972  -0.048  0.00  0.00    -0.268 OA
ATOM      3  N   UNL     1      -2.010  -8.776  -0.035  0.00  0.00    -0.203 N 
ATOM      4  H   UNL     1      -2.787  -8.196  -0.028  0.00  0.00    +0.178 HD
ENDROOT
BRANCH   1   8
ATOM      5  C   UNL     1      -0.272  -4.028  -0.018  0.00  0.00    +0.121 A 
ATOM      6  C   UNL     1       0.844  -4.858  -0.028  0.00  0.00    +0.046 A 
ATOM      7  C   UNL     1       0.686  -6.226  -0.035  0.00  0.00    +0.016 A 
ATOM      8  C   UNL     1      -0.598  -6.780  -0.031  0.00  0.00    +0.039 A 
ATOM      9  C   UNL     1      -1.716  -5.941  -0.021  0.00  0.00    +0.016 A 
ATOM     10  C   UNL     1      -1.550  -4.575  -0.009  0.00  0.00    +0.046 A 
BRANCH   5  11
ATOM     11  O   UNL     1      -0.112  -2.680  -0.012  0.00  0.00    -0.487 OA
BRANCH  11  12
ATOM     12  C   UNL     1       1.229  -2.186  -0.022  0.00  0.00    +0.265 C 
BRANCH  12  17
ATOM     13  C   UNL     1      -0.017   1.378   0.010  0.00  0.00    +0.000 A 
ATOM     14  C   UNL     1       1.171   2.086   0.002  0.00  0.00    +0.001 A 
ATOM     15  C   UNL     1       2.377   1.412  -0.013  0.00  0.00    +0.015 A 
ATOM     16  C   UNL     1       2.397   0.029  -0.021  0.00  0.00    +0.024 A 
ATOM     17  C   UNL     1       1.208  -0.679  -0.013  0.00  0.00    +0.004 A 
ATOM     18  C   UNL     1       0.002  -0.004   0.002  0.00  0.00    +0.008 A 
ATOM     19 BR   UNL     1       4.047  -0.894  -0.042  0.00  0.00    -0.050 Br
ENDBRANCH  12  17
ENDBRANCH  11  12
ENDBRANCH   5  11
ENDBRANCH   1   8
BRANCH   3  20
ATOM     20  N   UNL     1      -2.174 -10.167  -0.042  0.00  0.00    -0.188 NA
ATOM     21  C   UNL     1      -3.378 -10.684  -0.039  0.00  0.00    +0.136 C 
BRANCH  21  22
ATOM     22  C   UNL     1      -3.543 -12.076  -0.046  0.00  0.00    +0.000 C 
ATOM     23  C   UNL     1      -4.744 -12.782  -0.050  0.00  0.00    +0.004 A 
ATOM     24  C   UNL     1      -6.094 -12.368  -0.046  0.00  0.00    +0.010 A 
ATOM     25  C   UNL     1      -7.083 -13.297  -0.050  0.00  0.00    +0.001 A 
ATOM     26  C   UNL     1      -6.802 -14.666  -0.059  0.00  0.00    +0.002 A 
ATOM     27  C   UNL     1      -5.531 -15.136  -0.062  0.00  0.00    +0.026 A 
ATOM     28  C   UNL     1      -4.442 -14.224  -0.058  0.00  0.00    +0.043 A 
ATOM     29  N   UNL     1      -3.140 -14.421  -0.060  0.00  0.00    -0.380 N 
ATOM     30  C   UNL     1      -2.454 -13.126  -0.059  0.00  0.00    +0.150 C 
ATOM     31  H   UNL     1      -2.704 -15.288  -0.065  0.00  0.00    +0.160 HD
ENDBRANCH  21  22
ENDBRANCH   3  20
TORSDOF 6
