REMARK  Name = ZINC12139919
REMARK  7 active torsions:
REMARK  status: ('A' for Active; 'I' for Inactive)
REMARK    1  A    between atoms: C_1  and  N_2
REMARK    2  A    between atoms: C_6  and  C_23
REMARK    3  A    between atoms: C_8  and  C_16
REMARK    4  A    between atoms: C_10  and  C_11
REMARK    5  A    between atoms: C_10  and  O_15
REMARK    6  A    between atoms: C_16  and  C_18
REMARK    7  A    between atoms: C_26  and  N_29
REMARK                            x       y       z     vdW  Elec       q    Type
REMARK                         _______ _______ _______ _____ _____    ______ ____
ROOT
ATOM      1  C   UNL     1      -4.106   6.648   1.120  0.00  0.00    +0.137 C 
ATOM      2  N   UNL     1      -2.730   6.306   0.750  0.00  0.00    -0.253 N 
ATOM      3  C   UNL     1      -2.385   6.283  -0.546  0.00  0.00    +0.305 C 
ATOM      4  O   UNL     1      -3.232   6.537  -1.381  0.00  0.00    -0.253 OA
ATOM      5  N   UNL     1      -1.141   5.990  -0.960  0.00  0.00    -0.292 N 
ATOM      6  C   UNL     1      -0.081   5.664  -0.005  0.00  0.00    +0.120 C 
ATOM      7  C   UNL     1      -0.357   6.383   1.320  0.00  0.00    +0.145 C 
ATOM      8  C   UNL     1      -1.760   5.998   1.801  0.00  0.00    +0.245 C 
ATOM      9  H   UNL     1      -0.941   5.995  -1.909  0.00  0.00    +0.151 HD
ENDROOT
BRANCH   6  10
ATOM     10  C   UNL     1      -0.052   4.175   0.227  0.00  0.00    -0.026 A 
ATOM     11  C   UNL     1       1.101   3.570   0.688  0.00  0.00    +0.008 A 
ATOM     12  C   UNL     1       1.128   2.204   0.901  0.00  0.00    +0.033 A 
ATOM     13  C   UNL     1       0.000   1.444   0.653  0.00  0.00    +0.126 A 
ATOM     14  C   UNL     1      -1.152   2.049   0.187  0.00  0.00    +0.033 A 
ATOM     15  C   UNL     1      -1.180   3.415  -0.023  0.00  0.00    +0.008 A 
BRANCH  13  16
ATOM     16  N   UNL     1       0.028  -0.018   0.881  0.00  0.00    +0.056 N 
ATOM     17  O   UNL     1       1.045  -0.552   1.288  0.00  0.00    -0.126 OA
ATOM     18  O   UNL     1      -0.966  -0.688   0.663  0.00  0.00    -0.126 OA
ENDBRANCH  13  16
ENDBRANCH   6  10
BRANCH   8  19
ATOM     19  C   UNL     1      -2.103   6.791   3.064  0.00  0.00    +0.436 C 
ATOM     20  F   UNL     1      -2.218   8.149   2.745  0.00  0.00    -0.166 F 
ATOM     21  F   UNL     1      -3.315   6.331   3.589  0.00  0.00    -0.166 F 
ATOM     22  F   UNL     1      -1.089   6.620   4.012  0.00  0.00    -0.166 F 
ENDBRANCH   8  19
BRANCH   8  23
ATOM     23  O   UNL     1      -1.798   4.599   2.091  0.00  0.00    -0.364 OA
ATOM     24  H   UNL     1      -2.658   4.285   2.402  0.00  0.00    +0.212 HD
ENDBRANCH   8  23
BRANCH   7  25
ATOM     25  C   UNL     1      -0.285   7.874   1.111  0.00  0.00    +0.180 C 
ATOM     26  O   UNL     1      -1.299   8.506   0.892  0.00  0.00    -0.291 OA
BRANCH  25  27
ATOM     27  C   UNL     1       0.961   8.536   1.169  0.00  0.00    +0.055 A 
ATOM     28  C   UNL     1       1.244   9.888   1.001  0.00  0.00    +0.019 A 
ATOM     29  C   UNL     1       2.556  10.268   1.114  0.00  0.00    +0.008 A 
ATOM     30  C   UNL     1       3.502   9.323   1.369  0.00  0.00    +0.046 A 
ATOM     31  S   UNL     1       2.583   7.857   1.469  0.00  0.00    -0.094 S 
ENDBRANCH  25  27
ENDBRANCH   7  25
TORSDOF 6
