REMARK  Name = ZINC05408642
REMARK  7 active torsions:
REMARK  status: ('A' for Active; 'I' for Inactive)
REMARK    1  A    between atoms: C_1  and  C_2
REMARK    2  A    between atoms: C_2  and  O_3
REMARK    3  A    between atoms: O_3  and  C_4
REMARK    4  A    between atoms: C_8  and  C_10
REMARK    5  A    between atoms: N_16  and  N_17
REMARK    6  A    between atoms: C_18  and  C_19
REMARK    7  A    between atoms: C_23  and  N_25
REMARK                            x       y       z     vdW  Elec       q    Type
REMARK                         _______ _______ _______ _____ _____    ______ ____
ROOT
ATOM      1  C   UNL     1      -1.239   8.155   1.139  0.00  0.00    +0.184 A 
ATOM      2  N   UNL     1      -1.256   9.420   0.714  0.00  0.00    -0.152 NA
ATOM      3  N   UNL     1      -1.269   9.435  -0.574  0.00  0.00    -0.253 N 
ATOM      4  H   UNL     1      -1.285  10.231  -1.128  0.00  0.00    +0.191 HD
ATOM      5  C   UNL     1      -1.255   8.166  -1.026  0.00  0.00    +0.197 A 
ATOM      6  S   UNL     1      -1.265   7.674  -2.666  0.00  0.00    -0.010 S 
ATOM      7  N   UNL     1      -1.233   7.354   0.052  0.00  0.00    -0.188 N 
ENDROOT
BRANCH   1  12
ATOM      8  C   UNL     1      -0.910   8.195   4.880  0.00  0.00    +0.121 A 
ATOM      9  C   UNL     1      -1.203   6.870   5.187  0.00  0.00    +0.045 A 
ATOM     10  C   UNL     1      -1.506   5.970   4.180  0.00  0.00    +0.004 A 
ATOM     11  C   UNL     1      -1.525   6.381   2.864  0.00  0.00    +0.012 A 
ATOM     12  C   UNL     1      -1.226   7.712   2.543  0.00  0.00    +0.024 A 
ATOM     13  C   UNL     1      -0.920   8.620   3.564  0.00  0.00    +0.057 A 
BRANCH   8  14
ATOM     14  O   UNL     1      -0.614   9.073   5.874  0.00  0.00    -0.492 OA
BRANCH  14  16
ATOM     15  C   UNL     1      -0.269   9.692   8.184  0.00  0.00    +0.048 C 
ATOM     16  C   UNL     1      -0.622   8.566   7.210  0.00  0.00    +0.225 C 
ENDBRANCH  14  16
ENDBRANCH   8  14
ENDBRANCH   1  12
BRANCH   7  17
ATOM     17  N   UNL     1      -1.214   5.953   0.045  0.00  0.00    -0.171 NA
ATOM     18  C   UNL     1      -0.070   5.313   0.031  0.00  0.00    +0.141 C 
BRANCH  18  19
ATOM     19  C   UNL     1      -0.050   3.847   0.023  0.00  0.00    -0.003 A 
ATOM     20  C   UNL     1      -1.253   3.125   0.031  0.00  0.00    +0.009 A 
ATOM     21  C   UNL     1      -1.224   1.748   0.017  0.00  0.00    +0.003 A 
ATOM     22  C   UNL     1      -0.013   1.076   0.008  0.00  0.00    +0.033 A 
ATOM     23  C   UNL     1       1.180   1.780   0.000  0.00  0.00    +0.127 A 
ATOM     24  C   UNL     1       1.172   3.158   0.008  0.00  0.00    +0.042 A 
BRANCH  23  25
ATOM     25  N   UNL     1       2.468   1.051  -0.016  0.00  0.00    +0.056 N 
ATOM     26  O   UNL     1       2.479  -0.266  -0.024  0.00  0.00    -0.126 OA
ATOM     27  O   UNL     1       3.603   1.719  -0.024  0.00  0.00    -0.126 OA
ENDBRANCH  23  25
ENDBRANCH  18  19
ENDBRANCH   7  17
TORSDOF 6
