REMARK  Name = ZINC63437212
REMARK  7 active torsions:
REMARK  status: ('A' for Active; 'I' for Inactive)
REMARK    1  A    between atoms: C_5  and  C_7
REMARK    2  A    between atoms: N_9  and  C_10
REMARK    3  A    between atoms: C_10  and  C_17
REMARK    4  A    between atoms: C_11  and  C_12
REMARK    5  A    between atoms: N_19  and  C_20
REMARK    6  A    between atoms: C_20  and  C_21
REMARK    7  A    between atoms: C_21  and  C_22
REMARK                            x       y       z     vdW  Elec       q    Type
REMARK                         _______ _______ _______ _____ _____    ______ ____
ROOT
ATOM      1  C   UNL     1      -0.056  -4.254  -0.133  0.00  0.00    +0.100 C 
ATOM      2  C   UNL     1       1.088  -4.988  -0.124  0.00  0.00    +0.074 C 
ENDROOT
BRANCH   2   3
ATOM      3  C   UNL     1       2.347  -4.339  -0.160  0.00  0.00    +0.130 A 
ATOM      4  C   UNL     1       3.576  -4.956  -0.260  0.00  0.00    +0.049 A 
ATOM      5  C   UNL     1       4.538  -3.932  -0.261  0.00  0.00    +0.042 A 
ATOM      6  C   UNL     1       3.874  -2.760  -0.164  0.00  0.00    +0.195 A 
ATOM      7  O   UNL     1       2.556  -3.008  -0.109  0.00  0.00    -0.463 OA
ENDBRANCH   2   3
BRANCH   1  10
ATOM      8  C   UNL     1      -0.588  -2.198   0.940  0.00  0.00    +0.249 C 
ATOM      9  O   UNL     1      -1.100  -2.819   1.852  0.00  0.00    -0.270 OA
ATOM     10  N   UNL     1       0.009  -2.857  -0.072  0.00  0.00    -0.277 N 
ATOM     11  H   UNL     1       0.484  -2.363  -0.759  0.00  0.00    +0.155 HD
BRANCH   8  16
ATOM     12  C   UNL     1       0.027   1.377  -0.032  0.00  0.00    +0.001 A 
ATOM     13  C   UNL     1      -0.683   2.049   0.948  0.00  0.00    +0.001 A 
ATOM     14  C   UNL     1      -1.362   1.344   1.925  0.00  0.00    +0.016 A 
ATOM     15  C   UNL     1      -1.336  -0.036   1.929  0.00  0.00    +0.030 A 
ATOM     16  C   UNL     1      -0.621  -0.721   0.943  0.00  0.00    +0.051 A 
ATOM     17  C   UNL     1       0.062  -0.002  -0.041  0.00  0.00    +0.014 A 
ATOM     18 BR   UNL     1      -2.265  -0.998   3.266  0.00  0.00    -0.050 Br
ENDBRANCH   8  16
ENDBRANCH   1  10
BRANCH   1  19
ATOM     19  C   UNL     1      -1.356  -4.924  -0.205  0.00  0.00    +0.258 C 
ATOM     20  O   UNL     1      -2.381  -4.267  -0.213  0.00  0.00    -0.269 OA
ATOM     21  N   UNL     1      -1.419  -6.269  -0.264  0.00  0.00    -0.310 N 
ATOM     22  H   UNL     1      -0.603  -6.793  -0.258  0.00  0.00    +0.149 HD
BRANCH  21  23
ATOM     23  C   UNL     1      -2.719  -6.940  -0.336  0.00  0.00    +0.108 C 
BRANCH  23  24
ATOM     24  C   UNL     1      -2.510  -8.454  -0.392  0.00  0.00    +0.065 C 
BRANCH  24  25
ATOM     25  C   UNL     1      -3.868  -9.155  -0.468  0.00  0.00    +0.175 C 
ATOM     26  N   UNL     1      -4.644  -8.882   0.748  0.00  0.00    -0.363 N 
ATOM     27  C   UNL     1      -4.880 -10.024   1.326  0.00  0.00    +0.060 A 
ATOM     28  C   UNL     1      -5.597 -10.393   2.554  0.00  0.00    +0.027 A 
ATOM     29  C   UNL     1      -5.681 -11.691   2.911  0.00  0.00    +0.002 A 
ATOM     30  C   UNL     1      -5.105 -12.724   2.151  0.00  0.00    +0.002 A 
ATOM     31  C   UNL     1      -4.426 -12.496   1.009  0.00  0.00    +0.027 A 
ATOM     32  C   UNL     1      -4.271 -11.118   0.521  0.00  0.00    +0.060 A 
ATOM     33  N   UNL     1      -3.682 -10.610  -0.522  0.00  0.00    -0.363 N 
ATOM     34  H   UNL     1      -4.929  -8.009   1.063  0.00  0.00    +0.162 HD
ATOM     35  H   UNL     1      -3.208 -11.103  -1.210  0.00  0.00    +0.162 HD
ENDBRANCH  24  25
ENDBRANCH  23  24
ENDBRANCH  21  23
ENDBRANCH   1  19
TORSDOF 7
