REMARK  Name = ZINC43711452
REMARK  5 active torsions:
REMARK  status: ('A' for Active; 'I' for Inactive)
REMARK    1  A    between atoms: C_1  and  N_2
REMARK    2  A    between atoms: N_2  and  C_3
REMARK    3  A    between atoms: C_3  and  C_4
REMARK    4  A    between atoms: N_15  and  C_16
REMARK    5  A    between atoms: C_16  and  C_17
REMARK                            x       y       z     vdW  Elec       q    Type
REMARK                         _______ _______ _______ _____ _____    ______ ____
ROOT
ATOM      1  C   UNL     1      -0.018   1.461   0.010  0.00  0.00    +0.134 C 
ATOM      2  N   UNL     1       0.002  -0.004   0.002  0.00  0.00    -0.284 N 
ATOM      3  C   UNL     1       0.000  -0.672  -1.169  0.00  0.00    +0.303 C 
ATOM      4  O   UNL     1       0.017  -1.887  -1.175  0.00  0.00    -0.253 OA
ATOM      5  N   UNL     1      -0.020   0.009  -2.332  0.00  0.00    -0.292 N 
ATOM      6  H   UNL     1      -0.033   0.978  -2.327  0.00  0.00    +0.151 HD
ENDROOT
BRANCH   2   7
ATOM      7  C   UNL     1       0.024  -0.743   1.267  0.00  0.00    +0.144 C 
BRANCH   7   8
ATOM      8  C   UNL     1      -1.389  -1.016   1.714  0.00  0.00    -0.026 A 
ATOM      9  C   UNL     1      -2.046  -0.104   2.518  0.00  0.00    +0.009 A 
ATOM     10  C   UNL     1      -3.342  -0.349   2.931  0.00  0.00    +0.050 A 
ATOM     11  C   UNL     1      -3.986  -1.512   2.538  0.00  0.00    +0.166 A 
ATOM     12  C   UNL     1      -3.325  -2.431   1.728  0.00  0.00    +0.167 A 
ATOM     13  C   UNL     1      -2.027  -2.175   1.314  0.00  0.00    +0.054 A 
ATOM     14  O   UNL     1      -4.163  -3.480   1.483  0.00  0.00    -0.453 OA
ATOM     15  C   UNL     1      -5.194  -3.389   2.483  0.00  0.00    +0.466 C 
ATOM     16  O   UNL     1      -5.239  -1.985   2.802  0.00  0.00    -0.453 OA
ENDBRANCH   7   8
ENDBRANCH   2   7
BRANCH   5  17
ATOM     17  C   UNL     1      -0.022  -0.717  -3.605  0.00  0.00    +0.182 C 
BRANCH  17  18
ATOM     18  C   UNL     1      -0.047   0.268  -4.745  0.00  0.00    +0.155 A 
ATOM     19  N   UNL     1      -1.114   0.764  -5.316  0.00  0.00    -0.132 NA
ATOM     20  N   UNL     1      -0.780   1.577  -6.256  0.00  0.00    -0.129 NA
ATOM     21  C   UNL     1       0.539   1.643  -6.335  0.00  0.00    +0.161 A 
ATOM     22  N   UNL     1       1.038   0.809  -5.364  0.00  0.00    -0.285 N 
ATOM     23  C   UNL     1       2.384   0.671  -5.196  0.00  0.00    +0.094 A 
ATOM     24  C   UNL     1       3.246   1.353  -5.979  0.00  0.00    +0.018 A 
ATOM     25  C   UNL     1       2.766   2.216  -6.980  0.00  0.00    +0.005 A 
ATOM     26  C   UNL     1       1.426   2.357  -7.163  0.00  0.00    +0.048 A 
ENDBRANCH  17  18
ENDBRANCH   5  17
TORSDOF 4
