REMARK  Name = ZINC03885477
REMARK  5 active torsions:
REMARK  status: ('A' for Active; 'I' for Inactive)
REMARK    1  A    between atoms: C_3  and  N_20
REMARK    2  A    between atoms: C_4  and  S_8
REMARK    3  A    between atoms: C_6  and  N_7
REMARK    4  A    between atoms: S_8  and  N_11
REMARK    5  A    between atoms: N_11  and  C_12
REMARK                            x       y       z     vdW  Elec       q    Type
REMARK                         _______ _______ _______ _____ _____    ______ ____
ROOT
ATOM      1  C   UNL     1      -0.017   1.385   0.010  0.00  0.00    +0.024 A 
ATOM      2  C   UNL     1       1.171   2.090   0.002  0.00  0.00    +0.025 A 
ATOM      3  C   UNL     1       2.377   1.415  -0.013  0.00  0.00    +0.041 A 
ATOM      4  C   UNL     1       2.400   0.032  -0.021  0.00  0.00    +0.132 A 
ATOM      5  C   UNL     1       1.216  -0.679  -0.013  0.00  0.00    +0.053 A 
ATOM      6  C   UNL     1       0.002  -0.004   0.002  0.00  0.00    +0.027 A 
ENDROOT
BRANCH   3   7
ATOM      7  N   UNL     1       3.578   2.132  -0.022  0.00  0.00    -0.388 NA
ATOM      8  C   UNL     1       3.655   2.973   1.181  0.00  0.00    +0.113 C 
ATOM      9  C   UNL     1       4.970   3.756   1.169  0.00  0.00    +0.177 C 
ATOM     10  O   UNL     1       5.041   4.540  -0.025  0.00  0.00    -0.377 OA
ATOM     11  C   UNL     1       4.946   3.768  -1.225  0.00  0.00    +0.177 C 
ATOM     12  C   UNL     1       3.631   2.984  -1.218  0.00  0.00    +0.113 C 
ATOM     13  H   UNL     1       4.354   1.488  -0.033  0.00  0.00    +0.127 HD
ENDBRANCH   3   7
BRANCH   6  14
ATOM     14  N   UNL     1      -1.197  -0.720   0.010  0.00  0.00    -0.358 N 
ATOM     15  H   UNL     1      -2.044  -0.248   0.021  0.00  0.00    +0.142 HD
ATOM     16  H   UNL     1      -1.183  -1.690   0.005  0.00  0.00    +0.142 HD
ENDBRANCH   6  14
BRANCH   4  17
ATOM     17  S   UNL     1       3.940  -0.823  -0.042  0.00  0.00    +0.093 S 
ATOM     18  O   UNL     1       4.741  -0.242   0.979  0.00  0.00    -0.148 OA
ATOM     19  O   UNL     1       3.634  -2.210  -0.073  0.00  0.00    -0.148 OA
BRANCH  17  20
ATOM     20  N   UNL     1       4.678  -0.468  -1.481  0.00  0.00    -0.096 NA
BRANCH  20  21
ATOM     21  C   UNL     1       5.930  -1.014  -1.778  0.00  0.00    +0.094 A 
ATOM     22  C   UNL     1       6.554  -1.858  -0.869  0.00  0.00    +0.048 A 
ATOM     23  C   UNL     1       7.793  -2.396  -1.165  0.00  0.00    +0.043 A 
ATOM     24  C   UNL     1       8.411  -2.093  -2.366  0.00  0.00    +0.021 A 
ATOM     25  C   UNL     1       7.792  -1.253  -3.273  0.00  0.00    +0.023 A 
ATOM     26  C   UNL     1       6.551  -0.717  -2.986  0.00  0.00    +0.065 A 
ATOM     27 CL   UNL     1       5.771   0.332  -4.128  0.00  0.00    -0.082 Cl
ATOM     28 CL   UNL     1       8.574  -3.451  -0.029  0.00  0.00    -0.083 Cl
ENDBRANCH  20  21
ENDBRANCH  17  20
ENDBRANCH   4  17
TORSDOF 5
