REMARK  Name = ZINC64099645
REMARK  6 active torsions:
REMARK  status: ('A' for Active; 'I' for Inactive)
REMARK    1  A    between atoms: C_1  and  C_2
REMARK    2  A    between atoms: C_5  and  S_9
REMARK    3  A    between atoms: C_6  and  C_8
REMARK    4  A    between atoms: S_9  and  N_12
REMARK    5  A    between atoms: C_13  and  C_15
REMARK    6  A    between atoms: C_18  and  C_23
REMARK                            x       y       z     vdW  Elec       q    Type
REMARK                         _______ _______ _______ _____ _____    ______ ____
ROOT
ATOM      1  N   UNL     1       1.506  -5.005   0.635  0.00  0.00    -0.086 NA
ATOM      2  C   UNL     1       1.785  -6.274   0.749  0.00  0.00    +0.300 C 
ATOM      3  O   UNL     1       0.895  -7.202   0.329  0.00  0.00    -0.264 OA
ENDROOT
BRANCH   2   4
ATOM      4  C   UNL     1       3.068  -6.696   1.334  0.00  0.00    +0.107 A 
ATOM      5  C   UNL     1       3.990  -5.743   1.774  0.00  0.00    +0.021 A 
ATOM      6  C   UNL     1       5.191  -6.166   2.322  0.00  0.00    +0.028 A 
ATOM      7  C   UNL     1       5.463  -7.523   2.425  0.00  0.00    +0.056 A 
ATOM      8  N   UNL     1       4.555  -8.452   1.991  0.00  0.00    -0.321 N 
ATOM      9  H   UNL     1       4.761  -9.396   2.070  0.00  0.00    +0.169 HD
ATOM     10  C   UNL     1       3.378  -8.070   1.460  0.00  0.00    +0.262 A 
ATOM     11  O   UNL     1       2.580  -8.911   1.083  0.00  0.00    -0.267 OA
BRANCH   7  12
ATOM     12  C   UNL     1       6.733  -7.966   3.005  0.00  0.00    +0.036 A 
ATOM     13  C   UNL     1       7.204  -9.258   3.195  0.00  0.00    +0.017 A 
ATOM     14  C   UNL     1       8.450  -9.359   3.770  0.00  0.00    +0.008 A 
ATOM     15  C   UNL     1       9.116  -8.227   4.103  0.00  0.00    +0.046 A 
ATOM     16  S   UNL     1       8.080  -6.987   3.641  0.00  0.00    -0.095 S 
ENDBRANCH   7  12
ENDBRANCH   2   4
BRANCH   1  17
ATOM     17  S   UNL     1       0.063  -4.530  -0.023  0.00  0.00    +0.102 S 
ATOM     18  O   UNL     1      -0.953  -4.955   0.876  0.00  0.00    -0.146 OA
ATOM     19  O   UNL     1       0.087  -4.929  -1.387  0.00  0.00    -0.146 OA
BRANCH  17  24
ATOM     20  C   UNL     1      -0.018   1.503   0.010  0.00  0.00    +0.044 C 
ATOM     21  C   UNL     1       0.002  -0.004   0.002  0.00  0.00    -0.050 A 
ATOM     22  C   UNL     1       0.006  -0.689  -1.199  0.00  0.00    +0.005 A 
ATOM     23  C   UNL     1       0.025  -2.071  -1.207  0.00  0.00    +0.029 A 
ATOM     24  C   UNL     1       0.040  -2.768  -0.013  0.00  0.00    +0.115 A 
ATOM     25  C   UNL     1       0.037  -2.084   1.188  0.00  0.00    -0.023 A 
ATOM     26  C   UNL     1       0.023  -0.702   1.195  0.00  0.00    +0.008 A 
ATOM     27  C   UNL     1       0.054  -2.845   2.489  0.00  0.00    +0.046 C 
ENDBRANCH  17  24
ENDBRANCH   1  17
TORSDOF 4
