REMARK  Name = ZINC37926555
REMARK  7 active torsions:
REMARK  status: ('A' for Active; 'I' for Inactive)
REMARK    1  A    between atoms: C_1  and  C_2
REMARK    2  A    between atoms: C_6  and  O_20
REMARK    3  A    between atoms: C_7  and  N_8
REMARK    4  A    between atoms: N_8  and  S_9
REMARK    5  A    between atoms: S_9  and  C_12
REMARK    6  A    between atoms: C_13  and  C_19
REMARK    7  A    between atoms: O_20  and  C_21
REMARK                            x       y       z     vdW  Elec       q    Type
REMARK                         _______ _______ _______ _____ _____    ______ ____
ROOT
ATOM      1  N   UNL     1       0.025  -0.012   2.416  0.00  0.00    -0.093 NA
ENDROOT
BRANCH   1   8
ATOM      2  C   UNL     1      -0.018   1.503   0.010  0.00  0.00    +0.046 C 
ATOM      3  C   UNL     1       0.002  -0.004   0.002  0.00  0.00    -0.021 A 
ATOM      4  C   UNL     1       0.006  -0.689  -1.199  0.00  0.00    +0.020 A 
ATOM      5  C   UNL     1       0.024  -2.072  -1.210  0.00  0.00    +0.022 A 
ATOM      6  C   UNL     1       0.039  -2.776  -0.019  0.00  0.00    +0.063 A 
ATOM      7  C   UNL     1       0.035  -2.097   1.187  0.00  0.00    +0.146 A 
ATOM      8  C   UNL     1       0.023  -0.704   1.199  0.00  0.00    +0.119 A 
ATOM      9 BR   UNL     1       0.029  -3.002  -2.857  0.00  0.00    -0.050 Br
BRANCH   7  10
ATOM     10  O   UNL     1       0.049  -2.789   2.359  0.00  0.00    -0.493 OA
ATOM     11  C   UNL     1       0.067  -4.215   2.270  0.00  0.00    +0.277 C 
ENDBRANCH   7  10
ENDBRANCH   1   8
BRANCH   1  12
ATOM     12  S   UNL     1       0.050  -0.850   3.845  0.00  0.00    +0.100 S 
ATOM     13  O   UNL     1      -1.185  -1.548   3.928  0.00  0.00    -0.148 OA
ATOM     14  O   UNL     1       1.305  -1.514   3.904  0.00  0.00    -0.148 OA
BRANCH  12  15
ATOM     15  C   UNL     1       0.046   0.338   5.146  0.00  0.00    +0.171 A 
ATOM     16  C   UNL     1      -0.922   0.627   6.019  0.00  0.00    +0.050 A 
ATOM     17  N   UNL     1      -0.663   1.603   6.937  0.00  0.00    -0.318 N 
ATOM     18  H   UNL     1      -1.332   1.851   7.594  0.00  0.00    +0.169 HD
ATOM     19  C   UNL     1       0.538   2.217   6.918  0.00  0.00    +0.290 A 
ATOM     20  O   UNL     1       0.948   3.101   7.649  0.00  0.00    -0.260 OA
ATOM     21  S   UNL     1       1.337   1.463   5.644  0.00  0.00    -0.006 S 
ATOM     22  C   UNL     1      -2.245  -0.093   5.992  0.00  0.00    +0.066 C 
ENDBRANCH  12  15
ENDBRANCH   1  12
TORSDOF 4
