REMARK  Name = ZINC05567798
REMARK  11 active torsions:
REMARK  status: ('A' for Active; 'I' for Inactive)
REMARK    1  A    between atoms: C_1  and  C_2
REMARK    2  A    between atoms: C_2  and  C_3
REMARK    3  A    between atoms: C_3  and  C_4
REMARK    4  A    between atoms: C_4  and  C_6
REMARK    5  A    between atoms: C_4  and  C_9
REMARK    6  A    between atoms: C_6  and  C_7
REMARK    7  A    between atoms: C_12  and  O_24
REMARK    8  A    between atoms: C_16  and  C_23
REMARK    9  A    between atoms: C_18  and  C_22
REMARK   10  A    between atoms: C_27  and  C_29
REMARK   11  A    between atoms: C_27  and  C_30
REMARK                            x       y       z     vdW  Elec       q    Type
REMARK                         _______ _______ _______ _____ _____    ______ ____
ROOT
ATOM      1  C   UNL     1      -0.150   4.449   0.069  0.00  0.00    +0.041 A 
ATOM      2  C   UNL     1      -1.318   3.744  -0.167  0.00  0.00    +0.139 A 
ATOM      3  C   UNL     1      -1.294   2.342  -0.258  0.00  0.00    +0.059 A 
ATOM      4  C   UNL     1      -0.103   1.649  -0.063  0.00  0.00    +0.141 A 
ATOM      5  C   UNL     1       1.073   2.370   0.193  0.00  0.00    +0.102 A 
ATOM      6  C   UNL     1       1.049   3.777   0.245  0.00  0.00    +0.142 A 
ATOM      7  O   UNL     1       2.186   4.479   0.462  0.00  0.00    -0.487 OA
ATOM      8  C   UNL     1       3.277   3.832   1.117  0.00  0.00    +0.181 C 
ATOM      9  C   UNL     1       3.601   2.519   0.389  0.00  0.00    +0.098 C 
ATOM     10  C   UNL     1       2.344   1.669   0.413  0.00  0.00    +0.176 C 
ATOM     11  O   UNL     1       2.387   0.472   0.605  0.00  0.00    -0.291 OA
ATOM     12  C   UNL     1       4.006   2.812  -1.057  0.00  0.00    +0.019 C 
ATOM     13  C   UNL     1       4.503   4.746   1.092  0.00  0.00    +0.052 C 
ATOM     14  C   UNL     1      -2.561   1.633  -0.531  0.00  0.00    +0.015 C 
ATOM     15  C   UNL     1      -3.597   2.340  -0.973  0.00  0.00    +0.020 C 
ATOM     16  C   UNL     1      -3.454   3.820  -1.212  0.00  0.00    +0.124 C 
ATOM     17  O   UNL     1      -2.504   4.388  -0.312  0.00  0.00    -0.481 OA
ATOM     18  C   UNL     1      -4.811   4.497  -1.006  0.00  0.00    +0.060 C 
ATOM     19  C   UNL     1      -2.988   4.054  -2.651  0.00  0.00    +0.060 C 
ENDROOT
BRANCH   4  20
ATOM     20  O   UNL     1      -0.078   0.295  -0.126  0.00  0.00    -0.505 OA
ATOM     21  H   UNL     1      -0.233  -0.141   0.723  0.00  0.00    +0.292 HD
ENDBRANCH   4  20
BRANCH   1  22
ATOM     22  C   UNL     1      -0.183   5.954   0.135  0.00  0.00    +0.037 C 
BRANCH  22  23
ATOM     23  C   UNL     1      -1.118   6.395   1.263  0.00  0.00    +0.009 C 
BRANCH  23  25
ATOM     24  C   UNL     1      -1.405   6.503   3.743  0.00  0.00    +0.004 C 
ATOM     25  C   UNL     1      -0.538   5.953   2.608  0.00  0.00    -0.003 C 
ENDBRANCH  23  25
ENDBRANCH  22  23
BRANCH  22  26
ATOM     26  C   UNL     1      -0.691   6.512  -1.196  0.00  0.00    +0.133 C 
BRANCH  26  27
ATOM     27  C   UNL     1      -0.571   8.014  -1.189  0.00  0.00    +0.357 C 
ATOM     28  O   UNL     1      -0.025   8.573  -0.268  0.00  0.00    -0.246 OA
ATOM     29  O   UNL     1      -1.071   8.732  -2.208  0.00  0.00    -0.246 OA
ENDBRANCH  26  27
ENDBRANCH  22  26
ENDBRANCH   1  22
TORSDOF 6
