REMARK  Name = ZINC20023318
REMARK  5 active torsions:
REMARK  status: ('A' for Active; 'I' for Inactive)
REMARK    1  A    between atoms: C_10  and  N_11
REMARK    2  A    between atoms: C_15  and  N_16
REMARK    3  A    between atoms: N_16  and  C_17
REMARK    4  A    between atoms: C_17  and  C_18
REMARK    5  A    between atoms: C_18  and  N_19
REMARK                            x       y       z     vdW  Elec       q    Type
REMARK                         _______ _______ _______ _____ _____    ______ ____
ROOT
ATOM      1  N   UNL     1       4.707   0.447  -0.050  0.00  0.00    -0.189 N 
ATOM      2  C   UNL     1       5.386   0.573   1.108  0.00  0.00    +0.265 C 
ATOM      3  O   UNL     1       4.991   0.037   2.126  0.00  0.00    -0.269 OA
ATOM      4  C   UNL     1       6.620   1.379   1.107  0.00  0.00    +0.113 C 
ATOM      5  C   UNL     1       7.370   1.552   2.256  0.00  0.00    +0.086 C 
ATOM      6  C   UNL     1       7.021   1.990  -0.172  0.00  0.00    +0.258 C 
ATOM      7  O   UNL     1       8.028   2.668  -0.252  0.00  0.00    -0.270 OA
ATOM      8  N   UNL     1       6.242   1.778  -1.253  0.00  0.00    -0.235 N 
ATOM      9  C   UNL     1       5.133   1.028  -1.180  0.00  0.00    +0.320 C 
ATOM     10  O   UNL     1       4.477   0.872  -2.191  0.00  0.00    -0.251 OA
ATOM     11  H   UNL     1       6.492   2.174  -2.102  0.00  0.00    +0.159 HD
ENDROOT
BRANCH   1  21
ATOM     12  C   UNL     1      -0.189   1.447   0.676  0.00  0.00    +0.001 A 
ATOM     13  C   UNL     1       0.969   2.222   0.705  0.00  0.00    +0.001 A 
ATOM     14  C   UNL     1       2.189   1.668   0.463  0.00  0.00    +0.010 A 
ATOM     15  C   UNL     1       2.286   0.296   0.181  0.00  0.00    +0.004 A 
ATOM     16  C   UNL     1       1.109  -0.493   0.151  0.00  0.00    -0.016 A 
ATOM     17  C   UNL     1      -0.133   0.114   0.405  0.00  0.00    +0.008 A 
ATOM     18  C   UNL     1       1.204  -1.866  -0.131  0.00  0.00    +0.008 A 
ATOM     19  C   UNL     1       2.421  -2.427  -0.373  0.00  0.00    +0.002 A 
ATOM     20  C   UNL     1       3.583  -1.662  -0.346  0.00  0.00    +0.024 A 
ATOM     21  C   UNL     1       3.533  -0.313  -0.074  0.00  0.00    +0.053 A 
ENDBRANCH   1  21
BRANCH   5  22
ATOM     22  N   UNL     1       8.574   2.153   2.191  0.00  0.00    -0.348 N 
ATOM     23  H   UNL     1       8.951   2.392   1.329  0.00  0.00    +0.146 HD
BRANCH  22  24
ATOM     24  C   UNL     1       9.314   2.446   3.421  0.00  0.00    +0.116 C 
BRANCH  24  25
ATOM     25  C   UNL     1      10.640   3.125   3.069  0.00  0.00    +0.103 C 
BRANCH  25  26
ATOM     26  N   UNL     1      11.382   3.419   4.302  0.00  0.00    -0.304 NA
ATOM     27  C   UNL     1      10.682   4.428   5.110  0.00  0.00    +0.065 C 
ATOM     28  C   UNL     1      11.455   4.661   6.410  0.00  0.00    -0.067 C 
ATOM     29  N   UNL     1      12.816   5.117   6.096  0.00  0.00    +0.381 N 
ATOM     30  C   UNL     1      13.510   4.089   5.310  0.00  0.00    -0.067 C 
ATOM     31  C   UNL     1      12.754   3.851   4.001  0.00  0.00    +0.065 C 
ATOM     32  H   UNL     1      12.769   5.973   5.563  0.00  0.00    -0.086 HD
ATOM     33  H   UNL     1      13.321   5.283   6.954  0.00  0.00    -0.086 HD
ENDBRANCH  25  26
ENDBRANCH  24  25
ENDBRANCH  22  24
ENDBRANCH   5  22
TORSDOF 5
