REMARK  Name = ZINC19497597
REMARK  4 active torsions:
REMARK  status: ('A' for Active; 'I' for Inactive)
REMARK    1  A    between atoms: C_1  and  C_2
REMARK    2  A    between atoms: C_7  and  C_10
REMARK    3  A    between atoms: N_19  and  C_22
REMARK    4  A    between atoms: C_22  and  C_23
REMARK                            x       y       z     vdW  Elec       q    Type
REMARK                         _______ _______ _______ _____ _____    ______ ____
ROOT
ATOM      1  C   UNL     1       7.109   1.215   6.005  0.00  0.00    +0.039 C 
ATOM      2  C   UNL     1       6.169   2.180   6.729  0.00  0.00    +0.133 C 
ATOM      3  C   UNL     1       5.192   2.794   5.723  0.00  0.00    +0.139 C 
ATOM      4  N   UNL     1       4.342   3.777   6.410  0.00  0.00    -0.295 N 
ATOM      5  C   UNL     1       5.159   4.832   7.027  0.00  0.00    +0.139 C 
ATOM      6  C   UNL     1       6.137   4.198   8.020  0.00  0.00    +0.133 C 
ATOM      7  O   UNL     1       6.933   3.223   7.341  0.00  0.00    -0.371 OA
ATOM      8  C   UNL     1       5.353   3.522   9.147  0.00  0.00    +0.039 C 
ATOM      9  C   UNL     1       3.418   4.311   5.553  0.00  0.00    +0.221 A 
ATOM     10  N   UNL     1       2.607   5.316   5.984  0.00  0.00    -0.175 NA
ATOM     11  C   UNL     1       1.694   5.841   5.141  0.00  0.00    +0.278 A 
ATOM     12  O   UNL     1       0.959   6.743   5.508  0.00  0.00    -0.265 OA
ATOM     13  C   UNL     1       1.603   5.332   3.830  0.00  0.00    +0.037 A 
ATOM     14  C   UNL     1       2.441   4.330   3.452  0.00  0.00    +0.037 A 
ATOM     15  N   UNL     1       3.328   3.844   4.326  0.00  0.00    -0.221 NA
ATOM     16  C   UNL     1       2.404   3.744   2.065  0.00  0.00    -0.021 C 
ATOM     17  N   UNL     1       1.142   4.078   1.398  0.00  0.00    +0.386 N 
ATOM     18  C   UNL     1       0.906   5.530   1.453  0.00  0.00    -0.073 C 
ATOM     19  C   UNL     1       0.574   5.911   2.897  0.00  0.00    +0.024 C 
ATOM     20  H   UNL     1       0.325   3.569   1.931  0.00  0.00    -0.081 HD
ENDROOT
BRANCH  17  21
ATOM     21  C   UNL     1       1.136   3.596   0.011  0.00  0.00    -0.042 C 
BRANCH  21  22
ATOM     22  C   UNL     1       1.157   2.089   0.002  0.00  0.00    -0.063 A 
ATOM     23  C   UNL     1       2.379   1.419  -0.012  0.00  0.00    +0.004 A 
ATOM     24  C   UNL     1       2.435   0.059  -0.020  0.00  0.00    +0.028 A 
ATOM     25  C   UNL     1       1.243  -0.688  -0.013  0.00  0.00    +0.071 A 
ATOM     26  C   UNL     1       0.002  -0.004   0.002  0.00  0.00    +0.001 A 
ATOM     27  C   UNL     1      -0.017   1.400   0.010  0.00  0.00    +0.011 A 
ATOM     28  C   UNL     1      -1.189  -0.753   0.009  0.00  0.00    +0.011 A 
ATOM     29  C   UNL     1      -1.094  -2.116   0.000  0.00  0.00    +0.020 A 
ATOM     30  C   UNL     1       0.159  -2.725  -0.015  0.00  0.00    +0.111 A 
ATOM     31  N   UNL     1       1.267  -2.024  -0.021  0.00  0.00    -0.255 NA
ENDBRANCH  21  22
ENDBRANCH  17  21
TORSDOF 2
