REMARK  Name = ZINC13311556
REMARK  9 active torsions:
REMARK  status: ('A' for Active; 'I' for Inactive)
REMARK    1  A    between atoms: C_1  and  C_2
REMARK    2  A    between atoms: C_6  and  N_8
REMARK    3  A    between atoms: C_21  and  S_22
REMARK    4  A    between atoms: S_22  and  C_23
REMARK    5  A    between atoms: C_23  and  C_24
REMARK    6  A    between atoms: C_24  and  C_26
REMARK    7  A    between atoms: C_26  and  C_28
REMARK    8  A    between atoms: C_26  and  C_30
REMARK    9  A    between atoms: C_30  and  C_31
REMARK                            x       y       z     vdW  Elec       q    Type
REMARK                         _______ _______ _______ _____ _____    ______ ____
ROOT
ATOM      1  N   UNL     1      -0.595   4.984  -3.092  0.00  0.00    -0.245 N 
ATOM      2  C   UNL     1       0.616   5.568  -2.983  0.00  0.00    +0.268 A 
ATOM      3  O   UNL     1       1.629   4.936  -3.214  0.00  0.00    -0.267 OA
ATOM      4  C   UNL     1       0.693   6.984  -2.579  0.00  0.00    +0.064 A 
ATOM      5  C   UNL     1       1.919   7.634  -2.453  0.00  0.00    +0.015 A 
ATOM      6  C   UNL     1       1.952   8.959  -2.073  0.00  0.00    +0.001 A 
ATOM      7  C   UNL     1       0.774   9.644  -1.819  0.00  0.00    +0.002 A 
ATOM      8  C   UNL     1      -0.447   9.011  -1.941  0.00  0.00    +0.027 A 
ATOM      9  C   UNL     1      -0.500   7.679  -2.322  0.00  0.00    +0.064 A 
ATOM     10  N   UNL     1      -1.712   7.014  -2.454  0.00  0.00    -0.255 N 
ATOM     11  C   UNL     1      -1.756   5.698  -2.836  0.00  0.00    +0.245 A 
ATOM     12  N   UNL     1      -3.021   5.357  -2.880  0.00  0.00    -0.109 NA
ATOM     13  N   UNL     1      -3.761   6.358  -2.561  0.00  0.00    -0.120 NA
ATOM     14  C   UNL     1      -3.014   7.399  -2.280  0.00  0.00    +0.198 A 
ENDROOT
BRANCH   1  20
ATOM     15  C   UNL     1      -0.746   0.230  -1.845  0.00  0.00    +0.044 C 
ATOM     16  C   UNL     1      -0.758   1.316  -2.891  0.00  0.00    -0.048 A 
ATOM     17  C   UNL     1      -0.854   0.984  -4.230  0.00  0.00    +0.003 A 
ATOM     18  C   UNL     1      -0.859   1.977  -5.192  0.00  0.00    +0.002 A 
ATOM     19  C   UNL     1      -0.779   3.304  -4.818  0.00  0.00    +0.026 A 
ATOM     20  C   UNL     1      -0.682   3.640  -3.474  0.00  0.00    +0.053 A 
ATOM     21  C   UNL     1      -0.671   2.640  -2.510  0.00  0.00    +0.029 A 
ENDBRANCH   1  20
BRANCH  14  22
ATOM     22  S   UNL     1      -3.580   8.995  -1.793  0.00  0.00    -0.078 S 
BRANCH  22  23
ATOM     23  C   UNL     1      -5.386   8.827  -1.754  0.00  0.00    +0.153 C 
BRANCH  23  24
ATOM     24  C   UNL     1      -6.003  10.140  -1.346  0.00  0.00    +0.166 C 
ATOM     25  O   UNL     1      -5.298  11.091  -1.107  0.00  0.00    -0.295 OA
BRANCH  24  26
ATOM     26  C   UNL     1      -7.501  10.266  -1.237  0.00  0.00    +0.199 C 
BRANCH  26  27
ATOM     27  C   UNL     1      -7.843  11.375  -0.276  0.00  0.00    +0.008 C 
ATOM     28  C   UNL     1      -7.477  11.250   1.181  0.00  0.00    +0.059 C 
ATOM     29  H   UNL     1      -8.707  13.192  -0.155  0.00  0.00    +0.155 HD
ATOM     30  N   UNL     1      -8.454  12.414  -0.765  0.00  0.00    -0.404 N 
ATOM     31  H   UNL     1      -8.681  12.452  -1.766  0.00  0.00    +0.155 HD
ENDBRANCH  26  27
BRANCH  26  32
ATOM     32  C   UNL     1      -8.065  10.574  -2.562  0.00  0.00    +0.079 C 
ATOM     33  N   UNL     1      -8.501  10.811  -3.584  0.00  0.00    -0.195 NA
ENDBRANCH  26  32
ENDBRANCH  24  26
ENDBRANCH  23  24
ENDBRANCH  22  23
ENDBRANCH  14  22
TORSDOF 7
