REMARK  Name = ZINC35508741
REMARK  3 active torsions:
REMARK  status: ('A' for Active; 'I' for Inactive)
REMARK    1  A    between atoms: C_1  and  C_2
REMARK    2  A    between atoms: C_4  and  N_9
REMARK    3  A    between atoms: N_9  and  C_10
REMARK                            x       y       z     vdW  Elec       q    Type
REMARK                         _______ _______ _______ _____ _____    ______ ____
ROOT
ATOM      1  C   UNL     1       0.108  -4.144  -2.340  0.00  0.00    +0.133 A 
ATOM      2  C   UNL     1       0.203  -4.910  -3.486  0.00  0.00    +0.014 A 
ATOM      3  C   UNL     1       0.283  -6.296  -3.372  0.00  0.00    +0.052 A 
ATOM      4  N   UNL     1       0.268  -6.863  -2.181  0.00  0.00    -0.215 NA
ATOM      5  C   UNL     1       0.176  -6.136  -1.063  0.00  0.00    +0.255 A 
ATOM      6  N   UNL     1       0.101  -4.773  -1.128  0.00  0.00    -0.182 N 
ATOM      7  N   UNL     1       0.023  -4.316   0.194  0.00  0.00    -0.151 NA
ATOM      8  C   UNL     1       0.059  -5.373   0.968  0.00  0.00    +0.247 A 
ATOM      9  N   UNL     1       0.143  -6.468   0.223  0.00  0.00    -0.197 NA
ATOM     10  C   UNL     1       0.379  -6.910  -4.753  0.00  0.00    +0.056 C 
ATOM     11  C   UNL     1      -0.090  -5.804  -5.723  0.00  0.00    +0.011 C 
ATOM     12  C   UNL     1       0.240  -4.513  -4.944  0.00  0.00    +0.041 C 
ENDROOT
BRANCH   1  13
ATOM     13  N   UNL     1       0.028  -2.771  -2.419  0.00  0.00    -0.299 N 
ATOM     14  H   UNL     1       0.730  -2.268  -2.861  0.00  0.00    +0.154 HD
BRANCH  13  18
ATOM     15  C   UNL     1      -2.178   1.451  -1.204  0.00  0.00    +0.045 C 
ATOM     16  C   UNL     1      -2.162  -0.055  -1.260  0.00  0.00    -0.035 A 
ATOM     17  C   UNL     1      -1.080  -0.713  -1.810  0.00  0.00    +0.027 A 
ATOM     18  C   UNL     1      -1.066  -2.101  -1.861  0.00  0.00    +0.033 A 
ATOM     19  C   UNL     1      -2.141  -2.823  -1.359  0.00  0.00    +0.024 A 
ATOM     20  C   UNL     1      -3.220  -2.159  -0.809  0.00  0.00    +0.017 A 
ATOM     21  C   UNL     1      -3.229  -0.776  -0.755  0.00  0.00    +0.021 A 
ATOM     22 BR   UNL     1      -4.705   0.129   0.005  0.00  0.00    -0.050 Br
ENDBRANCH  13  18
ENDBRANCH   1  13
TORSDOF 2
