REMARK  Name = ZINC07686803
REMARK  3 active torsions:
REMARK  status: ('A' for Active; 'I' for Inactive)
REMARK    1  A    between atoms: C_8  and  C_10
REMARK    2  A    between atoms: N_15  and  S_16
REMARK    3  A    between atoms: S_16  and  C_19
REMARK                            x       y       z     vdW  Elec       q    Type
REMARK                         _______ _______ _______ _____ _____    ______ ____
ROOT
ATOM      1  S   UNL     1       4.080  -3.946   2.546  0.00  0.00    +0.062 S 
ATOM      2  O   UNL     1       5.410  -3.726   2.997  0.00  0.00    -0.153 OA
ATOM      3  O   UNL     1       3.038  -3.003   2.759  0.00  0.00    -0.153 OA
ENDROOT
BRANCH   1   4
ATOM      4  C   UNL     1       3.546  -5.460   3.272  0.00  0.00    +0.108 A 
ATOM      5  C   UNL     1       2.193  -5.706   3.436  0.00  0.00    +0.030 A 
ATOM      6  C   UNL     1       1.764  -6.889   4.004  0.00  0.00    +0.030 A 
ATOM      7  C   UNL     1       2.693  -7.835   4.412  0.00  0.00    +0.067 A 
ATOM      8  C   UNL     1       4.057  -7.587   4.246  0.00  0.00    +0.069 A 
ATOM      9  C   UNL     1       4.478  -6.398   3.670  0.00  0.00    +0.056 A 
ATOM     10  N   UNL     1       4.732  -8.701   4.740  0.00  0.00    -0.306 N 
ATOM     11  H   UNL     1       5.694  -8.819   4.761  0.00  0.00    +0.170 HD
ATOM     12  C   UNL     1       3.820  -9.586   5.186  0.00  0.00    +0.325 A 
ATOM     13  O   UNL     1       4.077 -10.667   5.681  0.00  0.00    -0.247 OA
ATOM     14  N   UNL     1       2.581  -9.092   5.001  0.00  0.00    -0.306 N 
ATOM     15  H   UNL     1       1.752  -9.536   5.238  0.00  0.00    +0.170 HD
ENDBRANCH   1   4
BRANCH   1  20
ATOM     16  C   UNL     1       3.078  -3.972  -0.050  0.00  0.00    +0.135 C 
ATOM     17  C   UNL     1       3.609  -4.356  -1.447  0.00  0.00    +0.029 C 
ATOM     18  C   UNL     1       4.791  -5.306  -1.120  0.00  0.00    +0.019 C 
ATOM     19  C   UNL     1       5.357  -4.666   0.171  0.00  0.00    +0.110 C 
ATOM     20  N   UNL     1       4.170  -4.191   0.911  0.00  0.00    -0.167 NA
BRANCH  16  28
ATOM     21  C   UNL     1      -0.016   1.357   0.009  0.00  0.00    +0.002 A 
ATOM     22  C   UNL     1       1.156   2.100   0.002  0.00  0.00    +0.001 A 
ATOM     23  C   UNL     1       2.375   1.449  -0.013  0.00  0.00    +0.017 A 
ATOM     24  C   UNL     1       2.404   0.076  -0.021  0.00  0.00    +0.039 A 
ATOM     25  C   UNL     1       1.226  -0.705  -0.013  0.00  0.00    +0.079 A 
ATOM     26  C   UNL     1       0.002  -0.004   0.002  0.00  0.00    +0.029 A 
ATOM     27  N   UNL     1       1.464  -2.033  -0.023  0.00  0.00    -0.242 NA
ATOM     28  C   UNL     1       2.669  -2.521  -0.038  0.00  0.00    +0.098 A 
ATOM     29  S   UNL     1       3.669  -1.167  -0.040  0.00  0.00    -0.070 S 
ENDBRANCH  16  28
ENDBRANCH   1  20
TORSDOF 3
