REMARK  Name = ZINC41331134
REMARK  4 active torsions:
REMARK  status: ('A' for Active; 'I' for Inactive)
REMARK    1  A    between atoms: C_3  and  C_8
REMARK    2  A    between atoms: C_8  and  N_9
REMARK    3  A    between atoms: N_9  and  C_10
REMARK    4  A    between atoms: C_18  and  C_20
REMARK                            x       y       z     vdW  Elec       q    Type
REMARK                         _______ _______ _______ _____ _____    ______ ____
ROOT
ATOM      1  N   UNL     1       4.018   2.519   1.367  0.00  0.00    -0.286 N 
ATOM      2  C   UNL     1       3.497   3.598   1.983  0.00  0.00    +0.283 C 
ATOM      3  O   UNL     1       3.721   3.791   3.163  0.00  0.00    -0.267 OA
ENDROOT
BRANCH   2   4
ATOM      4  C   UNL     1       2.659   4.542   1.230  0.00  0.00    +0.191 A 
ATOM      5  C   UNL     1       2.141   5.695   1.726  0.00  0.00    +0.063 A 
ATOM      6  C   UNL     1       1.384   6.303   0.632  0.00  0.00    +0.022 A 
ATOM      7  C   UNL     1       0.632   7.473   0.501  0.00  0.00    +0.012 A 
ATOM      8  C   UNL     1       0.032   7.762  -0.692  0.00  0.00    +0.002 A 
ATOM      9  C   UNL     1       0.165   6.902  -1.774  0.00  0.00    +0.024 A 
ATOM     10  C   UNL     1       0.902   5.742  -1.665  0.00  0.00    +0.084 A 
ATOM     11  C   UNL     1       1.523   5.426  -0.460  0.00  0.00    +0.154 A 
ATOM     12  O   UNL     1       2.293   4.395  -0.060  0.00  0.00    -0.449 OA
ATOM     13 CL   UNL     1       1.057   4.678  -3.028  0.00  0.00    -0.080 Cl
ENDBRANCH   2   4
BRANCH   1  14
ATOM     14  C   UNL     1       4.945   1.641   2.085  0.00  0.00    +0.099 C 
ATOM     15  C   UNL     1       6.156   2.458   2.564  0.00  0.00    +0.047 C 
ATOM     16  C   UNL     1       6.956   1.591   3.578  0.00  0.00    +0.168 C 
ATOM     17  S   UNL     1       5.576   0.824   4.527  0.00  0.00    -0.029 S 
ATOM     18  O   UNL     1       5.289   1.631   5.660  0.00  0.00    -0.174 OA
ATOM     19  O   UNL     1       5.850  -0.559   4.706  0.00  0.00    -0.174 OA
ATOM     20  C   UNL     1       4.220   1.013   3.300  0.00  0.00    +0.188 C 
ENDBRANCH   1  14
BRANCH   1  21
ATOM     21  C   UNL     1       3.658   2.224  -0.022  0.00  0.00    +0.143 C 
BRANCH  21  24
ATOM     22  C   UNL     1       0.064   1.068   0.025  0.00  0.00    +0.001 A 
ATOM     23  C   UNL     1       1.179   1.885   0.049  0.00  0.00    +0.005 A 
ATOM     24  C   UNL     1       2.443   1.333  -0.048  0.00  0.00    -0.029 A 
ATOM     25  C   UNL     1       2.592  -0.036  -0.169  0.00  0.00    +0.020 A 
ATOM     26  C   UNL     1       1.476  -0.853  -0.192  0.00  0.00    +0.018 A 
ATOM     27  C   UNL     1       0.212  -0.300  -0.095  0.00  0.00    +0.015 A 
ATOM     28 BR   UNL     1       1.680  -2.726  -0.357  0.00  0.00    -0.050 Br
ENDBRANCH  21  24
ENDBRANCH   1  21
TORSDOF 4
