REMARK  Name = ZINC44434399
REMARK  4 active torsions:
REMARK  status: ('A' for Active; 'I' for Inactive)
REMARK    1  A    between atoms: C_6  and  C_7
REMARK    2  A    between atoms: C_9  and  C_12
REMARK    3  A    between atoms: N_18  and  C_19
REMARK    4  A    between atoms: C_19  and  C_20
REMARK                            x       y       z     vdW  Elec       q    Type
REMARK                         _______ _______ _______ _____ _____    ______ ____
ROOT
ATOM      1  C   UNL     1      -3.169  -3.860   0.021  0.00  0.00    +0.165 C 
ATOM      2  C   UNL     1      -3.778  -4.205  -1.357  0.00  0.00    +0.041 C 
ATOM      3  C   UNL     1      -5.269  -3.857  -1.138  0.00  0.00    +0.098 C 
ATOM      4  C   UNL     1      -5.464  -3.983   0.357  0.00  0.00    +0.217 C 
ATOM      5  O   UNL     1      -6.538  -4.069   0.912  0.00  0.00    -0.276 OA
ATOM      6  N   UNL     1      -4.271  -3.988   0.981  0.00  0.00    -0.285 N 
ENDROOT
BRANCH   1   9
ATOM      7  C   UNL     1      -1.272  -0.766   0.011  0.00  0.00    +0.202 A 
ATOM      8  N   UNL     1      -1.384  -2.106   0.010  0.00  0.00    -0.190 NA
ATOM      9  C   UNL     1      -2.641  -2.449   0.019  0.00  0.00    +0.248 A 
ATOM     10  O   UNL     1      -3.384  -1.335   0.026  0.00  0.00    -0.336 OA
ATOM     11  N   UNL     1      -2.474  -0.245   0.026  0.00  0.00    -0.056 NA
BRANCH   7  17
ATOM     12  C   UNL     1      -0.017   1.389   0.010  0.00  0.00    +0.013 A 
ATOM     13  C   UNL     1       1.170   2.093   0.002  0.00  0.00    +0.016 A 
ATOM     14  C   UNL     1       2.378   1.417  -0.013  0.00  0.00    +0.018 A 
ATOM     15  C   UNL     1       2.402   0.033  -0.021  0.00  0.00    +0.016 A 
ATOM     16  C   UNL     1       1.221  -0.680  -0.014  0.00  0.00    +0.013 A 
ATOM     17  C   UNL     1       0.002  -0.004   0.002  0.00  0.00    +0.023 A 
ATOM     18 BR   UNL     1       4.001   2.388  -0.024  0.00  0.00    -0.050 Br
ENDBRANCH   7  17
ENDBRANCH   1   9
BRANCH   6  19
ATOM     19  C   UNL     1      -4.095  -4.107   2.431  0.00  0.00    +0.145 C 
BRANCH  19  20
ATOM     20  C   UNL     1      -4.092  -2.733   3.050  0.00  0.00    -0.012 A 
ATOM     21  C   UNL     1      -2.894  -2.126   3.380  0.00  0.00    +0.009 A 
ATOM     22  C   UNL     1      -2.891  -0.866   3.948  0.00  0.00    +0.039 A 
ATOM     23  C   UNL     1      -4.087  -0.211   4.188  0.00  0.00    +0.125 A 
ATOM     24  C   UNL     1      -5.286  -0.819   3.858  0.00  0.00    +0.058 A 
ATOM     25  C   UNL     1      -5.288  -2.078   3.284  0.00  0.00    +0.048 A 
ATOM     26 CL   UNL     1      -6.791  -2.838   2.864  0.00  0.00    -0.083 Cl
ATOM     27  F   UNL     1      -4.084   1.020   4.744  0.00  0.00    -0.205 F 
ENDBRANCH  19  20
ENDBRANCH   6  19
TORSDOF 4
