REMARK  Name = ZINC39301943
REMARK  7 active torsions:
REMARK  status: ('A' for Active; 'I' for Inactive)
REMARK    1  A    between atoms: N_9  and  C_35
REMARK    2  A    between atoms: C_10  and  C_13
REMARK    3  A    between atoms: C_16  and  C_19
REMARK    4  A    between atoms: N_21  and  C_22
REMARK    5  A    between atoms: C_22  and  C_23
REMARK    6  A    between atoms: C_23  and  N_24
REMARK    7  A    between atoms: C_35  and  C_36
REMARK                            x       y       z     vdW  Elec       q    Type
REMARK                         _______ _______ _______ _____ _____    ______ ____
ROOT
ATOM      1  C   UNL     1       3.689  -1.800   2.104  0.00  0.00    -0.009 A 
ATOM      2  C   UNL     1       3.144  -2.777   2.918  0.00  0.00    +0.008 A 
ATOM      3  C   UNL     1       3.167  -2.628   4.290  0.00  0.00    +0.013 A 
ATOM      4  C   UNL     1       3.743  -1.490   4.856  0.00  0.00    +0.037 A 
ATOM      5  C   UNL     1       4.291  -0.508   4.029  0.00  0.00    +0.013 A 
ATOM      6  C   UNL     1       4.266  -0.671   2.659  0.00  0.00    +0.008 A 
ENDROOT
BRANCH   1  16
ATOM      7  C   UNL     1      -0.017   1.375   0.010  0.00  0.00    +0.001 A 
ATOM      8  C   UNL     1       1.168   2.095   0.002  0.00  0.00    +0.002 A 
ATOM      9  C   UNL     1       2.386   1.444  -0.012  0.00  0.00    +0.024 A 
ATOM     10  C   UNL     1       2.422   0.060  -0.018  0.00  0.00    +0.041 A 
ATOM     11  C   UNL     1       1.223  -0.674  -0.014  0.00  0.00    +0.058 A 
ATOM     12  C   UNL     1       0.002  -0.004   0.002  0.00  0.00    +0.015 A 
ATOM     13  C   UNL     1       1.301  -2.146  -0.031  0.00  0.00    +0.250 C 
ATOM     14  O   UNL     1       0.313  -2.811  -0.278  0.00  0.00    -0.270 OA
ATOM     15  N   UNL     1       2.480  -2.747   0.230  0.00  0.00    -0.269 N 
ATOM     16  C   UNL     1       3.660  -1.968   0.607  0.00  0.00    +0.193 C 
ATOM     17  N   UNL     1       3.621  -0.645  -0.027  0.00  0.00    -0.321 N 
ATOM     18  H   UNL     1       4.413  -0.271  -0.443  0.00  0.00    +0.148 HD
BRANCH  15  19
ATOM     19  C   UNL     1       2.581  -4.205   0.135  0.00  0.00    +0.165 C 
BRANCH  19  20
ATOM     20  C   UNL     1       2.977  -4.590  -1.267  0.00  0.00    +0.059 A 
ATOM     21  C   UNL     1       4.309  -4.812  -1.564  0.00  0.00    +0.025 A 
ATOM     22  C   UNL     1       4.662  -5.167  -2.857  0.00  0.00    +0.003 A 
ATOM     23  C   UNL     1       3.659  -5.285  -3.807  0.00  0.00    +0.020 A 
ATOM     24  C   UNL     1       2.349  -5.048  -3.436  0.00  0.00    +0.111 A 
ATOM     25  N   UNL     1       2.049  -4.718  -2.195  0.00  0.00    -0.258 NA
ENDBRANCH  19  20
ENDBRANCH  15  19
ENDBRANCH   1  16
BRANCH   4  26
ATOM     26  C   UNL     1       3.771  -1.324   6.324  0.00  0.00    +0.244 C 
ATOM     27  O   UNL     1       3.292  -2.180   7.042  0.00  0.00    -0.270 OA
ATOM     28  N   UNL     1       4.327  -0.223   6.868  0.00  0.00    -0.310 N 
ATOM     29  H   UNL     1       4.709   0.460   6.295  0.00  0.00    +0.149 HD
BRANCH  28  30
ATOM     30  C   UNL     1       4.355  -0.059   8.323  0.00  0.00    +0.126 C 
BRANCH  30  31
ATOM     31  C   UNL     1       5.036   1.265   8.674  0.00  0.00    +0.145 C 
BRANCH  31  32
ATOM     32  N   UNL     1       5.064   1.430  10.130  0.00  0.00    -0.291 N 
ATOM     33  C   UNL     1       4.077   2.041  10.900  0.00  0.00    +0.070 A 
ATOM     34  C   UNL     1       2.864   2.638  10.593  0.00  0.00    +0.028 A 
ATOM     35  C   UNL     1       2.085   3.170  11.602  0.00  0.00    +0.002 A 
ATOM     36  C   UNL     1       2.510   3.110  12.918  0.00  0.00    +0.002 A 
ATOM     37  C   UNL     1       3.717   2.517  13.234  0.00  0.00    +0.028 A 
ATOM     38  C   UNL     1       4.506   1.979  12.228  0.00  0.00    +0.067 A 
ATOM     39  N   UNL     1       5.740   1.333  12.223  0.00  0.00    -0.306 N 
ATOM     40  H   UNL     1       6.284   1.143  13.003  0.00  0.00    +0.170 HD
ATOM     41  C   UNL     1       6.045   1.010  10.951  0.00  0.00    +0.328 A 
ATOM     42  O   UNL     1       7.055   0.431  10.598  0.00  0.00    -0.247 OA
ENDBRANCH  31  32
ENDBRANCH  30  31
ENDBRANCH  28  30
ENDBRANCH   4  26
TORSDOF 7
