REMARK  Name = ZINC38337197
REMARK  14 active torsions:
REMARK  status: ('A' for Active; 'I' for Inactive)
REMARK    1  A    between atoms: C_1  and  C_2
REMARK    2  A    between atoms: C_2  and  C_3
REMARK    3  A    between atoms: C_3  and  C_4
REMARK    4  A    between atoms: C_7  and  C_12
REMARK    5  A    between atoms: N_9  and  C_11
REMARK    6  A    between atoms: N_14  and  C_15
REMARK    7  A    between atoms: C_15  and  C_17
REMARK    8  A    between atoms: C_15  and  C_19
REMARK    9  A    between atoms: C_17  and  C_18
REMARK   10  A    between atoms: C_21  and  O_34
REMARK   11  A    between atoms: C_23  and  O_33
REMARK   12  A    between atoms: C_25  and  O_32
REMARK   13  A    between atoms: C_27  and  S_30
REMARK   14  A    between atoms: S_30  and  C_31
REMARK                            x       y       z     vdW  Elec       q    Type
REMARK                         _______ _______ _______ _____ _____    ______ ____
ROOT
ATOM      1  C   UNL     1      -3.397  -4.948  -4.475  0.00  0.00    +0.104 C 
ENDROOT
BRANCH   1   2
ATOM      2  C   UNL     1      -4.806  -4.353  -4.419  0.00  0.00    +0.171 C 
ATOM      3  C   UNL     1      -5.626  -4.870  -5.604  0.00  0.00    +0.176 C 
ATOM      4  C   UNL     1      -4.974  -4.399  -6.908  0.00  0.00    +0.177 C 
ATOM      5  C   UNL     1      -4.873  -2.871  -6.894  0.00  0.00    +0.184 C 
ATOM      6  C   UNL     1      -4.082  -2.432  -5.658  0.00  0.00    +0.207 C 
ATOM      7  O   UNL     1      -4.725  -2.928  -4.482  0.00  0.00    -0.356 OA
BRANCH   6   8
ATOM      8  S   UNL     1      -4.017  -0.620  -5.594  0.00  0.00    -0.131 S 
ATOM      9  C   UNL     1      -2.816  -0.270  -4.281  0.00  0.00    +0.087 C 
ENDBRANCH   6   8
BRANCH   5  10
ATOM     10  O   UNL     1      -4.202  -2.425  -8.074  0.00  0.00    -0.386 OA
ATOM     11  H   UNL     1      -4.103  -1.465  -8.131  0.00  0.00    +0.210 HD
ENDBRANCH   5  10
BRANCH   4  12
ATOM     12  O   UNL     1      -5.772  -4.816  -8.018  0.00  0.00    -0.386 OA
ATOM     13  H   UNL     1      -5.418  -4.552  -8.879  0.00  0.00    +0.210 HD
ENDBRANCH   4  12
BRANCH   3  14
ATOM     14  O   UNL     1      -5.661  -6.298  -5.574  0.00  0.00    -0.387 OA
ATOM     15  H   UNL     1      -6.165  -6.694  -6.298  0.00  0.00    +0.210 HD
ENDBRANCH   3  14
ENDBRANCH   1   2
BRANCH   1  18
ATOM     16  C   UNL     1      -1.236  -4.013  -3.848  0.00  0.00    +0.200 C 
ATOM     17  O   UNL     1      -0.792  -4.407  -4.905  0.00  0.00    -0.278 OA
ATOM     18  N   UNL     1      -2.528  -4.234  -3.536  0.00  0.00    -0.311 N 
ATOM     19  H   UNL     1      -2.883  -3.921  -2.689  0.00  0.00    +0.149 HD
BRANCH  16  22
ATOM     20  C   UNL     1       1.702  -1.984  -3.011  0.00  0.00    -0.029 C 
ATOM     21  C   UNL     1       0.255  -2.030  -3.569  0.00  0.00    -0.005 C 
ATOM     22  C   UNL     1      -0.343  -3.276  -2.883  0.00  0.00    +0.019 C 
ATOM     23  N   UNL     1       0.784  -4.137  -2.481  0.00  0.00    +0.386 N 
ATOM     24  C   UNL     1       2.045  -3.491  -2.906  0.00  0.00    -0.075 C 
ATOM     25  C   UNL     1       0.658  -5.450  -3.126  0.00  0.00    -0.095 C 
ATOM     26  H   UNL     1       0.783  -4.251  -1.478  0.00  0.00    -0.081 HD
BRANCH  20  27
ATOM     27  C   UNL     1       2.643  -1.274  -3.986  0.00  0.00    +0.001 C 
BRANCH  27  29
ATOM     28  C   UNL     1       3.246   0.927  -5.002  0.00  0.00    +0.004 C 
ATOM     29  C   UNL     1       2.304   0.217  -4.027  0.00  0.00    -0.003 C 
ENDBRANCH  27  29
ENDBRANCH  20  27
ENDBRANCH  16  22
ENDBRANCH   1  18
BRANCH   1  30
ATOM     30  C   UNL     1      -3.453  -6.428  -4.094  0.00  0.00    +0.021 C 
ATOM     31  C   UNL     1      -2.085  -7.069  -4.337  0.00  0.00    +0.006 C 
ENDBRANCH   1  30
TORSDOF 10
