REMARK  Name = ZINC20358357
REMARK  8 active torsions:
REMARK  status: ('A' for Active; 'I' for Inactive)
REMARK    1  A    between atoms: C_1  and  C_2
REMARK    2  A    between atoms: C_2  and  N_3
REMARK    3  A    between atoms: N_3  and  C_4
REMARK    4  A    between atoms: N_3  and  C_6
REMARK    5  A    between atoms: C_4  and  C_5
REMARK    6  A    between atoms: C_6  and  C_7
REMARK    7  A    between atoms: C_8  and  O_28
REMARK    8  A    between atoms: C_15  and  C_18
REMARK                            x       y       z     vdW  Elec       q    Type
REMARK                         _______ _______ _______ _____ _____    ______ ____
ROOT
ATOM      1  C   UNL     1       1.964  -2.149  -0.213  0.00  0.00    +0.020 A 
ATOM      2  C   UNL     1       1.348  -2.428  -1.421  0.00  0.00    +0.122 A 
ATOM      3  C   UNL     1       2.105  -2.653  -2.569  0.00  0.00    +0.046 A 
ATOM      4  C   UNL     1       3.469  -2.599  -2.517  0.00  0.00    +0.019 A 
ATOM      5  C   UNL     1       4.103  -2.316  -1.308  0.00  0.00    +0.065 A 
ATOM      6  C   UNL     1       3.350  -2.087  -0.143  0.00  0.00    +0.143 A 
ATOM      7  O   UNL     1       3.967  -1.823   1.026  0.00  0.00    -0.462 OA
ATOM      8  C   UNL     1       5.252  -1.469   1.077  0.00  0.00    +0.208 A 
ATOM      9  C   UNL     1       6.105  -1.639   0.033  0.00  0.00    +0.064 A 
ATOM     10  C   UNL     1       5.573  -2.239  -1.209  0.00  0.00    +0.200 A 
ATOM     11  O   UNL     1       6.303  -2.632  -2.103  0.00  0.00    -0.286 OA
ENDROOT
BRANCH   9  12
ATOM     12  C   UNL     1       7.531  -1.246   0.141  0.00  0.00    -0.008 A 
ATOM     13  C   UNL     1       8.032  -0.212  -0.649  0.00  0.00    +0.012 A 
ATOM     14  C   UNL     1       9.359   0.151  -0.548  0.00  0.00    +0.050 A 
ATOM     15  C   UNL     1      10.199  -0.508   0.338  0.00  0.00    +0.162 A 
ATOM     16  C   UNL     1       9.704  -1.539   1.131  0.00  0.00    +0.163 A 
ATOM     17  C   UNL     1       8.371  -1.904   1.036  0.00  0.00    +0.058 A 
ATOM     18  O   UNL     1      10.512  -2.191   2.011  0.00  0.00    -0.485 OA
ATOM     19  C   UNL     1      11.923  -2.047   1.817  0.00  0.00    +0.270 C 
ATOM     20  C   UNL     1      12.226  -0.561   1.581  0.00  0.00    +0.270 C 
ATOM     21  O   UNL     1      11.506  -0.136   0.419  0.00  0.00    -0.485 OA
ENDBRANCH   9  12
BRANCH   2  22
ATOM     22  O   UNL     1      -0.006  -2.483  -1.488  0.00  0.00    -0.506 OA
ATOM     23  H   UNL     1      -0.425  -1.636  -1.693  0.00  0.00    +0.292 HD
ENDBRANCH   2  22
BRANCH   1  24
ATOM     24  C   UNL     1       1.133  -1.907   1.021  0.00  0.00    -0.036 C 
BRANCH  24  25
ATOM     25  N   UNL     1       0.818  -0.476   1.126  0.00  0.00    +0.382 N 
ATOM     26  H   UNL     1       1.673   0.059   1.105  0.00  0.00    -0.081 HD
BRANCH  25  28
ATOM     27  C   UNL     1      -0.285   1.430   0.055  0.00  0.00    -0.017 C 
ATOM     28  C   UNL     1      -0.036  -0.079  -0.002  0.00  0.00    -0.082 C 
ENDBRANCH  25  28
BRANCH  25  29
ATOM     29  C   UNL     1       0.111  -0.222   2.389  0.00  0.00    -0.082 C 
ATOM     30  C   UNL     1       1.053  -0.495   3.563  0.00  0.00    -0.017 C 
ENDBRANCH  25  29
ENDBRANCH  24  25
ENDBRANCH   1  24
TORSDOF 6
