REMARK  Name = ZINC64480051
REMARK  10 active torsions:
REMARK  status: ('A' for Active; 'I' for Inactive)
REMARK    1  A    between atoms: C_1  and  C_2
REMARK    2  A    between atoms: C_2  and  C_4
REMARK    3  A    between atoms: C_2  and  N_20
REMARK    4  A    between atoms: N_6  and  C_7
REMARK    5  A    between atoms: C_7  and  C_8
REMARK    6  A    between atoms: C_8  and  C_9
REMARK    7  A    between atoms: C_12  and  O_18
REMARK    8  A    between atoms: O_18  and  C_19
REMARK    9  A    between atoms: C_21  and  C_23
REMARK   10  A    between atoms: C_23  and  C_24
REMARK                            x       y       z     vdW  Elec       q    Type
REMARK                         _______ _______ _______ _____ _____    ______ ____
ROOT
ATOM      1  C   UNL     1      -0.019   1.526   0.010  0.00  0.00    +0.038 C 
ATOM      2  C   UNL     1       0.002  -0.004   0.002  0.00  0.00    +0.156 C 
ENDROOT
BRANCH   2   3
ATOM      3  C   UNL     1      -1.412  -0.526   0.013  0.00  0.00    +0.233 C 
ATOM      4  O   UNL     1      -1.808  -1.223  -0.897  0.00  0.00    -0.274 OA
ATOM      5  N   UNL     1      -2.236  -0.217   1.033  0.00  0.00    -0.313 N 
ATOM      6  H   UNL     1      -1.920   0.341   1.761  0.00  0.00    +0.149 HD
BRANCH   5   7
ATOM      7  C   UNL     1      -3.611  -0.724   1.044  0.00  0.00    +0.108 C 
BRANCH   7   8
ATOM      8  C   UNL     1      -4.327  -0.231   2.302  0.00  0.00    +0.052 C 
BRANCH   8   9
ATOM      9  C   UNL     1      -5.741  -0.752   2.313  0.00  0.00    -0.040 C 
ATOM     10  C   UNL     1      -6.192  -1.864   2.936  0.00  0.00    +0.002 A 
ATOM     11  C   UNL     1      -5.530  -2.883   3.757  0.00  0.00    +0.055 A 
ATOM     12  C   UNL     1      -6.256  -3.911   4.259  0.00  0.00    +0.121 A 
ATOM     13  C   UNL     1      -7.635  -4.042   4.022  0.00  0.00    +0.047 A 
ATOM     14  C   UNL     1      -8.332  -3.155   3.279  0.00  0.00    +0.029 A 
ATOM     15  C   UNL     1      -7.646  -2.003   2.686  0.00  0.00    +0.043 A 
ATOM     16  N   UNL     1      -8.075  -1.016   1.940  0.00  0.00    -0.380 N 
ATOM     17  C   UNL     1      -6.943  -0.134   1.635  0.00  0.00    +0.144 C 
ATOM     18  H   UNL     1      -8.989  -0.888   1.642  0.00  0.00    +0.160 HD
BRANCH  12  19
ATOM     19  O   UNL     1      -5.629  -4.848   5.018  0.00  0.00    -0.495 OA
ATOM     20  C   UNL     1      -6.433  -5.914   5.527  0.00  0.00    +0.277 C 
ENDBRANCH  12  19
ENDBRANCH   8   9
ENDBRANCH   7   8
ENDBRANCH   5   7
ENDBRANCH   2   3
BRANCH   2  21
ATOM     21  N   UNL     1       0.688  -0.476  -1.203  0.00  0.00    -0.304 N 
ATOM     22  C   UNL     1       2.031  -0.587  -1.215  0.00  0.00    +0.220 C 
ATOM     23  O   UNL     1       2.672  -0.295  -0.228  0.00  0.00    -0.275 OA
ATOM     24  H   UNL     1       0.175  -0.710  -1.993  0.00  0.00    +0.149 HD
BRANCH  22  25
ATOM     25  C   UNL     1       2.736  -1.073  -2.455  0.00  0.00    +0.153 C 
BRANCH  25  26
ATOM     26  C   UNL     1       4.223  -1.105  -2.207  0.00  0.00    +0.078 A 
ATOM     27  C   UNL     1       5.131  -1.539  -3.268  0.00  0.00    +0.011 A 
ATOM     28  C   UNL     1       4.664  -1.931  -4.524  0.00  0.00    +0.010 A 
ATOM     29  C   UNL     1       5.554  -2.327  -5.484  0.00  0.00    +0.001 A 
ATOM     30  C   UNL     1       6.919  -2.347  -5.227  0.00  0.00    +0.001 A 
ATOM     31  C   UNL     1       7.408  -1.966  -3.997  0.00  0.00    +0.014 A 
ATOM     32  C   UNL     1       6.520  -1.557  -3.003  0.00  0.00    +0.050 A 
ATOM     33  C   UNL     1       6.979  -1.138  -1.673  0.00  0.00    +0.272 A 
ATOM     34  N   UNL     1       6.061  -0.755  -0.761  0.00  0.00    -0.242 N 
ATOM     35  N   UNL     1       4.697  -0.742  -1.053  0.00  0.00    -0.175 NA
ATOM     36  O   UNL     1       8.165  -1.138  -1.398  0.00  0.00    -0.266 OA
ATOM     37  H   UNL     1       6.358  -0.477   0.120  0.00  0.00    +0.192 HD
ENDBRANCH  25  26
ENDBRANCH  22  25
ENDBRANCH   2  21
TORSDOF 8
