REMARK  Name = ZINC61719986
REMARK  3 active torsions:
REMARK  status: ('A' for Active; 'I' for Inactive)
REMARK    1  A    between atoms: C_3  and  C_8
REMARK    2  A    between atoms: C_10  and  C_14
REMARK    3  A    between atoms: C_17  and  C_22
REMARK                            x       y       z     vdW  Elec       q    Type
REMARK                         _______ _______ _______ _____ _____    ______ ____
ROOT
ATOM      1  C   UNL     1       3.660   2.167  -0.022  0.00  0.00    +0.093 A 
ATOM      2  C   UNL     1       4.948   1.607  -0.043  0.00  0.00    +0.060 A 
ATOM      3  C   UNL     1       5.848   2.634  -0.045  0.00  0.00    +0.093 A 
ATOM      4  N   UNL     1       5.140   3.801  -0.026  0.00  0.00    -0.274 N 
ATOM      5  H   UNL     1       5.515   4.696  -0.023  0.00  0.00    +0.189 HD
ATOM      6  N   UNL     1       3.777   3.478  -0.017  0.00  0.00    -0.173 NA
ENDROOT
BRANCH   3   7
ATOM      7  C   UNL     1       7.318   2.506  -0.064  0.00  0.00    +0.150 A 
ATOM      8  N   UNL     1       8.049   1.419  -0.088  0.00  0.00    -0.154 NA
ATOM      9  N   UNL     1       9.436   1.487  -0.103  0.00  0.00    -0.183 N 
ATOM     10  C   UNL     1      10.531   0.648  -0.128  0.00  0.00    +0.240 A 
ATOM     11  N   UNL     1      11.605   1.387  -0.130  0.00  0.00    -0.124 NA
ATOM     12  N   UNL     1      11.283   2.634  -0.109  0.00  0.00    -0.120 NA
ATOM     13  C   UNL     1       9.989   2.744  -0.092  0.00  0.00    +0.219 A 
ATOM     14  S   UNL     1       8.557   3.793  -0.069  0.00  0.00    -0.025 S 
BRANCH  10  15
ATOM     15  C   UNL     1      10.493  -0.859  -0.147  0.00  0.00    +0.384 C 
ATOM     16  F   UNL     1      11.759  -1.361   0.172  0.00  0.00    -0.179 F 
ATOM     17  F   UNL     1       9.560  -1.314   0.790  0.00  0.00    -0.179 F 
ATOM     18 CL   UNL     1      10.018  -1.426  -1.792  0.00  0.00    -0.039 Cl
ENDBRANCH  10  15
ENDBRANCH   3   7
BRANCH   1  21
ATOM     19  C   UNL     1      -0.017   1.379   0.010  0.00  0.00    +0.002 A 
ATOM     20  C   UNL     1       1.168   2.088   0.002  0.00  0.00    +0.010 A 
ATOM     21  C   UNL     1       2.384   1.409  -0.013  0.00  0.00    +0.003 A 
ATOM     22  C   UNL     1       2.398   0.015  -0.021  0.00  0.00    +0.030 A 
ATOM     23  C   UNL     1       1.208  -0.685  -0.013  0.00  0.00    +0.042 A 
ATOM     24  C   UNL     1       0.002  -0.004   0.002  0.00  0.00    +0.020 A 
ATOM     25 CL   UNL     1       1.223  -2.421  -0.023  0.00  0.00    -0.084 Cl
ENDBRANCH   1  21
TORSDOF 3
