REMARK  Name = ZINC38904474
REMARK  4 active torsions:
REMARK  status: ('A' for Active; 'I' for Inactive)
REMARK    1  A    between atoms: C_5  and  C_7
REMARK    2  A    between atoms: C_10  and  C_13
REMARK    3  A    between atoms: N_15  and  N_16
REMARK    4  A    between atoms: C_17  and  C_18
REMARK                            x       y       z     vdW  Elec       q    Type
REMARK                         _______ _______ _______ _____ _____    ______ ____
ROOT
ATOM      1  C   UNL     1      -0.019  -4.144  -2.915  0.00  0.00    +0.283 C 
ATOM      2  O   UNL     1       0.774  -4.121  -3.837  0.00  0.00    -0.267 OA
ATOM      3  N   UNL     1      -1.175  -4.826  -3.037  0.00  0.00    -0.202 N 
ATOM      4  H   UNL     1      -1.807  -4.844  -2.302  0.00  0.00    +0.178 HD
ENDROOT
BRANCH   1   7
ATOM      5  C   UNL     1       1.229  -2.186  -0.022  0.00  0.00    +0.155 C 
ATOM      6  C   UNL     1       1.412  -2.711  -1.435  0.00  0.00    +0.038 C 
ATOM      7  C   UNL     1       0.285  -3.424  -1.662  0.00  0.00    +0.145 C 
ATOM      8  N   UNL     1      -0.527  -3.384  -0.573  0.00  0.00    -0.173 NA
ATOM      9  N   UNL     1      -0.082  -2.726   0.375  0.00  0.00    -0.297 N 
ATOM     10  H   UNL     1      -0.519  -2.587   1.230  0.00  0.00    +0.183 HD
BRANCH   5  15
ATOM     11  C   UNL     1      -0.017   1.378   0.010  0.00  0.00    +0.000 A 
ATOM     12  C   UNL     1       1.171   2.086   0.002  0.00  0.00    +0.001 A 
ATOM     13  C   UNL     1       2.377   1.412  -0.013  0.00  0.00    +0.020 A 
ATOM     14  C   UNL     1       2.397   0.029  -0.021  0.00  0.00    +0.046 A 
ATOM     15  C   UNL     1       1.208  -0.679  -0.013  0.00  0.00    -0.002 A 
ATOM     16  C   UNL     1       0.002  -0.004   0.002  0.00  0.00    +0.007 A 
ATOM     17 CL   UNL     1       3.912  -0.818  -0.041  0.00  0.00    -0.083 Cl
ENDBRANCH   5  15
ENDBRANCH   1   7
BRANCH   3  18
ATOM     18  N   UNL     1      -1.463  -5.508  -4.226  0.00  0.00    -0.188 NA
ATOM     19  C   UNL     1      -2.587  -6.171  -4.345  0.00  0.00    +0.136 C 
BRANCH  19  20
ATOM     20  C   UNL     1      -2.875  -6.854  -5.534  0.00  0.00    +0.000 C 
ATOM     21  C   UNL     1      -4.019  -7.596  -5.823  0.00  0.00    +0.004 A 
ATOM     22  C   UNL     1      -5.181  -7.889  -5.075  0.00  0.00    +0.010 A 
ATOM     23  C   UNL     1      -6.157  -8.656  -5.622  0.00  0.00    +0.001 A 
ATOM     24  C   UNL     1      -6.046  -9.170  -6.918  0.00  0.00    +0.002 A 
ATOM     25  C   UNL     1      -4.960  -8.930  -7.692  0.00  0.00    +0.026 A 
ATOM     26  C   UNL     1      -3.896  -8.135  -7.188  0.00  0.00    +0.043 A 
ATOM     27  N   UNL     1      -2.756  -7.763  -7.730  0.00  0.00    -0.380 N 
ATOM     28  C   UNL     1      -2.014  -6.934  -6.775  0.00  0.00    +0.150 C 
ATOM     29  H   UNL     1      -2.455  -7.997  -8.622  0.00  0.00    +0.160 HD
ENDBRANCH  19  20
ENDBRANCH   3  18
TORSDOF 4
