REMARK  Name = ZINC32610032
REMARK  4 active torsions:
REMARK  status: ('A' for Active; 'I' for Inactive)
REMARK    1  A    between atoms: C_6  and  C_7
REMARK    2  A    between atoms: C_7  and  N_8
REMARK    3  A    between atoms: C_14  and  C_16
REMARK    4  A    between atoms: C_22  and  C_24
REMARK                            x       y       z     vdW  Elec       q    Type
REMARK                         _______ _______ _______ _____ _____    ______ ____
ROOT
ATOM      1  N   UNL     1      -0.721   1.571  -1.179  0.00  0.00    -0.264 N 
ATOM      2  C   UNL     1      -0.181   2.289  -2.188  0.00  0.00    +0.130 A 
ATOM      3  C   UNL     1      -1.158   2.536  -3.090  0.00  0.00    +0.100 A 
ATOM      4  C   UNL     1      -2.344   1.956  -2.611  0.00  0.00    +0.165 A 
ATOM      5  N   UNL     1      -2.079   1.377  -1.463  0.00  0.00    -0.154 NA
ATOM      6  N   UNL     1      -3.593   1.990  -3.247  0.00  0.00    -0.268 N 
ATOM      7  C   UNL     1      -4.656   1.391  -2.676  0.00  0.00    +0.222 C 
ATOM      8  O   UNL     1      -4.533   0.822  -1.612  0.00  0.00    -0.275 OA
ATOM      9 CL   UNL     1      -0.979   3.421  -4.573  0.00  0.00    -0.078 Cl
ATOM     10  H   UNL     1      -3.704   2.506  -4.212  0.00  0.00    +0.156 HD
ENDROOT
BRANCH   7  11
ATOM     11  C   UNL     1      -5.999   1.427  -3.360  0.00  0.00    +0.089 C 
ATOM     12  C   UNL     1      -6.443   2.881  -3.534  0.00  0.00    +0.013 C 
ATOM     13  C   UNL     1      -6.551   3.549  -2.161  0.00  0.00    +0.001 C 
ATOM     14  C   UNL     1      -7.578   2.800  -1.309  0.00  0.00    +0.001 C 
ATOM     15  C   UNL     1      -7.134   1.346  -1.136  0.00  0.00    +0.015 C 
ATOM     16  C   UNL     1      -7.026   0.678  -2.508  0.00  0.00    +0.114 C 
BRANCH  16  17
ATOM     17  C   UNL     1      -6.588  -0.753  -2.337  0.00  0.00    +0.360 C 
ATOM     18  O   UNL     1      -5.560  -1.136  -2.844  0.00  0.00    -0.246 OA
ATOM     19  O   UNL     1      -7.340  -1.604  -1.621  0.00  0.00    -0.246 OA
ENDBRANCH  16  17
ENDBRANCH   7  11
BRANCH   1  20
ATOM     20  C   UNL     1      -0.013   1.086   0.008  0.00  0.00    +0.178 C 
BRANCH  20  26
ATOM     21  C   UNL     1      -0.359   2.779   1.818  0.00  0.00    +0.008 A 
ATOM     22  C   UNL     1      -1.009   3.228   2.953  0.00  0.00    +0.038 A 
ATOM     23  C   UNL     1      -2.012   2.463   3.524  0.00  0.00    +0.123 A 
ATOM     24  C   UNL     1      -2.367   1.252   2.955  0.00  0.00    +0.038 A 
ATOM     25  C   UNL     1      -1.719   0.807   1.817  0.00  0.00    +0.008 A 
ATOM     26  C   UNL     1      -0.718   1.572   1.248  0.00  0.00    -0.026 A 
ATOM     27  F   UNL     1      -2.644   2.899   4.635  0.00  0.00    -0.205 F 
ENDBRANCH  20  26
ENDBRANCH   1  20
TORSDOF 4
