REMARK  Name = ZINC22418135
REMARK  9 active torsions:
REMARK  status: ('A' for Active; 'I' for Inactive)
REMARK    1  A    between atoms: C_1  and  N_2
REMARK    2  A    between atoms: N_2  and  C_3
REMARK    3  A    between atoms: N_2  and  C_4
REMARK    4  A    between atoms: C_7  and  C_10
REMARK    5  A    between atoms: C_10  and  C_12
REMARK    6  A    between atoms: C_10  and  N_24
REMARK    7  A    between atoms: C_12  and  N_13
REMARK    8  A    between atoms: C_14  and  C_16
REMARK    9  A    between atoms: C_16  and  C_17
REMARK                            x       y       z     vdW  Elec       q    Type
REMARK                         _______ _______ _______ _____ _____    ______ ____
ROOT
ATOM      1  C   UNL     1      -0.123   0.960   0.011  0.00  0.00    -0.020 C 
ENDROOT
BRANCH   1   2
ATOM      2  N   UNL     1      -0.690   1.463   1.270  0.00  0.00    +0.388 N 
ATOM      3  C   UNL     1      -2.068   0.984   1.456  0.00  0.00    -0.073 C 
ATOM      4  C   UNL     1      -2.472   1.219   2.912  0.00  0.00    +0.017 C 
ATOM      5  C   UNL     1      -2.174   2.643   3.305  0.00  0.00    -0.048 A 
ATOM      6  C   UNL     1      -2.777   3.156   4.443  0.00  0.00    +0.004 A 
ATOM      7  C   UNL     1      -2.529   4.454   4.840  0.00  0.00    +0.000 A 
ATOM      8  C   UNL     1      -1.673   5.248   4.099  0.00  0.00    +0.000 A 
ATOM      9  C   UNL     1      -1.073   4.739   2.965  0.00  0.00    +0.002 A 
ATOM     10  C   UNL     1      -1.323   3.435   2.563  0.00  0.00    -0.061 A 
ATOM     11  C   UNL     1      -0.651   2.928   1.315  0.00  0.00    -0.042 C 
ATOM     12  H   UNL     1      -0.070   1.076   2.092  0.00  0.00    -0.080 HD
ENDBRANCH   1   2
BRANCH   1  16
ATOM     13  C   UNL     1      -2.272   2.625  -3.286  0.00  0.00    +0.029 A 
ATOM     14  C   UNL     1      -2.488   1.306  -2.909  0.00  0.00    +0.023 A 
ATOM     15  C   UNL     1      -1.792   0.771  -1.843  0.00  0.00    +0.004 A 
ATOM     16  C   UNL     1      -0.881   1.547  -1.151  0.00  0.00    -0.059 A 
ATOM     17  C   UNL     1      -0.667   2.862  -1.520  0.00  0.00    +0.004 A 
ATOM     18  C   UNL     1      -1.356   3.402  -2.589  0.00  0.00    +0.023 A 
BRANCH  13  20
ATOM     19  C   UNL     1      -4.022   2.388  -5.025  0.00  0.00    +0.129 C 
ATOM     20  N   UNL     1      -2.975   3.170  -4.363  0.00  0.00    -0.336 N 
ATOM     21  C   UNL     1      -2.664   4.522  -4.832  0.00  0.00    +0.129 C 
ENDBRANCH  13  20
ENDBRANCH   1  16
BRANCH   1  22
ATOM     22  C   UNL     1       1.350   1.365  -0.083  0.00  0.00    +0.093 C 
BRANCH  22  23
ATOM     23  N   UNL     1       2.062   0.895   1.108  0.00  0.00    -0.316 N 
ATOM     24  C   UNL     1       3.381   1.139   1.244  0.00  0.00    +0.217 C 
ATOM     25  O   UNL     1       3.977   1.748   0.381  0.00  0.00    -0.275 OA
ATOM     26  H   UNL     1       1.521   0.344   1.891  0.00  0.00    +0.149 HD
BRANCH  24  27
ATOM     27  C   UNL     1       4.114   0.656   2.469  0.00  0.00    +0.130 C 
BRANCH  27  28
ATOM     28  C   UNL     1       5.564   1.055   2.376  0.00  0.00    -0.039 A 
ATOM     29  C   UNL     1       6.478   0.204   1.784  0.00  0.00    +0.005 A 
ATOM     30  C   UNL     1       7.808   0.572   1.693  0.00  0.00    +0.020 A 
ATOM     31  C   UNL     1       8.225   1.787   2.206  0.00  0.00    +0.041 A 
ATOM     32  C   UNL     1       7.311   2.636   2.804  0.00  0.00    +0.020 A 
ATOM     33  C   UNL     1       5.981   2.270   2.889  0.00  0.00    +0.005 A 
ATOM     34 CL   UNL     1       9.896   2.247   2.099  0.00  0.00    -0.084 Cl
ENDBRANCH  27  28
ENDBRANCH  24  27
ENDBRANCH  22  23
ENDBRANCH   1  22
TORSDOF 7
