REMARK  Name = ZINC39639389
REMARK  10 active torsions:
REMARK  status: ('A' for Active; 'I' for Inactive)
REMARK    1  A    between atoms: C_1  and  C_2
REMARK    2  A    between atoms: C_5  and  C_8
REMARK    3  A    between atoms: C_8  and  C_10
REMARK    4  A    between atoms: C_8  and  N_11
REMARK    5  A    between atoms: C_12  and  C_14
REMARK    6  A    between atoms: C_25  and  C_27
REMARK    7  A    between atoms: C_29  and  O_35
REMARK    8  A    between atoms: C_32  and  O_33
REMARK    9  A    between atoms: O_33  and  C_34
REMARK   10  A    between atoms: O_35  and  C_36
REMARK                            x       y       z     vdW  Elec       q    Type
REMARK                         _______ _______ _______ _____ _____    ______ ____
ROOT
ATOM      1  C   UNL     1       2.461  -6.460   1.997  0.00  0.00    +0.100 C 
ATOM      2  C   UNL     1       3.763  -5.629   2.015  0.00  0.00    +0.121 C 
ATOM      3  N   UNL     1       4.829  -6.610   2.326  0.00  0.00    -0.296 N 
ATOM      4  C   UNL     1       4.449  -7.822   1.563  0.00  0.00    +0.115 C 
ATOM      5  C   UNL     1       2.915  -7.899   1.698  0.00  0.00    -0.004 C 
ATOM      6  C   UNL     1       2.294  -8.390   0.394  0.00  0.00    -0.010 C 
ATOM      7  C   UNL     1       2.713  -9.842   0.149  0.00  0.00    -0.082 C 
ATOM      8  N   UNL     1       2.269 -10.678   1.271  0.00  0.00    +0.379 N 
ATOM      9  C   UNL     1       2.942 -10.258   2.506  0.00  0.00    -0.082 C 
ATOM     10  C   UNL     1       2.532  -8.823   2.850  0.00  0.00    -0.010 C 
ATOM     11  C   UNL     1       5.902  -6.439   3.124  0.00  0.00    +0.250 C 
ATOM     12  O   UNL     1       6.026  -5.412   3.763  0.00  0.00    -0.270 OA
ATOM     13  H   UNL     1       1.271 -10.583   1.384  0.00  0.00    -0.086 HD
ATOM     14  H   UNL     1       2.492 -11.643   1.079  0.00  0.00    -0.086 HD
ENDROOT
BRANCH  11  15
ATOM     15  C   UNL     1       6.926  -7.497   3.220  0.00  0.00    +0.082 A 
ATOM     16  C   UNL     1       7.246  -8.268   2.100  0.00  0.00    +0.062 A 
ATOM     17  C   UNL     1       8.206  -9.258   2.198  0.00  0.00    +0.121 A 
ATOM     18  C   UNL     1       8.853  -9.486   3.406  0.00  0.00    +0.049 A 
ATOM     19  C   UNL     1       8.543  -8.729   4.518  0.00  0.00    +0.050 A 
ATOM     20  C   UNL     1       7.586  -7.729   4.434  0.00  0.00    +0.132 A 
BRANCH  20  21
ATOM     21  O   UNL     1       7.285  -6.981   5.526  0.00  0.00    -0.494 OA
ATOM     22  C   UNL     1       7.998  -7.274   6.729  0.00  0.00    +0.277 C 
ENDBRANCH  20  21
BRANCH  17  23
ATOM     23  O   UNL     1       8.519 -10.009   1.109  0.00  0.00    -0.495 OA
ATOM     24  C   UNL     1       9.520 -11.014   1.279  0.00  0.00    +0.277 C 
ENDBRANCH  17  23
ENDBRANCH  11  15
BRANCH   1  26
ATOM     25  N   UNL     1       0.220  -6.243   0.972  0.00  0.00    -0.308 N 
ATOM     26  C   UNL     1       1.538  -5.966   0.913  0.00  0.00    +0.219 C 
ATOM     27  O   UNL     1       1.981  -5.320  -0.013  0.00  0.00    -0.275 OA
ATOM     28  H   UNL     1      -0.134  -6.760   1.712  0.00  0.00    +0.149 HD
BRANCH  25  29
ATOM     29  C   UNL     1      -0.677  -5.762  -0.082  0.00  0.00    +0.100 C 
ATOM     30  C   UNL     1      -0.671  -6.753  -1.248  0.00  0.00    +0.033 C 
BRANCH  29  35
ATOM     31  C   UNL     1      -6.041  -5.295   2.016  0.00  0.00    +0.044 C 
ATOM     32  C   UNL     1      -4.642  -5.417   1.469  0.00  0.00    -0.050 A 
ATOM     33  C   UNL     1      -4.150  -4.453   0.609  0.00  0.00    +0.004 A 
ATOM     34  C   UNL     1      -2.867  -4.565   0.107  0.00  0.00    +0.006 A 
ATOM     35  C   UNL     1      -2.076  -5.640   0.466  0.00  0.00    -0.027 A 
ATOM     36  C   UNL     1      -2.567  -6.604   1.326  0.00  0.00    +0.006 A 
ATOM     37  C   UNL     1      -3.849  -6.490   1.831  0.00  0.00    +0.004 A 
ENDBRANCH  29  35
ENDBRANCH  25  29
ENDBRANCH   1  26
TORSDOF 6
