REMARK  Name = ZINC23076094
REMARK  10 active torsions:
REMARK  status: ('A' for Active; 'I' for Inactive)
REMARK    1  A    between atoms: C_1  and  C_2
REMARK    2  A    between atoms: C_2  and  C_4
REMARK    3  A    between atoms: C_2  and  S_18
REMARK    4  A    between atoms: C_4  and  O_6
REMARK    5  A    between atoms: O_6  and  C_7
REMARK    6  A    between atoms: C_7  and  C_8
REMARK    7  A    between atoms: N_14  and  C_15
REMARK    8  A    between atoms: N_14  and  C_16
REMARK    9  A    between atoms: S_18  and  C_19
REMARK   10  A    between atoms: C_19  and  C_20
REMARK                            x       y       z     vdW  Elec       q    Type
REMARK                         _______ _______ _______ _____ _____    ______ ____
ROOT
ATOM      1  C   UNL     1      -0.019   1.526   0.010  0.00  0.00    +0.031 C 
ATOM      2  C   UNL     1       0.002  -0.004   0.002  0.00  0.00    +0.152 C 
ENDROOT
BRANCH   2   3
ATOM      3  C   UNL     1       0.707  -0.490  -1.238  0.00  0.00    +0.320 C 
ATOM      4  O   UNL     1       1.860  -0.848  -1.176  0.00  0.00    -0.250 OA
BRANCH   3   5
ATOM      5  O   UNL     1       0.055  -0.526  -2.411  0.00  0.00    -0.456 OA
BRANCH   5   6
ATOM      6  C   UNL     1       0.785  -0.998  -3.545  0.00  0.00    +0.308 C 
BRANCH   6   7
ATOM      7  C   UNL     1      -0.102  -0.967  -4.762  0.00  0.00    +0.173 A 
ATOM      8  N   UNL     1      -0.839  -2.021  -5.067  0.00  0.00    -0.196 NA
ATOM      9  C   UNL     1      -1.624  -1.998  -6.141  0.00  0.00    +0.217 A 
ATOM     10  N   UNL     1      -1.668  -0.913  -6.907  0.00  0.00    -0.181 NA
ATOM     11  C   UNL     1      -0.927   0.145  -6.597  0.00  0.00    +0.222 A 
ATOM     12  N   UNL     1      -0.147   0.116  -5.518  0.00  0.00    -0.196 NA
ATOM     13  N   UNL     1      -0.968   1.274  -7.389  0.00  0.00    -0.306 N 
ATOM     14  C   UNL     1      -1.831   1.307  -8.573  0.00  0.00    +0.132 C 
ATOM     15  C   UNL     1      -0.150   2.440  -7.045  0.00  0.00    +0.132 C 
ATOM     16  N   UNL     1      -2.392  -3.099  -6.460  0.00  0.00    -0.327 N 
ATOM     17  H   UNL     1      -2.360  -3.891  -5.901  0.00  0.00    +0.145 HD
ATOM     18  H   UNL     1      -2.965  -3.082  -7.243  0.00  0.00    +0.145 HD
ENDBRANCH   6   7
ENDBRANCH   5   6
ENDBRANCH   3   5
ENDBRANCH   2   3
BRANCH   2  19
ATOM     19  S   UNL     1       0.879  -0.605   1.472  0.00  0.00    -0.139 S 
BRANCH  19  20
ATOM     20  C   UNL     1      -0.166  -0.072   2.855  0.00  0.00    +0.144 C 
BRANCH  20  21
ATOM     21  C   UNL     1       0.457  -0.513   4.154  0.00  0.00    +0.121 A 
ATOM     22  N   UNL     1      -0.165  -0.222   5.325  0.00  0.00    -0.310 N 
ATOM     23  H   UNL     1      -1.003   0.266   5.309  0.00  0.00    +0.170 HD
ATOM     24  C   UNL     1       0.356  -0.598   6.508  0.00  0.00    +0.260 A 
ATOM     25  O   UNL     1      -0.216  -0.330   7.551  0.00  0.00    -0.267 OA
ATOM     26  C   UNL     1       1.595  -1.319   6.521  0.00  0.00    +0.075 A 
ATOM     27  C   UNL     1       2.341  -1.823   7.674  0.00  0.00    -0.023 A 
ATOM     28  C   UNL     1       3.493  -2.478   7.419  0.00  0.00    -0.004 A 
ATOM     29  S   UNL     1       3.648  -2.463   5.653  0.00  0.00    -0.073 S 
ATOM     30  C   UNL     1       2.163  -1.573   5.263  0.00  0.00    +0.116 A 
ATOM     31  N   UNL     1       1.584  -1.174   4.134  0.00  0.00    -0.226 NA
ATOM     32  C   UNL     1       4.433  -3.083   8.416  0.00  0.00    +0.043 C 
ATOM     33  C   UNL     1       4.088  -2.529   9.806  0.00  0.00    +0.005 C 
ATOM     34  C   UNL     1       2.573  -2.631  10.012  0.00  0.00    +0.005 C 
ATOM     35  C   UNL     1       1.857  -1.627   9.108  0.00  0.00    +0.037 C 
ENDBRANCH  20  21
ENDBRANCH  19  20
ENDBRANCH   2  19
TORSDOF 7
