REMARK  Name = ZINC02398852
REMARK  5 active torsions:
REMARK  status: ('A' for Active; 'I' for Inactive)
REMARK    1  A    between atoms: C_1  and  O_2
REMARK    2  A    between atoms: O_2  and  C_3
REMARK    3  A    between atoms: C_3  and  C_5
REMARK    4  A    between atoms: C_8  and  C_11
REMARK    5  A    between atoms: C_28  and  C_30
REMARK                            x       y       z     vdW  Elec       q    Type
REMARK                         _______ _______ _______ _____ _____    ______ ____
ROOT
ATOM      1  C   UNL     1       0.851  -6.357   1.260  0.00  0.00    +0.234 C 
ATOM      2  C   UNL     1       2.196  -6.819   0.780  0.00  0.00    +0.027 C 
ATOM      3  C   UNL     1       3.220  -6.970   1.644  0.00  0.00    +0.083 C 
ATOM      4  C   UNL     1       2.958  -6.672   3.075  0.00  0.00    +0.042 A 
ATOM      5  C   UNL     1       3.994  -6.479   3.978  0.00  0.00    +0.013 A 
ATOM      6  C   UNL     1       3.704  -6.202   5.300  0.00  0.00    +0.001 A 
ATOM      7  C   UNL     1       2.388  -6.116   5.722  0.00  0.00    +0.004 A 
ATOM      8  C   UNL     1       1.350  -6.309   4.829  0.00  0.00    +0.046 A 
ATOM      9  C   UNL     1       1.626  -6.588   3.502  0.00  0.00    +0.131 A 
ATOM     10  O   UNL     1       0.632  -6.786   2.606  0.00  0.00    -0.479 OA
ATOM     11  N   UNL     1       4.444  -7.379   1.228  0.00  0.00    -0.213 NA
ATOM     12  C   UNL     1       4.745  -7.669  -0.016  0.00  0.00    +0.237 C 
ATOM     13  N   UNL     1       5.893  -8.087  -0.593  0.00  0.00    -0.205 NA
ATOM     14  C   UNL     1       5.722  -8.254  -1.875  0.00  0.00    +0.203 C 
ATOM     15  N   UNL     1       4.437  -7.949  -2.206  0.00  0.00    -0.251 N 
ATOM     16  N   UNL     1       3.803  -7.571  -1.020  0.00  0.00    -0.208 N 
ATOM     17  C   UNL     1       2.444  -7.130  -0.680  0.00  0.00    +0.159 C 
ATOM     18  H   UNL     1       4.040  -7.986  -3.090  0.00  0.00    +0.171 HD
ENDROOT
BRANCH  17  19
ATOM     19  C   UNL     1       2.136  -5.894  -1.483  0.00  0.00    -0.021 A 
ATOM     20  C   UNL     1       3.066  -4.874  -1.566  0.00  0.00    +0.008 A 
ATOM     21  C   UNL     1       2.785  -3.739  -2.303  0.00  0.00    +0.038 A 
ATOM     22  C   UNL     1       1.571  -3.624  -2.959  0.00  0.00    +0.123 A 
ATOM     23  C   UNL     1       0.640  -4.645  -2.875  0.00  0.00    +0.038 A 
ATOM     24  C   UNL     1       0.926  -5.782  -2.142  0.00  0.00    +0.008 A 
ATOM     25  F   UNL     1       1.294  -2.515  -3.679  0.00  0.00    -0.205 F 
ENDBRANCH  17  19
BRANCH   1  29
ATOM     26  C   UNL     1       0.680  -2.088   1.091  0.00  0.00    +0.059 A 
ATOM     27  C   UNL     1       0.101  -2.854   0.077  0.00  0.00    +0.015 A 
ATOM     28  C   UNL     1       0.160  -4.231   0.138  0.00  0.00    +0.008 A 
ATOM     29  C   UNL     1       0.791  -4.853   1.200  0.00  0.00    -0.003 A 
ATOM     30  C   UNL     1       1.366  -4.100   2.209  0.00  0.00    +0.008 A 
ATOM     31  C   UNL     1       1.320  -2.722   2.157  0.00  0.00    +0.015 A 
BRANCH  26  32
ATOM     32  C   UNL     1       0.620  -0.613   1.032  0.00  0.00    +0.339 C 
ATOM     33  O   UNL     1       1.129   0.051   1.913  0.00  0.00    -0.245 OA
BRANCH  32  35
ATOM     34  C   UNL     1      -0.017   1.425   0.010  0.00  0.00    +0.280 C 
ATOM     35  O   UNL     1       0.002  -0.004   0.002  0.00  0.00    -0.464 OA
ENDBRANCH  32  35
ENDBRANCH  26  32
ENDBRANCH   1  29
TORSDOF 4
