REMARK  Name = ZINC36159838
REMARK  7 active torsions:
REMARK  status: ('A' for Active; 'I' for Inactive)
REMARK    1  A    between atoms: C_1  and  C_2
REMARK    2  A    between atoms: C_2  and  C_4
REMARK    3  A    between atoms: C_2  and  O_27
REMARK    4  A    between atoms: C_4  and  N_5
REMARK    5  A    between atoms: N_5  and  C_6
REMARK    6  A    between atoms: N_5  and  C_21
REMARK    7  A    between atoms: C_6  and  C_7
REMARK                            x       y       z     vdW  Elec       q    Type
REMARK                         _______ _______ _______ _____ _____    ______ ____
ROOT
ATOM      1  C   UNL     1      -0.917  -2.644   1.055  0.00  0.00    -0.003 C 
ENDROOT
BRANCH   1   2
ATOM      2  C   UNL     1      -1.747  -2.202   2.233  0.00  0.00    +0.094 A 
ATOM      3  N   UNL     1      -1.377  -2.574   3.486  0.00  0.00    -0.312 N 
ATOM      4  H   UNL     1      -0.583  -3.118   3.605  0.00  0.00    +0.170 HD
ATOM      5  C   UNL     1      -2.090  -2.201   4.566  0.00  0.00    +0.260 A 
ATOM      6  O   UNL     1      -1.746  -2.542   5.684  0.00  0.00    -0.267 OA
ATOM      7  C   UNL     1      -3.260  -1.396   4.376  0.00  0.00    +0.075 A 
ATOM      8  C   UNL     1      -4.180  -0.878   5.399  0.00  0.00    -0.023 A 
ATOM      9  C   UNL     1      -5.216  -0.140   4.966  0.00  0.00    -0.004 A 
ATOM     10  S   UNL     1      -5.035  -0.086   3.198  0.00  0.00    -0.073 S 
ATOM     11  C   UNL     1      -3.562  -1.062   3.049  0.00  0.00    +0.116 A 
ATOM     12  N   UNL     1      -2.806  -1.464   2.031  0.00  0.00    -0.229 NA
ATOM     13  C   UNL     1      -6.091   0.331   6.097  0.00  0.00    +0.043 C 
ATOM     14  C   UNL     1      -5.705  -0.574   7.288  0.00  0.00    +0.010 C 
ATOM     15  C   UNL     1      -4.259  -0.969   6.926  0.00  0.00    +0.037 C 
ENDBRANCH   1   2
BRANCH   1  16
ATOM     16  N   UNL     1      -1.416  -1.996  -0.165  0.00  0.00    +0.388 N 
ATOM     17  H   UNL     1      -0.835  -2.260  -0.947  0.00  0.00    -0.081 HD
BRANCH  16  18
ATOM     18  C   UNL     1      -2.799  -2.422  -0.416  0.00  0.00    -0.068 C 
ATOM     19  C   UNL     1      -3.269  -1.860  -1.759  0.00  0.00    -0.015 C 
ATOM     20  C   UNL     1      -4.710  -2.304  -2.021  0.00  0.00    -0.002 C 
ATOM     21  C   UNL     1      -4.774  -3.832  -2.057  0.00  0.00    -0.000 C 
ATOM     22  C   UNL     1      -4.303  -4.394  -0.714  0.00  0.00    -0.002 C 
ATOM     23  C   UNL     1      -2.863  -3.950  -0.453  0.00  0.00    -0.015 C 
ENDBRANCH  16  18
BRANCH  16  24
ATOM     24  C   UNL     1      -1.376  -0.537   0.004  0.00  0.00    -0.046 C 
BRANCH  24  26
ATOM     25  C   UNL     1       0.129   1.456   0.074  0.00  0.00    +0.035 C 
ATOM     26  C   UNL     1       0.080  -0.073   0.091  0.00  0.00    +0.095 C 
BRANCH  26  27
ATOM     27  O   UNL     1       0.661  -0.555   1.304  0.00  0.00    -0.394 OA
ATOM     28  H   UNL     1       1.560  -0.236   1.463  0.00  0.00    +0.210 HD
ENDBRANCH  26  27
ENDBRANCH  24  26
ENDBRANCH  16  24
ENDBRANCH   1  16
TORSDOF 6
