REMARK  Name = ZINC39663834
REMARK  11 active torsions:
REMARK  status: ('A' for Active; 'I' for Inactive)
REMARK    1  A    between atoms: C_1  and  N_2
REMARK    2  A    between atoms: C_6  and  C_7
REMARK    3  A    between atoms: C_11  and  C_20
REMARK    4  A    between atoms: N_22  and  C_23
REMARK    5  A    between atoms: C_23  and  C_24
REMARK    6  A    between atoms: C_24  and  C_26
REMARK    7  A    between atoms: C_24  and  N_34
REMARK    8  A    between atoms: C_29  and  O_32
REMARK    9  A    between atoms: O_32  and  C_33
REMARK   10  A    between atoms: N_34  and  C_35
REMARK   11  A    between atoms: N_34  and  C_36
REMARK                            x       y       z     vdW  Elec       q    Type
REMARK                         _______ _______ _______ _____ _____    ______ ____
ROOT
ATOM      1  C   UNL     1      -0.173  -0.353   2.487  0.00  0.00    +0.263 C 
ATOM      2  O   UNL     1      -0.103  -1.158   3.397  0.00  0.00    -0.268 OA
ATOM      3  N   UNL     1      -0.377   0.952   2.756  0.00  0.00    -0.295 N 
ATOM      4  C   UNL     1      -0.630   2.049   1.793  0.00  0.00    +0.121 C 
ATOM      5  C   UNL     1      -1.697   2.932   2.479  0.00  0.00    +0.100 C 
ATOM      6  C   UNL     1      -1.539   2.643   3.981  0.00  0.00    -0.004 C 
ATOM      7  C   UNL     1      -0.405   1.613   4.083  0.00  0.00    +0.115 C 
ATOM      8  C   UNL     1      -2.829   2.057   4.545  0.00  0.00    -0.010 C 
ATOM      9  C   UNL     1      -2.666   1.831   6.051  0.00  0.00    -0.082 C 
ATOM     10  N   UNL     1      -2.357   3.107   6.708  0.00  0.00    +0.379 N 
ATOM     11  C   UNL     1      -1.068   3.618   6.227  0.00  0.00    -0.082 C 
ATOM     12  C   UNL     1      -1.163   3.919   4.728  0.00  0.00    -0.010 C 
ATOM     13  H   UNL     1      -3.082   3.777   6.498  0.00  0.00    -0.086 HD
ATOM     14  H   UNL     1      -2.310   2.967   7.706  0.00  0.00    -0.086 HD
ENDROOT
BRANCH   1  20
ATOM     15  C   UNL     1      -0.049  -3.295   1.524  0.00  0.00    +0.149 C 
ATOM     16  N   UNL     1       0.020  -2.108   0.667  0.00  0.00    -0.346 N 
ATOM     17  C   UNL     1       0.144  -2.115  -0.683  0.00  0.00    +0.086 A 
ATOM     18  C   UNL     1       0.174  -0.835  -1.126  0.00  0.00    +0.020 A 
ATOM     19  C   UNL     1       0.065   0.007  -0.014  0.00  0.00    +0.032 A 
ATOM     20  C   UNL     1      -0.035  -0.802   1.098  0.00  0.00    +0.104 A 
ENDBRANCH   1  20
BRANCH   5  21
ATOM     21  C   UNL     1      -3.076   2.548   2.011  0.00  0.00    +0.218 C 
ATOM     22  O   UNL     1      -3.285   1.428   1.594  0.00  0.00    -0.275 OA
ATOM     23  N   UNL     1      -4.079   3.448   2.054  0.00  0.00    -0.316 N 
ATOM     24  H   UNL     1      -3.897   4.364   2.318  0.00  0.00    +0.149 HD
BRANCH  23  25
ATOM     25  C   UNL     1      -5.442   3.044   1.703  0.00  0.00    +0.093 C 
BRANCH  25  26
ATOM     26  C   UNL     1      -6.356   4.271   1.715  0.00  0.00    -0.021 C 
BRANCH  26  27
ATOM     27  C   UNL     1      -6.366   4.877   3.094  0.00  0.00    -0.059 A 
ATOM     28  C   UNL     1      -7.150   4.320   4.088  0.00  0.00    +0.005 A 
ATOM     29  C   UNL     1      -7.161   4.875   5.353  0.00  0.00    +0.046 A 
ATOM     30  C   UNL     1      -6.384   5.991   5.626  0.00  0.00    +0.120 A 
ATOM     31  C   UNL     1      -5.598   6.548   4.628  0.00  0.00    +0.046 A 
ATOM     32  C   UNL     1      -5.587   5.987   3.366  0.00  0.00    +0.005 A 
BRANCH  30  33
ATOM     33  O   UNL     1      -6.394   6.539   6.870  0.00  0.00    -0.495 OA
ATOM     34  C   UNL     1      -5.570   7.687   7.080  0.00  0.00    +0.277 C 
ENDBRANCH  30  33
ENDBRANCH  26  27
BRANCH  26  35
ATOM     35  N   UNL     1      -7.721   3.868   1.347  0.00  0.00    +0.382 N 
ATOM     36  C   UNL     1      -8.572   5.061   1.245  0.00  0.00    -0.096 C 
ATOM     37  C   UNL     1      -7.694   3.173   0.053  0.00  0.00    -0.096 C 
ATOM     38  H   UNL     1      -8.091   3.250   2.054  0.00  0.00    -0.082 HD
ENDBRANCH  26  35
ENDBRANCH  25  26
ENDBRANCH  23  25
ENDBRANCH   5  21
TORSDOF 7
