REMARK  Name = ZINC05243998
REMARK  5 active torsions:
REMARK  status: ('A' for Active; 'I' for Inactive)
REMARK    1  A    between atoms: C_1  and  C_2
REMARK    2  A    between atoms: C_12  and  C_15
REMARK    3  A    between atoms: C_18  and  S_20
REMARK    4  A    between atoms: S_20  and  N_23
REMARK    5  A    between atoms: N_23  and  C_24
REMARK                            x       y       z     vdW  Elec       q    Type
REMARK                         _______ _______ _______ _____ _____    ______ ____
ROOT
ATOM      1  C   UNL     1      -2.549   5.382   0.054  0.00  0.00    +0.068 C 
ATOM      2  C   UNL     1      -2.517   3.876   0.045  0.00  0.00    +0.067 A 
ATOM      3  C   UNL     1      -1.232   3.177   0.030  0.00  0.00    +0.008 A 
ATOM      4  C   UNL     1      -0.019   3.870   0.022  0.00  0.00    +0.010 A 
ATOM      5  C   UNL     1       1.158   3.175   0.008  0.00  0.00    +0.001 A 
ATOM      6  C   UNL     1       1.167   1.787   0.001  0.00  0.00    +0.001 A 
ATOM      7  C   UNL     1      -0.013   1.076   0.008  0.00  0.00    +0.012 A 
ATOM      8  C   UNL     1      -1.226   1.762   0.017  0.00  0.00    +0.030 A 
ATOM      9  C   UNL     1      -2.515   1.067   0.021  0.00  0.00    +0.186 A 
ATOM     10  N   UNL     1      -2.868  -0.203   0.017  0.00  0.00    -0.127 NA
ATOM     11  N   UNL     1      -4.151  -0.299   0.023  0.00  0.00    -0.124 NA
ATOM     12  C   UNL     1      -4.695   0.904   0.032  0.00  0.00    +0.220 A 
ATOM     13  N   UNL     1      -3.669   1.813   0.030  0.00  0.00    -0.189 N 
ATOM     14  N   UNL     1      -3.630   3.206   0.037  0.00  0.00    -0.168 NA
ENDROOT
BRANCH  12  15
ATOM     15  C   UNL     1      -6.133   1.212   0.041  0.00  0.00    +0.176 A 
ATOM     16  C   UNL     1      -7.140   0.340  -0.248  0.00  0.00    +0.055 A 
ATOM     17  C   UNL     1      -8.346   1.054  -0.112  0.00  0.00    +0.071 A 
ATOM     18  C   UNL     1      -8.022   2.314   0.240  0.00  0.00    +0.258 A 
ATOM     19  O   UNL     1      -6.685   2.406   0.332  0.00  0.00    -0.433 OA
BRANCH  18  20
ATOM     20  S   UNL     1      -9.164   3.624   0.533  0.00  0.00    +0.091 S 
ATOM     21  O   UNL     1      -8.454   4.837   0.322  0.00  0.00    -0.150 OA
ATOM     22  O   UNL     1     -10.347   3.299  -0.183  0.00  0.00    -0.150 OA
BRANCH  20  23
ATOM     23  N   UNL     1      -9.557   3.580   2.141  0.00  0.00    -0.190 NA
ATOM     24  C   UNL     1      -8.533   3.849   3.154  0.00  0.00    +0.128 C 
ATOM     25  H   UNL     1     -10.466   3.376   2.413  0.00  0.00    +0.148 HD
ENDBRANCH  20  23
ENDBRANCH  18  20
ENDBRANCH  12  15
TORSDOF 3
