REMARK  Name = ZINC57608854
REMARK  11 active torsions:
REMARK  status: ('A' for Active; 'I' for Inactive)
REMARK    1  A    between atoms: C_1  and  C_2
REMARK    2  A    between atoms: C_2  and  O_3
REMARK    3  A    between atoms: O_3  and  C_4
REMARK    4  A    between atoms: C_11  and  C_16
REMARK    5  A    between atoms: C_16  and  C_18
REMARK    6  A    between atoms: C_16  and  N_29
REMARK    7  A    between atoms: N_22  and  C_23
REMARK    8  A    between atoms: N_29  and  C_30
REMARK    9  A    between atoms: N_29  and  C_36
REMARK   10  A    between atoms: C_30  and  C_31
REMARK   11  A    between atoms: C_36  and  C_37
REMARK                            x       y       z     vdW  Elec       q    Type
REMARK                         _______ _______ _______ _____ _____    ______ ____
ROOT
ATOM      1  C   UNL     1       3.017  -6.310   4.962  0.00  0.00    +0.163 C 
ENDROOT
BRANCH   1   9
ATOM      2  C   UNL     1       2.244  -0.973   1.906  0.00  0.00    +0.121 A 
ATOM      3  C   UNL     1       1.750  -1.542   0.734  0.00  0.00    +0.047 A 
ATOM      4  C   UNL     1       1.604  -2.907   0.624  0.00  0.00    +0.030 A 
ATOM      5  C   UNL     1       1.952  -3.731   1.689  0.00  0.00    +0.049 A 
ATOM      6  C   UNL     1       2.451  -3.161   2.875  0.00  0.00    +0.002 A 
ATOM      7  C   UNL     1       2.600  -1.773   2.973  0.00  0.00    +0.055 A 
ATOM      8  C   UNL     1       2.813  -4.040   3.988  0.00  0.00    +0.021 A 
ATOM      9  C   UNL     1       2.653  -5.378   3.836  0.00  0.00    +0.042 A 
ATOM     10  C   UNL     1       2.149  -5.900   2.626  0.00  0.00    +0.254 A 
ATOM     11  O   UNL     1       2.013  -7.106   2.510  0.00  0.00    -0.268 OA
ATOM     12  N   UNL     1       1.813  -5.101   1.598  0.00  0.00    -0.322 N 
ATOM     13  H   UNL     1       1.469  -5.494   0.780  0.00  0.00    +0.169 HD
BRANCH   2  14
ATOM     14  O   UNL     1       2.381   0.377   1.997  0.00  0.00    -0.492 OA
BRANCH  14  16
ATOM     15  C   UNL     1       2.219   2.632   1.145  0.00  0.00    +0.048 C 
ATOM     16  C   UNL     1       1.994   1.146   0.857  0.00  0.00    +0.225 C 
ENDBRANCH  14  16
ENDBRANCH   2  14
ENDBRANCH   1   9
BRANCH   1  17
ATOM     17  C   UNL     1       1.777  -7.010   5.456  0.00  0.00    +0.173 A 
ATOM     18  N   UNL     1       1.143  -7.991   4.861  0.00  0.00    -0.111 NA
ATOM     19  N   UNL     1       0.135  -8.316   5.594  0.00  0.00    -0.023 NA
ATOM     20  N   UNL     1       0.109  -7.567   6.641  0.00  0.00    -0.044 NA
ATOM     21  N   UNL     1       1.108  -6.753   6.595  0.00  0.00    -0.224 N 
BRANCH  21  22
ATOM     22  C   UNL     1       1.449  -5.736   7.593  0.00  0.00    +0.111 C 
ATOM     23  C   UNL     1       1.709  -6.412   8.941  0.00  0.00    +0.027 C 
ATOM     24  C   UNL     1       2.065  -5.351   9.984  0.00  0.00    +0.002 C 
ATOM     25  C   UNL     1       0.904  -4.363  10.123  0.00  0.00    +0.000 C 
ATOM     26  C   UNL     1       0.645  -3.687   8.775  0.00  0.00    +0.002 C 
ATOM     27  C   UNL     1       0.289  -4.749   7.733  0.00  0.00    +0.027 C 
ENDBRANCH  21  22
ENDBRANCH   1  17
BRANCH   1  28
ATOM     28  N   UNL     1       3.983  -7.307   4.481  0.00  0.00    -0.279 NA
BRANCH  28  29
ATOM     29  C   UNL     1       4.597  -8.030   5.602  0.00  0.00    +0.159 C 
BRANCH  29  30
ATOM     30  C   UNL     1       3.549  -8.855   6.303  0.00  0.00    +0.119 A 
ATOM     31  C   UNL     1       3.225 -10.128   6.010  0.00  0.00    +0.046 A 
ATOM     32  C   UNL     1       2.201 -10.506   6.908  0.00  0.00    +0.041 A 
ATOM     33  C   UNL     1       1.960  -9.443   7.696  0.00  0.00    +0.195 A 
ATOM     34  O   UNL     1       2.784  -8.447   7.328  0.00  0.00    -0.467 OA
ENDBRANCH  29  30
ENDBRANCH  28  29
BRANCH  28  35
ATOM     35  C   UNL     1       5.007  -6.681   3.634  0.00  0.00    +0.117 C 
BRANCH  35  36
ATOM     36  C   UNL     1       5.755  -7.764   2.854  0.00  0.00    +0.132 C 
ATOM     37  C   UNL     1       6.831  -7.115   1.957  0.00  0.00    +0.035 C 
ATOM     38  C   UNL     1       6.740  -7.969   0.663  0.00  0.00    +0.031 C 
ATOM     39  C   UNL     1       5.224  -8.286   0.625  0.00  0.00    +0.160 C 
ATOM     40  O   UNL     1       4.844  -8.466   2.001  0.00  0.00    -0.375 OA
ENDBRANCH  35  36
ENDBRANCH  28  35
ENDBRANCH   1  28
TORSDOF 10
