REMARK  Name = ZINC63165353
REMARK  10 active torsions:
REMARK  status: ('A' for Active; 'I' for Inactive)
REMARK    1  A    between atoms: C_1  and  C_2
REMARK    2  A    between atoms: C_5  and  O_8
REMARK    3  A    between atoms: O_8  and  C_9
REMARK    4  A    between atoms: C_9  and  C_10
REMARK    5  A    between atoms: C_14  and  S_25
REMARK    6  A    between atoms: N_16  and  C_17
REMARK    7  A    between atoms: C_20  and  O_23
REMARK    8  A    between atoms: O_23  and  C_24
REMARK    9  A    between atoms: S_25  and  C_26
REMARK   10  A    between atoms: C_26  and  C_27
REMARK                            x       y       z     vdW  Elec       q    Type
REMARK                         _______ _______ _______ _____ _____    ______ ____
ROOT
ATOM      1  C   UNL     1       0.115  -6.170   0.879  0.00  0.00    +0.195 C 
ATOM      2  N   UNL     1       1.163  -6.678  -0.045  0.00  0.00    -0.231 NA
ATOM      3  N   UNL     1       0.711  -8.047  -0.336  0.00  0.00    -0.226 NA
ATOM      4  C   UNL     1      -0.764  -7.938  -0.420  0.00  0.00    +0.217 C 
ATOM      5  N   UNL     1      -1.143  -6.743   0.358  0.00  0.00    -0.285 N 
ATOM      6  H   UNL     1       2.067  -6.683   0.402  0.00  0.00    +0.143 HD
ATOM      7  H   UNL     1       0.985  -8.682   0.398  0.00  0.00    +0.143 HD
ENDROOT
BRANCH   5   8
ATOM      8  C   UNL     1      -2.436  -6.248   0.560  0.00  0.00    +0.033 A 
ATOM      9  C   UNL     1      -2.981  -6.231   1.837  0.00  0.00    +0.027 A 
ATOM     10  C   UNL     1      -4.257  -5.742   2.036  0.00  0.00    +0.047 A 
ATOM     11  C   UNL     1      -4.995  -5.268   0.961  0.00  0.00    +0.120 A 
ATOM     12  C   UNL     1      -4.451  -5.286  -0.315  0.00  0.00    +0.047 A 
ATOM     13  C   UNL     1      -3.173  -5.769  -0.515  0.00  0.00    +0.027 A 
BRANCH  11  14
ATOM     14  O   UNL     1      -6.251  -4.787   1.158  0.00  0.00    -0.495 OA
ATOM     15  C   UNL     1      -6.953  -4.316   0.006  0.00  0.00    +0.277 C 
ENDBRANCH  11  14
ENDBRANCH   5   8
BRANCH   1  16
ATOM     16  C   UNL     1       0.063  -4.641   0.841  0.00  0.00    +0.268 C 
BRANCH  16  17
ATOM     17  O   UNL     1      -0.065  -4.203  -0.514  0.00  0.00    -0.489 OA
BRANCH  17  22
ATOM     18  C   UNL     1      -0.319   1.356  -1.389  0.00  0.00    +0.044 C 
ATOM     19  C   UNL     1      -0.250  -0.132  -1.155  0.00  0.00    -0.050 A 
ATOM     20  C   UNL     1      -0.311  -1.002  -2.227  0.00  0.00    +0.007 A 
ATOM     21  C   UNL     1      -0.249  -2.366  -2.015  0.00  0.00    +0.046 A 
ATOM     22  C   UNL     1      -0.125  -2.861  -0.725  0.00  0.00    +0.121 A 
ATOM     23  C   UNL     1      -0.064  -1.986   0.349  0.00  0.00    +0.046 A 
ATOM     24  C   UNL     1      -0.121  -0.623   0.132  0.00  0.00    +0.007 A 
ENDBRANCH  17  22
ENDBRANCH  16  17
ENDBRANCH   1  16
BRANCH   4  25
ATOM     25  S   UNL     1      -1.537  -9.414   0.297  0.00  0.00    -0.118 S 
BRANCH  25  26
ATOM     26  C   UNL     1      -0.921  -9.449   2.002  0.00  0.00    +0.119 C 
BRANCH  26  27
ATOM     27  C   UNL     1      -1.504 -10.662   2.731  0.00  0.00    +0.184 C 
ATOM     28  N   UNL     1      -1.166 -11.894   2.008  0.00  0.00    -0.363 N 
ATOM     29  C   UNL     1      -2.284 -12.458   1.653  0.00  0.00    +0.060 A 
ATOM     30  C   UNL     1      -2.591 -13.692   0.917  0.00  0.00    +0.027 A 
ATOM     31  C   UNL     1      -3.877 -14.030   0.692  0.00  0.00    +0.002 A 
ATOM     32  C   UNL     1      -4.956 -13.244   1.135  0.00  0.00    +0.002 A 
ATOM     33  C   UNL     1      -4.785 -12.094   1.818  0.00  0.00    +0.027 A 
ATOM     34  C   UNL     1      -3.426 -11.627   2.122  0.00  0.00    +0.060 A 
ATOM     35  N   UNL     1      -2.970 -10.581   2.750  0.00  0.00    -0.363 N 
ATOM     36  H   UNL     1      -0.273 -12.227   1.828  0.00  0.00    +0.162 HD
ATOM     37  H   UNL     1      -3.501  -9.878   3.156  0.00  0.00    +0.162 HD
ENDBRANCH  26  27
ENDBRANCH  25  26
ENDBRANCH   4  25
TORSDOF 8
