REMARK  Name = ZINC62029794
REMARK  10 active torsions:
REMARK  status: ('A' for Active; 'I' for Inactive)
REMARK    1  A    between atoms: C_1  and  N_2
REMARK    2  A    between atoms: N_2  and  C_3
REMARK    3  A    between atoms: N_2  and  C_8
REMARK    4  A    between atoms: C_3  and  C_4
REMARK    5  A    between atoms: C_4  and  C_5
REMARK    6  A    between atoms: C_5  and  O_6
REMARK    7  A    between atoms: O_6  and  C_7
REMARK    8  A    between atoms: C_8  and  C_10
REMARK    9  A    between atoms: C_8  and  C_12
REMARK   10  A    between atoms: C_10  and  N_11
REMARK                            x       y       z     vdW  Elec       q    Type
REMARK                         _______ _______ _______ _____ _____    ______ ____
ROOT
ATOM      1  C   UNL     1       0.655  -0.605  -1.151  0.00  0.00    -0.019 C 
ENDROOT
BRANCH   1   2
ATOM      2  C   UNL     1      -0.166  -0.350  -2.388  0.00  0.00    +0.092 A 
ATOM      3  C   UNL     1       0.309  -0.262  -3.643  0.00  0.00    +0.059 A 
ATOM      4  C   UNL     1      -0.800  -0.019  -4.486  0.00  0.00    +0.070 A 
ATOM      5  C   UNL     1      -1.888   0.027  -3.694  0.00  0.00    +0.184 A 
ATOM      6  O   UNL     1      -1.498  -0.179  -2.425  0.00  0.00    -0.454 OA
ATOM      7 BR   UNL     1      -3.664   0.326  -4.271  0.00  0.00    -0.007 Br
ATOM      8 BR   UNL     1      -0.762   0.201  -6.364  0.00  0.00    -0.046 Br
ENDBRANCH   1   2
BRANCH   1  10
ATOM      9  C   UNL     1       0.476   1.732  -0.637  0.00  0.00    -0.095 C 
ATOM     10  N   UNL     1       0.293   0.371  -0.114  0.00  0.00    +0.383 N 
ATOM     11  H   UNL     1       0.884   0.239   0.693  0.00  0.00    -0.081 HD
BRANCH  10  12
ATOM     12  C   UNL     1      -1.111   0.179   0.271  0.00  0.00    -0.076 C 
BRANCH  12  13
ATOM     13  C   UNL     1      -1.445   1.089   1.454  0.00  0.00    +0.009 C 
BRANCH  13  14
ATOM     14  C   UNL     1      -2.908   0.889   1.855  0.00  0.00    +0.157 C 
BRANCH  14  15
ATOM     15  O   UNL     1      -3.220   1.739   2.961  0.00  0.00    -0.383 OA
ATOM     16  C   UNL     1      -4.570   1.629   3.416  0.00  0.00    +0.193 C 
ENDBRANCH  14  15
ENDBRANCH  13  14
ENDBRANCH  12  13
ENDBRANCH  10  12
ENDBRANCH   1  10
BRANCH   1  17
ATOM     17  C   UNL     1       0.380  -2.019  -0.637  0.00  0.00    -0.094 C 
BRANCH  17  18
ATOM     18  N   UNL     1       1.069  -2.218   0.644  0.00  0.00    +0.377 N 
ATOM     19  H   UNL     1       0.962  -3.178   0.939  0.00  0.00    -0.090 HD
ATOM     20  H   UNL     1       2.050  -2.007   0.535  0.00  0.00    -0.090 HD
ATOM     21  H   UNL     1       0.669  -1.607   1.340  0.00  0.00    -0.090 HD
ENDBRANCH  17  18
ENDBRANCH   1  17
TORSDOF 8
