REMARK  Name = ZINC40247266
REMARK  3 active torsions:
REMARK  status: ('A' for Active; 'I' for Inactive)
REMARK    1  A    between atoms: C_3  and  C_9
REMARK    2  A    between atoms: C_9  and  C_11
REMARK    3  A    between atoms: C_9  and  O_21
REMARK                            x       y       z     vdW  Elec       q    Type
REMARK                         _______ _______ _______ _____ _____    ______ ____
ROOT
ATOM      1  C   UNL     1       3.671   2.186  -0.023  0.00  0.00    +0.176 C 
ENDROOT
BRANCH   1   2
ATOM      2  C   UNL     1       4.152   2.345  -1.442  0.00  0.00    -0.011 A 
ATOM      3  C   UNL     1       3.682   3.389  -2.217  0.00  0.00    +0.010 A 
ATOM      4  C   UNL     1       4.119   3.536  -3.520  0.00  0.00    +0.050 A 
ATOM      5  C   UNL     1       5.031   2.637  -4.053  0.00  0.00    +0.162 A 
ATOM      6  C   UNL     1       5.505   1.589  -3.273  0.00  0.00    +0.162 A 
ATOM      7  C   UNL     1       5.066   1.449  -1.965  0.00  0.00    +0.056 A 
ATOM      8  O   UNL     1       6.406   0.701  -3.774  0.00  0.00    -0.485 OA
ATOM      9  C   UNL     1       6.544   0.657  -5.199  0.00  0.00    +0.270 C 
ATOM     10  C   UNL     1       6.643   2.099  -5.716  0.00  0.00    +0.270 C 
ATOM     11  O   UNL     1       5.449   2.793  -5.339  0.00  0.00    -0.485 OA
ENDBRANCH   1   2
BRANCH   1  14
ATOM     12  C   UNL     1      -0.017   1.378   0.010  0.00  0.00    +0.002 A 
ATOM     13  C   UNL     1       1.171   2.086   0.002  0.00  0.00    +0.008 A 
ATOM     14  C   UNL     1       2.378   1.413  -0.013  0.00  0.00    +0.005 A 
ATOM     15  C   UNL     1       2.398   0.030  -0.021  0.00  0.00    +0.065 A 
ATOM     16  C   UNL     1       1.209  -0.679  -0.013  0.00  0.00    +0.060 A 
ATOM     17  C   UNL     1       0.002  -0.004   0.002  0.00  0.00    +0.021 A 
ATOM     18 CL   UNL     1       1.234  -2.415  -0.023  0.00  0.00    -0.082 Cl
ATOM     19 CL   UNL     1       3.914  -0.816  -0.041  0.00  0.00    -0.082 Cl
ENDBRANCH   1  14
BRANCH   1  20
ATOM     20  O   UNL     1       3.460   3.476   0.555  0.00  0.00    -0.382 OA
ATOM     21  H   UNL     1       2.804   4.012   0.090  0.00  0.00    +0.211 HD
ENDBRANCH   1  20
TORSDOF 3
