REMARK  Name = ZINC10442492
REMARK  9 active torsions:
REMARK  status: ('A' for Active; 'I' for Inactive)
REMARK    1  A    between atoms: C_1  and  C_2
REMARK    2  A    between atoms: C_2  and  C_3
REMARK    3  A    between atoms: C_3  and  C_4
REMARK    4  A    between atoms: C_4  and  N_5
REMARK    5  A    between atoms: C_6  and  N_30
REMARK    6  A    between atoms: C_7  and  N_14
REMARK    7  A    between atoms: N_14  and  C_15
REMARK    8  A    between atoms: C_16  and  C_18
REMARK    9  A    between atoms: C_18  and  C_19
REMARK                            x       y       z     vdW  Elec       q    Type
REMARK                         _______ _______ _______ _____ _____    ______ ____
ROOT
ATOM      1  N   UNL     1       1.491  -3.010   8.956  0.00  0.00    -0.280 N 
ATOM      2  C   UNL     1       1.963  -3.243   7.685  0.00  0.00    +0.127 A 
ATOM      3  C   UNL     1       3.189  -2.728   7.317  0.00  0.00    +0.139 A 
ATOM      4  C   UNL     1       3.916  -1.968   8.253  0.00  0.00    +0.277 A 
ATOM      5  O   UNL     1       5.000  -1.497   7.953  0.00  0.00    -0.266 OA
ATOM      6  N   UNL     1       3.406  -1.764   9.483  0.00  0.00    -0.273 N 
ATOM      7  H   UNL     1       3.921  -1.225  10.149  0.00  0.00    +0.173 HD
ATOM      8  C   UNL     1       2.211  -2.279   9.826  0.00  0.00    +0.331 A 
ATOM      9  O   UNL     1       1.774  -2.080  10.944  0.00  0.00    -0.246 OA
ENDROOT
BRANCH   3  10
ATOM     10  N   UNL     1       3.704  -2.954   6.023  0.00  0.00    -0.267 N 
ATOM     11  C   UNL     1       4.906  -3.772   5.845  0.00  0.00    +0.138 C 
ATOM     12  C   UNL     1       3.088  -2.417   4.949  0.00  0.00    +0.224 C 
ATOM     13  O   UNL     1       2.046  -1.811   5.087  0.00  0.00    -0.275 OA
BRANCH  12  14
ATOM     14  C   UNL     1       3.694  -2.571   3.578  0.00  0.00    +0.131 C 
BRANCH  14  15
ATOM     15  C   UNL     1       2.817  -1.886   2.561  0.00  0.00    -0.034 A 
ATOM     16  C   UNL     1       3.029  -0.555   2.253  0.00  0.00    +0.053 A 
ATOM     17  C   UNL     1       2.225   0.078   1.317  0.00  0.00    +0.164 A 
ATOM     18  C   UNL     1       1.207  -0.629   0.689  0.00  0.00    +0.180 A 
ATOM     19  C   UNL     1       0.998  -1.965   1.004  0.00  0.00    +0.086 A 
ATOM     20  C   UNL     1       1.803  -2.590   1.939  0.00  0.00    +0.028 A 
ATOM     21 CL   UNL     1      -0.274  -2.851   0.224  0.00  0.00    -0.080 Cl
ATOM     22  O   UNL     1       0.409  -0.028  -0.236  0.00  0.00    -0.483 OA
ATOM     23  C   UNL     1       0.406   1.403  -0.251  0.00  0.00    +0.270 C 
ATOM     24  C   UNL     1       1.861   1.887  -0.182  0.00  0.00    +0.270 C 
ATOM     25  O   UNL     1       2.442   1.390   1.028  0.00  0.00    -0.485 OA
ENDBRANCH  14  15
ENDBRANCH  12  14
ENDBRANCH   3  10
BRANCH   2  26
ATOM     26  N   UNL     1       1.225  -3.984   6.794  0.00  0.00    -0.343 N 
ATOM     27  H   UNL     1       1.532  -4.092   5.880  0.00  0.00    +0.144 HD
ATOM     28  H   UNL     1       0.396  -4.399   7.079  0.00  0.00    +0.144 HD
ENDBRANCH   2  26
BRANCH   1  29
ATOM     29  C   UNL     1       0.193  -3.555   9.362  0.00  0.00    +0.128 C 
BRANCH  29  30
ATOM     30  C   UNL     1      -0.909  -2.546   9.035  0.00  0.00    +0.021 C 
BRANCH  30  32
ATOM     31  C   UNL     1      -3.366  -2.106   9.131  0.00  0.00    +0.004 C 
ATOM     32  C   UNL     1      -2.264  -3.115   9.459  0.00  0.00    -0.002 C 
ENDBRANCH  30  32
ENDBRANCH  29  30
ENDBRANCH   1  29
TORSDOF 7
