REMARK  Name = ZINC61594917
REMARK  9 active torsions:
REMARK  status: ('A' for Active; 'I' for Inactive)
REMARK    1  A    between atoms: C_1  and  C_2
REMARK    2  A    between atoms: C_2  and  C_3
REMARK    3  A    between atoms: C_3  and  N_4
REMARK    4  A    between atoms: C_10  and  S_11
REMARK    5  A    between atoms: S_11  and  C_12
REMARK    6  A    between atoms: C_12  and  C_14
REMARK    7  A    between atoms: C_12  and  C_21
REMARK    8  A    between atoms: C_21  and  C_23
REMARK    9  A    between atoms: C_21  and  N_24
REMARK                            x       y       z     vdW  Elec       q    Type
REMARK                         _______ _______ _______ _____ _____    ______ ____
ROOT
ATOM      1  C   UNL     1      -1.335  -3.904   3.635  0.00  0.00    +0.071 C 
ENDROOT
BRANCH   1   2
ATOM      2  C   UNL     1      -1.246  -3.830   5.138  0.00  0.00    -0.022 A 
ATOM      3  C   UNL     1      -1.859  -2.795   5.817  0.00  0.00    +0.006 A 
ATOM      4  C   UNL     1      -1.777  -2.727   7.195  0.00  0.00    +0.000 A 
ATOM      5  C   UNL     1      -1.082  -3.696   7.895  0.00  0.00    +0.001 A 
ATOM      6  C   UNL     1      -0.468  -4.732   7.217  0.00  0.00    +0.015 A 
ATOM      7  C   UNL     1      -0.554  -4.802   5.838  0.00  0.00    +0.022 A 
ATOM      8 BR   UNL     1       0.279  -6.224   4.910  0.00  0.00    -0.050 Br
ENDBRANCH   1   2
BRANCH   1   9
ATOM      9  C   UNL     1      -2.566  -4.721   3.237  0.00  0.00    -0.060 C 
ATOM     10  C   UNL     1      -2.654  -4.801   1.712  0.00  0.00    -0.013 C 
BRANCH   9  11
ATOM     11  N   UNL     1      -2.454  -6.077   3.792  0.00  0.00    +0.381 N 
ATOM     12  H   UNL     1      -2.397  -6.024   4.798  0.00  0.00    -0.090 HD
ATOM     13  H   UNL     1      -3.266  -6.615   3.530  0.00  0.00    -0.090 HD
ATOM     14  H   UNL     1      -1.624  -6.521   3.431  0.00  0.00    -0.090 HD
ENDBRANCH   9  11
ENDBRANCH   1   9
BRANCH   1  15
ATOM     15  S   UNL     1      -1.476  -2.228   2.955  0.00  0.00    -0.080 S 
BRANCH  15  22
ATOM     16  N   UNL     1       0.516  -0.267   2.837  0.00  0.00    -0.271 N 
ATOM     17  C   UNL     1       1.777  -0.069   3.269  0.00  0.00    +0.345 A 
ATOM     18  O   UNL     1       2.454   0.926   3.080  0.00  0.00    -0.245 OA
ATOM     19  N   UNL     1       2.154  -1.172   3.948  0.00  0.00    -0.226 N 
ATOM     20  H   UNL     1       3.012  -1.318   4.375  0.00  0.00    +0.194 HD
ATOM     21  N   UNL     1       1.076  -2.067   3.923  0.00  0.00    -0.145 NA
ATOM     22  C   UNL     1       0.103  -1.510   3.261  0.00  0.00    +0.193 A 
BRANCH  16  23
ATOM     23  C   UNL     1      -0.282   0.681   2.055  0.00  0.00    +0.129 C 
BRANCH  23  25
ATOM     24  C   UNL     1      -1.896   2.584   2.187  0.00  0.00    +0.005 C 
ATOM     25  C   UNL     1      -1.062   1.594   3.003  0.00  0.00    +0.018 C 
ENDBRANCH  23  25
ENDBRANCH  16  23
ENDBRANCH  15  22
ENDBRANCH   1  15
TORSDOF 7
