REMARK  Name = ZINC09603255
REMARK  8 active torsions:
REMARK  status: ('A' for Active; 'I' for Inactive)
REMARK    1  A    between atoms: C_1  and  C_2
REMARK    2  A    between atoms: C_5  and  N_8
REMARK    3  A    between atoms: C_9  and  C_32
REMARK    4  A    between atoms: C_11  and  C_17
REMARK    5  A    between atoms: C_17  and  O_19
REMARK    6  A    between atoms: O_19  and  C_20
REMARK    7  A    between atoms: C_20  and  C_21
REMARK    8  A    between atoms: N_26  and  C_27
REMARK                            x       y       z     vdW  Elec       q    Type
REMARK                         _______ _______ _______ _____ _____    ______ ____
ROOT
ATOM      1  N   UNL     1      -0.646  -0.931  -0.602  0.00  0.00    -0.263 N 
ATOM      2  C   UNL     1      -0.735   0.524  -0.614  0.00  0.00    +0.132 C 
ATOM      3  C   UNL     1      -0.095   1.110   0.645  0.00  0.00    +0.124 C 
ATOM      4  C   UNL     1       1.305   0.506   0.811  0.00  0.00    +0.026 C 
ATOM      5  C   UNL     1       1.154  -0.983   1.131  0.00  0.00    +0.097 C 
ATOM      6  C   UNL     1       0.206  -1.622   0.156  0.00  0.00    +0.220 C 
ATOM      7  O   UNL     1       0.217  -2.830   0.052  0.00  0.00    -0.275 OA
ENDROOT
BRANCH   1  12
ATOM      8  C   UNL     1      -4.149  -3.839  -3.987  0.00  0.00    +0.044 C 
ATOM      9  C   UNL     1      -3.219  -3.066  -3.088  0.00  0.00    -0.050 A 
ATOM     10  C   UNL     1      -2.270  -2.223  -3.637  0.00  0.00    +0.005 A 
ATOM     11  C   UNL     1      -1.416  -1.514  -2.816  0.00  0.00    +0.024 A 
ATOM     12  C   UNL     1      -1.511  -1.647  -1.437  0.00  0.00    +0.037 A 
ATOM     13  C   UNL     1      -2.461  -2.498  -0.888  0.00  0.00    +0.024 A 
ATOM     14  C   UNL     1      -3.316  -3.201  -1.715  0.00  0.00    +0.005 A 
ENDBRANCH   1  12
BRANCH   2  15
ATOM     15  C   UNL     1      -2.184   0.934  -0.674  0.00  0.00    +0.011 A 
ATOM     16  C   UNL     1      -2.757   1.943  -1.374  0.00  0.00    +0.013 A 
ATOM     17  C   UNL     1      -4.123   2.134  -1.279  0.00  0.00    +0.008 A 
ATOM     18  C   UNL     1      -4.847   1.313  -0.479  0.00  0.00    +0.045 A 
ATOM     19  S   UNL     1      -3.589   0.223   0.166  0.00  0.00    -0.100 S 
ENDBRANCH   2  15
BRANCH   3  20
ATOM     20  C   UNL     1      -0.939   0.769   1.846  0.00  0.00    +0.313 C 
ATOM     21  O   UNL     1      -1.456  -0.320   1.932  0.00  0.00    -0.250 OA
BRANCH  20  22
ATOM     22  O   UNL     1      -1.116   1.675   2.821  0.00  0.00    -0.455 OA
BRANCH  22  23
ATOM     23  C   UNL     1      -1.940   1.277   3.948  0.00  0.00    +0.328 C 
BRANCH  23  24
ATOM     24  C   UNL     1      -2.025   2.414   4.934  0.00  0.00    +0.258 C 
ATOM     25  O   UNL     1      -1.447   3.456   4.709  0.00  0.00    -0.272 OA
ATOM     26  N   UNL     1      -2.743   2.272   6.066  0.00  0.00    -0.237 N 
ATOM     27  C   UNL     1      -2.818   3.288   6.948  0.00  0.00    +0.306 C 
ATOM     28  O   UNL     1      -2.239   4.333   6.722  0.00  0.00    -0.252 OA
ATOM     29  N   UNL     1      -3.536   3.147   8.080  0.00  0.00    -0.296 N 
ATOM     30  H   UNL     1      -3.205   1.438   6.246  0.00  0.00    +0.159 HD
ATOM     31  H   UNL     1      -3.998   2.313   8.260  0.00  0.00    +0.151 HD
BRANCH  29  32
ATOM     32  C   UNL     1      -3.618   4.252   9.038  0.00  0.00    +0.074 C 
ATOM     33  C   UNL     1      -2.431   4.187  10.022  0.00  0.00    +0.022 C 
ATOM     34  C   UNL     1      -3.037   4.631  11.377  0.00  0.00    +0.002 C 
ATOM     35  C   UNL     1      -4.444   3.984  11.351  0.00  0.00    +0.002 C 
ATOM     36  C   UNL     1      -4.898   4.122   9.883  0.00  0.00    +0.022 C 
ENDBRANCH  29  32
ENDBRANCH  23  24
ENDBRANCH  22  23
ENDBRANCH  20  22
ENDBRANCH   3  20
TORSDOF 7
