REMARK  Name = ZINC39545400
REMARK  7 active torsions:
REMARK  status: ('A' for Active; 'I' for Inactive)
REMARK    1  A    between atoms: C_4  and  C_7
REMARK    2  A    between atoms: C_7  and  C_8
REMARK    3  A    between atoms: C_11  and  C_23
REMARK    4  A    between atoms: N_25  and  C_26
REMARK    5  A    between atoms: N_25  and  C_33
REMARK    6  A    between atoms: C_31  and  O_32
REMARK    7  A    between atoms: C_38  and  O_39
REMARK                            x       y       z     vdW  Elec       q    Type
REMARK                         _______ _______ _______ _____ _____    ______ ____
ROOT
ATOM      1  C   UNL     1       4.054  -0.937   1.436  0.00  0.00    +0.057 C 
ATOM      2  C   UNL     1       5.397  -1.694   1.569  0.00  0.00    +0.045 C 
ATOM      3  C   UNL     1       5.998  -1.008   2.817  0.00  0.00    +0.171 C 
ATOM      4  N   UNL     1       5.368   0.319   2.876  0.00  0.00    -0.346 N 
ATOM      5  C   UNL     1       4.306   0.379   2.133  0.00  0.00    +0.079 C 
ATOM      6  N   UNL     1       3.532   1.512   2.007  0.00  0.00    -0.304 N 
ATOM      7  C   UNL     1       4.078   2.727   2.445  0.00  0.00    +0.037 A 
ATOM      8  C   UNL     1       3.486   3.924   2.068  0.00  0.00    +0.023 A 
ATOM      9  C   UNL     1       4.023   5.123   2.493  0.00  0.00    +0.002 A 
ATOM     10  C   UNL     1       5.151   5.128   3.294  0.00  0.00    +0.000 A 
ATOM     11  C   UNL     1       5.740   3.937   3.672  0.00  0.00    +0.007 A 
ATOM     12  C   UNL     1       5.207   2.730   3.252  0.00  0.00    -0.007 A 
ATOM     13  C   UNL     1       5.867   1.442   3.682  0.00  0.00    +0.155 C 
ATOM     14  H   UNL     1       2.640   1.472   1.627  0.00  0.00    +0.153 HD
ENDROOT
BRANCH   3  15
ATOM     15  C   UNL     1       7.492  -0.872   2.668  0.00  0.00    +0.247 C 
ATOM     16  O   UNL     1       8.003   0.229   2.660  0.00  0.00    -0.273 OA
ATOM     17  N   UNL     1       8.260  -1.972   2.544  0.00  0.00    -0.232 N 
BRANCH  17  18
ATOM     18  C   UNL     1       7.669  -3.244   2.553  0.00  0.00    +0.083 A 
ATOM     19  C   UNL     1       7.258  -3.828   1.363  0.00  0.00    +0.027 A 
ATOM     20  C   UNL     1       6.677  -5.082   1.375  0.00  0.00    +0.002 A 
ATOM     21  C   UNL     1       6.503  -5.756   2.569  0.00  0.00    +0.004 A 
ATOM     22  C   UNL     1       6.910  -5.180   3.758  0.00  0.00    +0.047 A 
ATOM     23  C   UNL     1       7.499  -3.926   3.755  0.00  0.00    +0.138 A 
BRANCH  23  24
ATOM     24  O   UNL     1       7.904  -3.360   4.923  0.00  0.00    -0.505 OA
ATOM     25  H   UNL     1       7.226  -2.827   5.358  0.00  0.00    +0.292 HD
ENDBRANCH  23  24
ENDBRANCH  17  18
BRANCH  17  26
ATOM     26  C   UNL     1       9.649  -1.845   2.405  0.00  0.00    +0.083 A 
ATOM     27  C   UNL     1      10.462  -1.837   3.530  0.00  0.00    +0.027 A 
ATOM     28  C   UNL     1      11.831  -1.712   3.391  0.00  0.00    +0.002 A 
ATOM     29  C   UNL     1      12.395  -1.595   2.133  0.00  0.00    +0.004 A 
ATOM     30  C   UNL     1      11.591  -1.603   1.008  0.00  0.00    +0.047 A 
ATOM     31  C   UNL     1      10.218  -1.733   1.139  0.00  0.00    +0.138 A 
BRANCH  31  32
ATOM     32  O   UNL     1       9.426  -1.746   0.033  0.00  0.00    -0.505 OA
ATOM     33  H   UNL     1       9.122  -0.870  -0.243  0.00  0.00    +0.292 HD
ENDBRANCH  31  32
ENDBRANCH  17  26
ENDBRANCH   3  15
BRANCH   1  34
ATOM     34  C   UNL     1       3.711  -0.707  -0.038  0.00  0.00    +0.046 C 
BRANCH  34  38
ATOM     35  C   UNL     1       2.639  -4.425  -1.849  0.00  0.00    +0.000 A 
ATOM     36  C   UNL     1       1.690  -3.692  -1.161  0.00  0.00    +0.000 A 
ATOM     37  C   UNL     1       2.037  -2.489  -0.575  0.00  0.00    +0.003 A 
ATOM     38  C   UNL     1       3.333  -2.019  -0.676  0.00  0.00    -0.047 A 
ATOM     39  C   UNL     1       4.283  -2.752  -1.363  0.00  0.00    +0.003 A 
ATOM     40  C   UNL     1       3.936  -3.955  -1.950  0.00  0.00    +0.000 A 
ENDBRANCH  34  38
ENDBRANCH   1  34
TORSDOF 7
