REMARK  Name = ZINC33261938
REMARK  5 active torsions:
REMARK  status: ('A' for Active; 'I' for Inactive)
REMARK    1  A    between atoms: C_1  and  C_2
REMARK    2  A    between atoms: C_5  and  N_9
REMARK    3  A    between atoms: C_10  and  C_12
REMARK    4  A    between atoms: N_17  and  S_18
REMARK    5  A    between atoms: S_18  and  C_21
REMARK                            x       y       z     vdW  Elec       q    Type
REMARK                         _______ _______ _______ _____ _____    ______ ____
ROOT
ATOM      1  C   UNL     1      -0.226   3.287   2.189  0.00  0.00    +0.166 C 
ATOM      2  C   UNL     1      -1.417   2.325   1.939  0.00  0.00    +0.031 C 
ATOM      3  C   UNL     1      -0.975   1.072   2.740  0.00  0.00    +0.019 C 
ATOM      4  C   UNL     1       0.554   1.052   2.535  0.00  0.00    +0.110 C 
ATOM      5  N   UNL     1       0.965   2.419   2.182  0.00  0.00    -0.165 NA
ENDROOT
BRANCH   1   7
ATOM      6  N   UNL     1      -0.526   5.579   1.309  0.00  0.00    -0.284 N 
ATOM      7  C   UNL     1      -0.137   4.308   1.085  0.00  0.00    +0.236 C 
ATOM      8  O   UNL     1       0.284   3.987  -0.006  0.00  0.00    -0.274 OA
ATOM      9  H   UNL     1      -1.013   5.846   2.258  0.00  0.00    +0.155 HD
BRANCH   6  14
ATOM     10  C   UNL     1       0.352   9.556  -2.642  0.00  0.00    +0.045 C 
ATOM     11  C   UNL     1       0.119   8.500  -1.593  0.00  0.00    -0.032 A 
ATOM     12  C   UNL     1       0.183   8.832  -0.252  0.00  0.00    +0.006 A 
ATOM     13  C   UNL     1      -0.030   7.867   0.712  0.00  0.00    +0.023 A 
ATOM     14  C   UNL     1      -0.309   6.559   0.334  0.00  0.00    +0.035 A 
ATOM     15  C   UNL     1      -0.367   6.226  -1.012  0.00  0.00    +0.043 A 
ATOM     16  C   UNL     1      -0.158   7.198  -1.973  0.00  0.00    +0.046 A 
ATOM     17 CL   UNL     1      -0.237   6.785  -3.657  0.00  0.00    -0.083 Cl
ENDBRANCH   6  14
ENDBRANCH   1   7
BRANCH   5  18
ATOM     18  S   UNL     1       2.511   2.904   1.841  0.00  0.00    +0.062 S 
ATOM     19  O   UNL     1       2.425   3.778   0.723  0.00  0.00    -0.153 OA
ATOM     20  O   UNL     1       3.312   1.730   1.830  0.00  0.00    -0.153 OA
BRANCH  18  21
ATOM     21  C   UNL     1       3.064   3.879   3.201  0.00  0.00    +0.107 A 
ATOM     22  C   UNL     1       2.940   5.255   3.158  0.00  0.00    +0.032 A 
ATOM     23  C   UNL     1       3.366   6.027   4.223  0.00  0.00    +0.049 A 
ATOM     24  C   UNL     1       3.930   5.420   5.332  0.00  0.00    +0.142 A 
ATOM     25  C   UNL     1       4.059   4.033   5.373  0.00  0.00    +0.078 A 
ATOM     26  C   UNL     1       3.625   3.265   4.306  0.00  0.00    +0.055 A 
ATOM     27  N   UNL     1       4.632   3.431   6.503  0.00  0.00    -0.280 N 
ATOM     28  C   UNL     1       4.755   4.153   7.638  0.00  0.00    +0.255 C 
ATOM     29  O   UNL     1       5.275   3.663   8.618  0.00  0.00    -0.272 OA
ATOM     30  C   UNL     1       4.242   5.570   7.682  0.00  0.00    +0.325 C 
ATOM     31  O   UNL     1       4.359   6.164   6.386  0.00  0.00    -0.481 OA
ATOM     32  H   UNL     1       4.973   2.386   6.456  0.00  0.00    +0.155 HD
ENDBRANCH  18  21
ENDBRANCH   5  18
TORSDOF 4
