REMARK  Name = ZINC64790577
REMARK  4 active torsions:
REMARK  status: ('A' for Active; 'I' for Inactive)
REMARK    1  A    between atoms: C_1  and  C_2
REMARK    2  A    between atoms: C_5  and  C_8
REMARK    3  A    between atoms: C_10  and  C_26
REMARK    4  A    between atoms: C_18  and  C_20
REMARK                            x       y       z     vdW  Elec       q    Type
REMARK                         _______ _______ _______ _____ _____    ______ ____
ROOT
ATOM      1  C   UNL     1       0.060  -4.245  -0.021  0.00  0.00    +0.055 C 
ATOM      2  C   UNL     1       0.071  -4.973   1.293  0.00  0.00    +0.087 C 
ATOM      3  C   UNL     1      -0.699  -6.295   1.201  0.00  0.00    +0.147 C 
ATOM      4  N   UNL     1      -0.351  -6.935  -0.068  0.00  0.00    -0.220 N 
ATOM      5  C   UNL     1      -0.001  -6.223  -1.181  0.00  0.00    +0.251 A 
ATOM      6  N   UNL     1       0.233  -7.082  -2.144  0.00  0.00    -0.176 NA
ATOM      7  C   UNL     1       0.056  -8.326  -1.688  0.00  0.00    +0.243 A 
ATOM      8  N   UNL     1      -0.300  -8.280  -0.420  0.00  0.00    -0.131 NA
ATOM      9  N   UNL     1       0.221  -9.493  -2.438  0.00  0.00    -0.249 N 
ATOM     10  C   UNL     1       0.589  -9.416  -3.733  0.00  0.00    +0.257 C 
ATOM     11  O   UNL     1       0.777  -8.329  -4.248  0.00  0.00    -0.269 OA
ATOM     12  N   UNL     1       0.063  -4.865  -1.170  0.00  0.00    -0.215 NA
ATOM     13  H   UNL     1       0.071 -10.359  -2.028  0.00  0.00    +0.158 HD
ENDROOT
BRANCH   1  18
ATOM     14  C   UNL     1      -0.018   1.503   0.010  0.00  0.00    +0.044 C 
ATOM     15  C   UNL     1       0.002  -0.004   0.002  0.00  0.00    -0.050 A 
ATOM     16  C   UNL     1       0.006  -0.686  -1.202  0.00  0.00    +0.004 A 
ATOM     17  C   UNL     1       0.025  -2.064  -1.218  0.00  0.00    +0.010 A 
ATOM     18  C   UNL     1       0.041  -2.774  -0.013  0.00  0.00    -0.004 A 
ATOM     19  C   UNL     1       0.037  -2.078   1.200  0.00  0.00    +0.010 A 
ATOM     20  C   UNL     1       0.023  -0.699   1.199  0.00  0.00    +0.004 A 
ENDBRANCH   1  18
BRANCH   3  21
ATOM     21  C   UNL     1      -2.181  -6.025   1.246  0.00  0.00    -0.022 A 
ATOM     22  C   UNL     1      -2.770  -5.237   0.274  0.00  0.00    +0.008 A 
ATOM     23  C   UNL     1      -4.129  -4.989   0.314  0.00  0.00    +0.038 A 
ATOM     24  C   UNL     1      -4.901  -5.531   1.328  0.00  0.00    +0.123 A 
ATOM     25  C   UNL     1      -4.310  -6.320   2.301  0.00  0.00    +0.038 A 
ATOM     26  C   UNL     1      -2.952  -6.571   2.255  0.00  0.00    +0.008 A 
ATOM     27  F   UNL     1      -6.229  -5.289   1.369  0.00  0.00    -0.205 F 
ENDBRANCH   3  21
BRANCH  10  28
ATOM     28  C   UNL     1       0.762 -10.639  -4.520  0.00  0.00    +0.074 A 
ATOM     29  C   UNL     1       1.137 -10.779  -5.848  0.00  0.00    +0.021 A 
ATOM     30  C   UNL     1       1.216 -12.070  -6.314  0.00  0.00    +0.008 A 
ATOM     31  C   UNL     1       0.930 -13.093  -5.471  0.00  0.00    +0.046 A 
ATOM     32  S   UNL     1       0.554 -12.337  -4.018  0.00  0.00    -0.092 S 
ENDBRANCH  10  28
TORSDOF 3
