REMARK  Name = ZINC54042347
REMARK  9 active torsions:
REMARK  status: ('A' for Active; 'I' for Inactive)
REMARK    1  A    between atoms: C_1  and  C_2
REMARK    2  A    between atoms: N_5  and  C_8
REMARK    3  A    between atoms: C_8  and  C_10
REMARK    4  A    between atoms: C_8  and  C_23
REMARK    5  A    between atoms: C_10  and  N_11
REMARK    6  A    between atoms: N_14  and  C_15
REMARK    7  A    between atoms: C_15  and  C_16
REMARK    8  A    between atoms: C_16  and  C_17
REMARK    9  A    between atoms: C_17  and  N_18
REMARK                            x       y       z     vdW  Elec       q    Type
REMARK                         _______ _______ _______ _____ _____    ______ ____
ROOT
ATOM      1  C   UNL     1      -2.199  -4.408   1.601  0.00  0.00    +0.095 C 
ENDROOT
BRANCH   1   2
ATOM      2  N   UNL     1      -2.242  -5.869   1.705  0.00  0.00    -0.301 N 
ATOM      3  C   UNL     1      -3.428  -6.505   1.770  0.00  0.00    +0.300 C 
ATOM      4  O   UNL     1      -4.463  -5.867   1.742  0.00  0.00    -0.253 OA
ATOM      5  N   UNL     1      -3.467  -7.849   1.865  0.00  0.00    -0.299 N 
ATOM      6  H   UNL     1      -1.417  -6.378   1.727  0.00  0.00    +0.150 HD
ATOM      7  H   UNL     1      -2.642  -8.358   1.887  0.00  0.00    +0.150 HD
BRANCH   5   8
ATOM      8  C   UNL     1      -4.757  -8.541   1.936  0.00  0.00    +0.107 C 
BRANCH   8   9
ATOM      9  C   UNL     1      -4.521 -10.049   2.038  0.00  0.00    +0.040 C 
BRANCH   9  10
ATOM     10  C   UNL     1      -5.868 -10.772   2.112  0.00  0.00    +0.124 C 
BRANCH  10  11
ATOM     11  N   UNL     1      -5.643 -12.216   2.210  0.00  0.00    -0.338 N 
ATOM     12  C   UNL     1      -5.530 -13.093   1.165  0.00  0.00    +0.104 A 
ATOM     13  C   UNL     1      -5.329 -14.313   1.700  0.00  0.00    +0.101 A 
ATOM     14  N   UNL     1      -5.319 -14.183   3.035  0.00  0.00    -0.352 N 
ATOM     15  C   UNL     1      -5.501 -12.930   3.347  0.00  0.00    +0.173 A 
ATOM     16  H   UNL     1      -5.192 -14.907   3.668  0.00  0.00    +0.166 HD
ENDBRANCH  10  11
ENDBRANCH   9  10
ENDBRANCH   8   9
ENDBRANCH   5   8
ENDBRANCH   1   2
BRANCH   1  17
ATOM     17  C   UNL     1      -0.749  -3.951   1.434  0.00  0.00    -0.013 C 
BRANCH  17  22
ATOM     18  C   UNL     1      -0.050   1.431  -0.319  0.00  0.00    +0.007 C 
ATOM     19  C   UNL     1      -0.022  -0.097  -0.232  0.00  0.00    -0.018 C 
ATOM     20  C   UNL     1      -1.455  -0.633  -0.171  0.00  0.00    -0.015 C 
ATOM     21  C   UNL     1      -1.418  -2.153  -0.003  0.00  0.00    -0.078 C 
ATOM     22  N   UNL     1      -0.714  -2.495   1.238  0.00  0.00    +0.386 N 
ATOM     23  C   UNL     1       0.682  -2.047   1.158  0.00  0.00    -0.078 C 
ATOM     24  C   UNL     1       0.726  -0.523   1.035  0.00  0.00    -0.015 C 
ATOM     25  H   UNL     1      -1.167  -2.042   2.017  0.00  0.00    -0.081 HD
ENDBRANCH  17  22
BRANCH  17  26
ATOM     26  C   UNL     1       0.037  -4.311   2.669  0.00  0.00    -0.022 A 
ATOM     27  C   UNL     1       0.877  -5.355   2.872  0.00  0.00    +0.009 A 
ATOM     28  C   UNL     1       1.497  -5.487   4.100  0.00  0.00    +0.008 A 
ATOM     29  C   UNL     1       1.247  -4.569   5.065  0.00  0.00    +0.045 A 
ATOM     30  S   UNL     1       0.109  -3.467   4.241  0.00  0.00    -0.103 S 
ENDBRANCH  17  26
ENDBRANCH   1  17
TORSDOF 8
