REMARK  Name = ZINC13151290
REMARK  7 active torsions:
REMARK  status: ('A' for Active; 'I' for Inactive)
REMARK    1  A    between atoms: C_1  and  C_2
REMARK    2  A    between atoms: C_2  and  C_3
REMARK    3  A    between atoms: C_2  and  C_4
REMARK    4  A    between atoms: C_2  and  C_5
REMARK    5  A    between atoms: C_12  and  N_23
REMARK    6  A    between atoms: C_13  and  C_21
REMARK    7  A    between atoms: C_14  and  C_16
REMARK                            x       y       z     vdW  Elec       q    Type
REMARK                         _______ _______ _______ _____ _____    ______ ____
ROOT
ATOM      1  C   UNL     1       1.142  -0.395  -1.439  0.00  0.00    +0.049 A 
ATOM      2  C   UNL     1       1.139  -1.698  -1.759  0.00  0.00    +0.050 A 
ATOM      3  C   UNL     1       1.853  -1.855  -2.967  0.00  0.00    +0.245 A 
ATOM      4  N   UNL     1       2.266  -0.680  -3.346  0.00  0.00    -0.135 NA
ATOM      5  N   UNL     1       1.828   0.262  -2.403  0.00  0.00    -0.277 N 
ATOM      6  H   UNL     1       1.989   1.218  -2.435  0.00  0.00    +0.189 HD
ATOM      7  O   UNL     1       2.021  -3.071  -3.553  0.00  0.00    -0.421 OA
ATOM      8  C   UNL     1       1.262  -4.088  -3.100  0.00  0.00    +0.201 C 
ATOM      9  C   UNL     1       0.547  -4.058  -1.956  0.00  0.00    +0.098 C 
ATOM     10  C   UNL     1       0.518  -2.865  -1.035  0.00  0.00    +0.102 C 
ENDROOT
BRANCH  10  11
ATOM     11  C   UNL     1       1.306  -3.167   0.214  0.00  0.00    -0.028 A 
ATOM     12  C   UNL     1       0.658  -3.416   1.409  0.00  0.00    +0.012 A 
ATOM     13  C   UNL     1       1.397  -3.683   2.514  0.00  0.00    +0.045 A 
ATOM     14  S   UNL     1       3.062  -3.588   1.876  0.00  0.00    -0.105 S 
ATOM     15  C   UNL     1       2.661  -3.203   0.180  0.00  0.00    +0.049 A 
ENDBRANCH  10  11
BRANCH   1  17
ATOM     16  C   UNL     1       0.627   1.747  -0.301  0.00  0.00    +0.017 C 
ATOM     17  C   UNL     1       0.494   0.225  -0.228  0.00  0.00    +0.004 C 
ATOM     18  C   UNL     1       1.185  -0.287   1.038  0.00  0.00    +0.017 C 
ATOM     19  C   UNL     1      -0.987  -0.157  -0.190  0.00  0.00    +0.017 C 
ENDBRANCH   1  17
BRANCH   8  20
ATOM     20  N   UNL     1       1.213  -5.233  -3.855  0.00  0.00    -0.328 N 
ATOM     21  H   UNL     1       1.714  -5.290  -4.683  0.00  0.00    +0.145 HD
ATOM     22  H   UNL     1       0.677  -5.986  -3.559  0.00  0.00    +0.145 HD
ENDBRANCH   8  20
BRANCH   9  23
ATOM     23  C   UNL     1      -0.220  -5.214  -1.601  0.00  0.00    +0.101 C 
ATOM     24  N   UNL     1      -0.829  -6.131  -1.318  0.00  0.00    -0.191 NA
ENDBRANCH   9  23
TORSDOF 4
