REMARK  Name = ZINC38575943
REMARK  14 active torsions:
REMARK  status: ('A' for Active; 'I' for Inactive)
REMARK    1  A    between atoms: C_1  and  C_2
REMARK    2  A    between atoms: C_2  and  C_3
REMARK    3  A    between atoms: C_3  and  C_5
REMARK    4  A    between atoms: C_3  and  C_6
REMARK    5  A    between atoms: C_6  and  C_8
REMARK    6  A    between atoms: C_6  and  N_18
REMARK    7  A    between atoms: C_8  and  N_10
REMARK    8  A    between atoms: C_14  and  C_17
REMARK    9  A    between atoms: C_19  and  C_21
REMARK   10  A    between atoms: C_21  and  N_22
REMARK   11  A    between atoms: C_27  and  O_35
REMARK   12  A    between atoms: C_28  and  O_33
REMARK   13  A    between atoms: O_33  and  C_34
REMARK   14  A    between atoms: O_35  and  C_36
REMARK                            x       y       z     vdW  Elec       q    Type
REMARK                         _______ _______ _______ _____ _____    ______ ____
ROOT
ATOM      1  N   UNL     1      -0.163   1.438   2.281  0.00  0.00    -0.302 N 
ATOM      2  C   UNL     1      -1.194   1.917   1.556  0.00  0.00    +0.231 C 
ATOM      3  O   UNL     1      -1.994   1.152   1.061  0.00  0.00    -0.274 OA
ATOM      4  H   UNL     1       0.436   2.051   2.735  0.00  0.00    +0.150 HD
ENDROOT
BRANCH   1   5
ATOM      5  C   UNL     1       0.052  -0.007   2.383  0.00  0.00    +0.164 C 
BRANCH   5   6
ATOM      6  C   UNL     1       0.882  -0.485   1.190  0.00  0.00    +0.015 C 
ATOM      7  C   UNL     1       2.288   0.112   1.275  0.00  0.00    +0.010 C 
BRANCH   6   9
ATOM      8  C   UNL     1      -0.420  -2.610   1.018  0.00  0.00    +0.004 C 
ATOM      9  C   UNL     1       0.974  -2.012   1.211  0.00  0.00    +0.002 C 
ENDBRANCH   6   9
ENDBRANCH   5   6
BRANCH   5  10
ATOM     10  C   UNL     1       0.786  -0.317   3.662  0.00  0.00    +0.259 C 
ATOM     11  O   UNL     1       1.100   0.584   4.416  0.00  0.00    -0.272 OA
BRANCH  10  12
ATOM     12  N   UNL     1       1.090  -1.573   3.965  0.00  0.00    -0.155 NA
ATOM     13  C   UNL     1       1.741  -1.847   5.098  0.00  0.00    +0.163 A 
ATOM     14  N   UNL     1       2.166  -0.983   6.058  0.00  0.00    -0.340 N 
ATOM     15  H   UNL     1       2.007  -0.030   5.970  0.00  0.00    +0.167 HD
ATOM     16  C   UNL     1       2.816  -1.479   7.145  0.00  0.00    +0.021 A 
ATOM     17  C   UNL     1       2.998  -2.803   7.200  0.00  0.00    +0.069 A 
ATOM     18  S   UNL     1       2.227  -3.345   5.686  0.00  0.00    -0.060 S 
ATOM     19  C   UNL     1       3.311  -0.573   8.243  0.00  0.00    +0.064 C 
ENDBRANCH  10  12
ENDBRANCH   5  10
ENDBRANCH   1   5
BRANCH   2  20
ATOM     20  C   UNL     1      -1.352   3.403   1.361  0.00  0.00    +0.205 C 
BRANCH  20  21
ATOM     21  N   UNL     1      -2.539   3.664   0.544  0.00  0.00    -0.273 N 
ATOM     22  C   UNL     1      -2.409   3.724  -0.912  0.00  0.00    +0.214 C 
ATOM     23  N   UNL     1      -3.632   3.226  -1.553  0.00  0.00    -0.328 N 
ATOM     24  C   UNL     1      -4.866   3.624  -1.041  0.00  0.00    +0.044 A 
ATOM     25  C   UNL     1      -5.987   3.722  -1.844  0.00  0.00    +0.073 A 
ATOM     26  C   UNL     1      -7.198   4.107  -1.289  0.00  0.00    +0.163 A 
ATOM     27  C   UNL     1      -7.291   4.394   0.074  0.00  0.00    +0.162 A 
ATOM     28  C   UNL     1      -6.176   4.306   0.883  0.00  0.00    +0.064 A 
ATOM     29  C   UNL     1      -4.951   3.926   0.330  0.00  0.00    +0.061 A 
ATOM     30  C   UNL     1      -3.732   3.840   1.147  0.00  0.00    +0.250 C 
ATOM     31  O   UNL     1      -3.798   3.931   2.358  0.00  0.00    -0.270 OA
ATOM     32  H   UNL     1      -3.583   2.632  -2.318  0.00  0.00    +0.148 HD
BRANCH  27  33
ATOM     33  O   UNL     1      -8.486   4.764   0.608  0.00  0.00    -0.491 OA
ATOM     34  C   UNL     1      -8.512   5.045   2.009  0.00  0.00    +0.277 C 
ENDBRANCH  27  33
BRANCH  26  35
ATOM     35  O   UNL     1      -8.301   4.204  -2.076  0.00  0.00    -0.491 OA
ATOM     36  C   UNL     1      -8.138   3.897  -3.462  0.00  0.00    +0.277 C 
ENDBRANCH  26  35
ENDBRANCH  20  21
ENDBRANCH   2  20
TORSDOF 9
