REMARK  Name = ZINC40988871
REMARK  4 active torsions:
REMARK  status: ('A' for Active; 'I' for Inactive)
REMARK    1  A    between atoms: C_1  and  S_2
REMARK    2  A    between atoms: S_2  and  C_3
REMARK    3  A    between atoms: C_9  and  C_11
REMARK    4  A    between atoms: N_14  and  C_16
REMARK                            x       y       z     vdW  Elec       q    Type
REMARK                         _______ _______ _______ _____ _____    ______ ____
ROOT
ATOM      1  C   UNL     1      -6.023  -4.592   0.048  0.00  0.00    +0.151 A 
ATOM      2  C   UNL     1      -7.409  -4.822   0.055  0.00  0.00    +0.006 A 
ATOM      3  C   UNL     1      -7.563  -6.169   0.058  0.00  0.00    +0.044 A 
ATOM      4  N   UNL     1      -6.334  -6.710   0.051  0.00  0.00    -0.263 N 
ATOM      5  N   UNL     1      -5.442  -5.779   0.041  0.00  0.00    -0.166 NA
ATOM      6  C   UNL     1      -8.902  -6.861   0.069  0.00  0.00    +0.055 C 
ATOM      7  C   UNL     1      -9.969  -5.843   0.491  0.00  0.00    +0.006 C 
ATOM      8  C   UNL     1      -9.826  -4.570  -0.347  0.00  0.00    +0.005 C 
ATOM      9  C   UNL     1      -8.542  -3.832   0.056  0.00  0.00    +0.039 C 
ENDROOT
BRANCH   1  16
ATOM     10  C   UNL     1      -1.702  -0.454   0.016  0.00  0.00    +0.198 A 
ATOM     11  N   UNL     1      -2.070  -1.720   0.018  0.00  0.00    -0.198 NA
ATOM     12  C   UNL     1      -3.366  -1.982   0.029  0.00  0.00    +0.185 A 
ATOM     13  S   UNL     1      -4.051  -0.448   0.036  0.00  0.00    +0.050 S 
ATOM     14  N   UNL     1      -2.644   0.464   0.030  0.00  0.00    -0.181 NA
ATOM     15  N   UNL     1      -4.001  -3.214   0.033  0.00  0.00    -0.258 N 
ATOM     16  C   UNL     1      -5.347  -3.279   0.044  0.00  0.00    +0.270 C 
ATOM     17  O   UNL     1      -6.005  -2.256   0.052  0.00  0.00    -0.268 OA
ATOM     18  H   UNL     1      -3.476  -4.030   0.027  0.00  0.00    +0.157 HD
BRANCH  10  20
ATOM     19  C   UNL     1      -0.022   1.810   0.012  0.00  0.00    +0.093 C 
ATOM     20  S   UNL     1       0.002  -0.004   0.002  0.00  0.00    -0.089 S 
ENDBRANCH  10  20
ENDBRANCH   1  16
BRANCH   4  21
ATOM     21  C   UNL     1      -6.048  -8.146   0.050  0.00  0.00    +0.130 C 
ATOM     22  C   UNL     1      -5.234  -8.504  -1.205  0.00  0.00    +0.051 C 
ATOM     23  C   UNL     1      -4.681  -9.947  -1.028  0.00  0.00    +0.168 C 
ATOM     24  S   UNL     1      -4.192  -9.906   0.748  0.00  0.00    -0.029 S 
ATOM     25  O   UNL     1      -4.629 -11.104   1.375  0.00  0.00    -0.174 OA
ATOM     26  O   UNL     1      -2.827  -9.524   0.843  0.00  0.00    -0.174 OA
ATOM     27  C   UNL     1      -5.245  -8.512   1.321  0.00  0.00    +0.192 C 
ENDBRANCH   4  21
TORSDOF 3
