REMARK  Name = ZINC08502990
REMARK  4 active torsions:
REMARK  status: ('A' for Active; 'I' for Inactive)
REMARK    1  A    between atoms: C_1  and  C_2
REMARK    2  A    between atoms: C_2  and  C_24
REMARK    3  A    between atoms: N_5  and  C_9
REMARK    4  A    between atoms: C_9  and  C_10
REMARK                            x       y       z     vdW  Elec       q    Type
REMARK                         _______ _______ _______ _____ _____    ______ ____
ROOT
ATOM      1  C   UNL     1      -5.472  -0.038   1.105  0.00  0.00    +0.047 C 
ATOM      2  C   UNL     1      -4.076  -0.474   0.653  0.00  0.00    +0.136 C 
ATOM      3  C   UNL     1      -3.026   0.499   1.152  0.00  0.00    +0.251 C 
ATOM      4  O   UNL     1      -2.761   0.763   2.305  0.00  0.00    -0.272 OA
ATOM      5  N   UNL     1      -2.448   1.009   0.046  0.00  0.00    -0.215 N 
ATOM      6  C   UNL     1      -2.985   0.503  -1.070  0.00  0.00    +0.310 C 
ATOM      7  O   UNL     1      -2.631   0.813  -2.190  0.00  0.00    -0.252 OA
ATOM      8  N   UNL     1      -3.957  -0.391  -0.813  0.00  0.00    -0.281 N 
ATOM      9  H   UNL     1      -4.479  -0.883  -1.466  0.00  0.00    +0.152 HD
ENDROOT
BRANCH   2  10
ATOM     10  C   UNL     1      -3.775  -1.871   1.132  0.00  0.00    -0.008 A 
ATOM     11  C   UNL     1      -3.503  -2.858   0.234  0.00  0.00    +0.007 A 
ATOM     12  C   UNL     1      -3.216  -4.154   0.658  0.00  0.00    +0.001 A 
ATOM     13  C   UNL     1      -3.210  -4.473   1.981  0.00  0.00    +0.008 A 
ATOM     14  C   UNL     1      -3.491  -3.482   2.937  0.00  0.00    -0.018 A 
ATOM     15  C   UNL     1      -3.778  -2.163   2.506  0.00  0.00    -0.012 A 
ATOM     16  C   UNL     1      -4.059  -1.172   3.462  0.00  0.00    +0.009 A 
ATOM     17  C   UNL     1      -4.053  -1.491   4.785  0.00  0.00    +0.001 A 
ATOM     18  C   UNL     1      -3.772  -2.789   5.208  0.00  0.00    +0.001 A 
ATOM     19  C   UNL     1      -3.495  -3.774   4.312  0.00  0.00    +0.008 A 
ENDBRANCH   2  10
BRANCH   5  20
ATOM     20  C   UNL     1      -1.370   2.000   0.065  0.00  0.00    +0.213 C 
BRANCH  20  21
ATOM     21  C   UNL     1      -0.039   1.294   0.091  0.00  0.00    +0.234 C 
ATOM     22  O   UNL     1       0.005   0.082   0.094  0.00  0.00    -0.274 OA
ATOM     23  N   UNL     1       1.104   2.010   0.105  0.00  0.00    -0.300 N 
ATOM     24  C   UNL     1       1.068   3.478   0.096  0.00  0.00    +0.108 C 
ATOM     25  C   UNL     1       1.897   3.993   1.281  0.00  0.00    +0.023 C 
ATOM     26  C   UNL     1       3.307   3.401   1.208  0.00  0.00    -0.005 C 
ATOM     27  C   UNL     1       4.141   3.942   2.372  0.00  0.00    +0.004 C 
ATOM     28  C   UNL     1       5.551   3.350   2.311  0.00  0.00    +0.000 C 
ATOM     29  C   UNL     1       5.466   1.826   2.413  0.00  0.00    +0.000 C 
ATOM     30  C   UNL     1       4.637   1.284   1.247  0.00  0.00    +0.005 C 
ATOM     31  C   UNL     1       3.227   1.875   1.303  0.00  0.00    +0.010 C 
ATOM     32  C   UNL     1       2.409   1.336   0.125  0.00  0.00    +0.111 C 
ENDBRANCH  20  21
ENDBRANCH   5  20
TORSDOF 3
