REMARK  Name = ZINC09433319
REMARK  13 active torsions:
REMARK  status: ('A' for Active; 'I' for Inactive)
REMARK    1  A    between atoms: C_1  and  C_2
REMARK    2  A    between atoms: C_2  and  C_3
REMARK    3  A    between atoms: C_2  and  C_4
REMARK    4  A    between atoms: C_4  and  N_5
REMARK    5  A    between atoms: C_6  and  C_35
REMARK    6  A    between atoms: C_8  and  C_18
REMARK    7  A    between atoms: N_20  and  C_21
REMARK    8  A    between atoms: C_21  and  C_22
REMARK    9  A    between atoms: C_22  and  C_23
REMARK   10  A    between atoms: C_23  and  N_77
REMARK   11  A    between atoms: C_24  and  C_25
REMARK   12  A    between atoms: C_24  and  N_77
REMARK   13  A    between atoms: C_30  and  N_77
REMARK                            x       y       z     vdW  Elec       q    Type
REMARK                         _______ _______ _______ _____ _____    ______ ____
ROOT
ATOM      1  N   UNL     1       0.615   0.696   2.519  0.00  0.00    -0.289 N 
ATOM      2  C   UNL     1       0.901   2.113   2.309  0.00  0.00    +0.129 C 
ATOM      3  C   UNL     1       0.811   2.475   0.829  0.00  0.00    +0.131 C 
ATOM      4  C   UNL     1      -0.488   1.978   0.251  0.00  0.00    -0.021 A 
ATOM      5  C   UNL     1      -1.119   2.670  -0.760  0.00  0.00    +0.005 A 
ATOM      6  C   UNL     1      -2.302   2.189  -1.293  0.00  0.00    +0.000 A 
ATOM      7  C   UNL     1      -2.859   1.015  -0.818  0.00  0.00    +0.001 A 
ATOM      8  C   UNL     1      -2.239   0.315   0.198  0.00  0.00    +0.013 A 
ATOM      9  C   UNL     1      -1.050   0.798   0.741  0.00  0.00    +0.041 A 
ATOM     10  C   UNL     1      -0.369   0.078   1.838  0.00  0.00    +0.247 C 
ATOM     11  O   UNL     1      -0.694  -1.058   2.122  0.00  0.00    -0.270 OA
ENDROOT
BRANCH   2  12
ATOM     12  C   UNL     1      -0.095   2.939   3.082  0.00  0.00    +0.011 A 
ATOM     13  C   UNL     1       0.107   4.075   3.794  0.00  0.00    +0.013 A 
ATOM     14  C   UNL     1      -0.969   4.670   4.426  0.00  0.00    +0.008 A 
ATOM     15  C   UNL     1      -2.192   4.094   4.324  0.00  0.00    +0.045 A 
ATOM     16  S   UNL     1      -1.846   2.671   3.304  0.00  0.00    -0.100 S 
ENDBRANCH   2  12
BRANCH   3  17
ATOM     17  C   UNL     1       0.884   3.973   0.675  0.00  0.00    +0.223 C 
ATOM     18  O   UNL     1      -0.113   4.647   0.823  0.00  0.00    -0.275 OA
ATOM     19  N   UNL     1       2.058   4.562   0.374  0.00  0.00    -0.315 N 
ATOM     20  H   UNL     1       2.839   4.019   0.183  0.00  0.00    +0.149 HD
BRANCH  19  21
ATOM     21  C   UNL     1       2.155   6.024   0.333  0.00  0.00    +0.102 C 
BRANCH  21  22
ATOM     22  C   UNL     1       3.584   6.430  -0.030  0.00  0.00    +0.000 C 
BRANCH  22  23
ATOM     23  C   UNL     1       3.685   7.956  -0.073  0.00  0.00    -0.076 C 
BRANCH  23  24
ATOM     24  N   UNL     1       5.100   8.336  -0.269  0.00  0.00    +0.386 N 
ATOM     25  H   UNL     1       5.669   7.891   0.460  0.00  0.00    -0.081 HD
BRANCH  24  26
ATOM     26  C   UNL     1       5.568   7.874  -1.593  0.00  0.00    -0.068 C 
ATOM     27  C   UNL     1       4.376   7.628  -2.541  0.00  0.00    -0.015 C 
ATOM     28  C   UNL     1       4.785   6.369  -3.346  0.00  0.00    -0.002 C 
ATOM     29  C   UNL     1       5.505   5.503  -2.283  0.00  0.00    -0.002 C 
ATOM     30  C   UNL     1       6.286   6.523  -1.429  0.00  0.00    -0.015 C 
ENDBRANCH  24  26
BRANCH  24  31
ATOM     31  C   UNL     1       5.248   9.803  -0.165  0.00  0.00    -0.003 C 
BRANCH  31  32
ATOM     32  C   UNL     1       6.709  10.131   0.012  0.00  0.00    +0.089 A 
ATOM     33  C   UNL     1       7.555  10.504  -0.965  0.00  0.00    +0.042 A 
ATOM     34  C   UNL     1       8.815  10.709  -0.358  0.00  0.00    +0.041 A 
ATOM     35  C   UNL     1       8.664  10.449   0.953  0.00  0.00    +0.195 A 
ATOM     36  O   UNL     1       7.384  10.104   1.172  0.00  0.00    -0.470 OA
ENDBRANCH  31  32
ENDBRANCH  24  31
ENDBRANCH  23  24
ENDBRANCH  22  23
ENDBRANCH  21  22
ENDBRANCH  19  21
ENDBRANCH   3  17
BRANCH   1  37
ATOM     37  C   UNL     1       1.411  -0.065   3.486  0.00  0.00    +0.111 C 
BRANCH  37  39
ATOM     38  C   UNL     1      -0.609  -0.687   4.819  0.00  0.00    +0.009 C 
ATOM     39  C   UNL     1       0.751   0.013   4.864  0.00  0.00    +0.000 C 
ATOM     40  C   UNL     1       1.645  -0.675   5.897  0.00  0.00    +0.009 C 
ENDBRANCH  37  39
ENDBRANCH   1  37
TORSDOF 11
