REMARK  Name = ZINC04103534
REMARK  9 active torsions:
REMARK  status: ('A' for Active; 'I' for Inactive)
REMARK    1  A    between atoms: C_1  and  N_49
REMARK    2  A    between atoms: C_8  and  C_20
REMARK    3  A    between atoms: C_10  and  C_16
REMARK    4  A    between atoms: C_10  and  C_18
REMARK    5  A    between atoms: C_12  and  C_13
REMARK    6  A    between atoms: C_24  and  O_28
REMARK    7  A    between atoms: C_25  and  O_26
REMARK    8  A    between atoms: O_26  and  C_27
REMARK    9  A    between atoms: O_28  and  C_29
REMARK                            x       y       z     vdW  Elec       q    Type
REMARK                         _______ _______ _______ _____ _____    ______ ____
ROOT
ATOM      1  C   UNL     1      -4.003  -0.733  -0.100  0.00  0.00    -0.096 C 
ATOM      2  C   UNL     1      -2.091  -1.846  -1.094  0.00  0.00    -0.051 C 
ATOM      3  C   UNL     1      -0.708  -1.574  -1.632  0.00  0.00    -0.044 C 
ATOM      4  C   UNL     1       0.073  -0.693  -1.036  0.00  0.00    -0.051 C 
ATOM      5  C   UNL     1      -0.323   0.040   0.213  0.00  0.00    +0.010 C 
ATOM      6  C   UNL     1      -1.760  -0.189   0.625  0.00  0.00    -0.070 C 
ATOM      7  C   UNL     1      -0.018   1.526   0.011  0.00  0.00    +0.068 C 
ATOM      8  C   UNL     1       1.488   1.702  -0.180  0.00  0.00    +0.188 C 
ATOM      9  C   UNL     1       2.027   0.777  -1.230  0.00  0.00    +0.065 C 
ATOM     10  C   UNL     1       1.387  -0.350  -1.635  0.00  0.00    +0.163 C 
ATOM     11  N   UNL     1       3.225   1.086  -1.811  0.00  0.00    -0.304 NA
ATOM     12  H   UNL     1       3.597   0.505  -2.493  0.00  0.00    +0.186 HD
ATOM     13  N   UNL     1      -2.592  -0.578  -0.525  0.00  0.00    +0.381 N 
ATOM     14  H   UNL     1      -2.537   0.156  -1.242  0.00  0.00    -0.082 HD
ENDROOT
BRANCH   7  15
ATOM     15  C   UNL     1      -0.744   2.028  -1.211  0.00  0.00    +0.004 A 
ATOM     16  C   UNL     1      -0.219   1.796  -2.470  0.00  0.00    +0.008 A 
ATOM     17  C   UNL     1      -0.882   2.255  -3.593  0.00  0.00    +0.004 A 
ATOM     18  C   UNL     1      -2.072   2.947  -3.462  0.00  0.00    +0.049 A 
ATOM     19  C   UNL     1      -2.603   3.182  -2.204  0.00  0.00    +0.162 A 
ATOM     20  C   UNL     1      -1.938   2.716  -1.074  0.00  0.00    +0.165 A 
BRANCH  20  21
ATOM     21  O   UNL     1      -2.458   2.939   0.163  0.00  0.00    -0.491 OA
ATOM     22  C   UNL     1      -2.065   4.144   0.823  0.00  0.00    +0.277 C 
ENDBRANCH  20  21
BRANCH  19  23
ATOM     23  O   UNL     1      -3.773   3.862  -2.075  0.00  0.00    -0.491 OA
ATOM     24  C   UNL     1      -4.403   4.305  -3.279  0.00  0.00    +0.277 C 
ENDBRANCH  19  23
ENDBRANCH   7  15
BRANCH  10  25
ATOM     25  C   UNL     1       1.975  -1.198  -2.627  0.00  0.00    +0.076 C 
ATOM     26  N   UNL     1       2.441  -1.872  -3.414  0.00  0.00    -0.196 NA
ENDBRANCH  10  25
BRANCH   8  27
ATOM     27  C   UNL     1       1.762   3.092  -0.578  0.00  0.00    +0.091 C 
ATOM     28  N   UNL     1       1.974   4.165  -0.885  0.00  0.00    -0.195 NA
ENDBRANCH   8  27
BRANCH   8  29
ATOM     29  C   UNL     1       2.168   1.427   1.096  0.00  0.00    +0.091 C 
ATOM     30  N   UNL     1       2.693   1.215   2.081  0.00  0.00    -0.195 NA
ENDBRANCH   8  29
TORSDOF 6
