REMARK  Name = ZINC11859028
REMARK  7 active torsions:
REMARK  status: ('A' for Active; 'I' for Inactive)
REMARK    1  A    between atoms: C_1  and  C_2
REMARK    2  A    between atoms: C_2  and  O_3
REMARK    3  A    between atoms: O_3  and  C_4
REMARK    4  A    between atoms: C_4  and  C_6
REMARK    5  A    between atoms: C_8  and  C_20
REMARK    6  A    between atoms: C_14  and  C_15
REMARK    7  A    between atoms: C_14  and  O_19
REMARK                            x       y       z     vdW  Elec       q    Type
REMARK                         _______ _______ _______ _____ _____    ______ ____
ROOT
ATOM      1  C   UNL     1       2.841   0.794  -1.812  0.00  0.00    +0.181 C 
ATOM      2  C   UNL     1       1.369   0.478  -1.529  0.00  0.00    +0.123 C 
ATOM      3  N   UNL     1       0.855   1.430  -0.542  0.00  0.00    -0.292 N 
ATOM      4  C   UNL     1       1.659   1.984   0.378  0.00  0.00    +0.302 C 
ATOM      5  O   UNL     1       1.179   2.760   1.181  0.00  0.00    -0.253 OA
ATOM      6  N   UNL     1       2.971   1.715   0.446  0.00  0.00    -0.264 N 
ATOM      7  C   UNL     1       3.607   0.780  -0.484  0.00  0.00    +0.246 C 
ATOM      8  H   UNL     1      -0.086   1.664  -0.554  0.00  0.00    +0.151 HD
ATOM      9  H   UNL     1       3.510   2.148   1.126  0.00  0.00    +0.153 HD
ENDROOT
BRANCH   2  10
ATOM     10  C   UNL     1       0.575   0.597  -2.804  0.00  0.00    -0.024 A 
ATOM     11  C   UNL     1       0.092   1.829  -3.206  0.00  0.00    +0.005 A 
ATOM     12  C   UNL     1      -0.642   1.939  -4.372  0.00  0.00    +0.003 A 
ATOM     13  C   UNL     1      -0.884   0.818  -5.144  0.00  0.00    +0.038 A 
ATOM     14  C   UNL     1      -0.402  -0.416  -4.743  0.00  0.00    +0.124 A 
ATOM     15  C   UNL     1       0.329  -0.525  -3.572  0.00  0.00    +0.043 A 
ATOM     16  F   UNL     1      -0.643  -1.513  -5.494  0.00  0.00    -0.205 F 
ENDBRANCH   2  10
BRANCH   7  17
ATOM     17  C   UNL     1       3.577  -0.630   0.108  0.00  0.00    +0.436 C 
ATOM     18  F   UNL     1       2.263  -0.964   0.453  0.00  0.00    -0.166 F 
ATOM     19  F   UNL     1       4.057  -1.543  -0.837  0.00  0.00    -0.166 F 
ATOM     20  F   UNL     1       4.384  -0.674   1.250  0.00  0.00    -0.166 F 
ENDBRANCH   7  17
BRANCH   1  21
ATOM     21  C   UNL     1       2.955   2.155  -2.447  0.00  0.00    +0.317 C 
ATOM     22  O   UNL     1       2.559   3.132  -1.857  0.00  0.00    -0.250 OA
BRANCH  21  23
ATOM     23  O   UNL     1       3.495   2.283  -3.670  0.00  0.00    -0.465 OA
BRANCH  23  25
ATOM     24  C   UNL     1       4.212   3.570  -5.609  0.00  0.00    +0.048 C 
ATOM     25  C   UNL     1       3.572   3.624  -4.220  0.00  0.00    +0.229 C 
ENDBRANCH  23  25
ENDBRANCH  21  23
ENDBRANCH   1  21
BRANCH   7  26
ATOM     26  O   UNL     1       4.962   1.176  -0.708  0.00  0.00    -0.364 OA
ATOM     27  H   UNL     1       5.503   1.193   0.093  0.00  0.00    +0.212 HD
ENDBRANCH   7  26
TORSDOF 6
