REMARK  Name = ZINC39637250
REMARK  5 active torsions:
REMARK  status: ('A' for Active; 'I' for Inactive)
REMARK    1  A    between atoms: C_1  and  C_2
REMARK    2  A    between atoms: C_7  and  N_12
REMARK    3  A    between atoms: C_9  and  C_11
REMARK    4  A    between atoms: C_13  and  C_15
REMARK    5  A    between atoms: C_26  and  C_28
REMARK                            x       y       z     vdW  Elec       q    Type
REMARK                         _______ _______ _______ _____ _____    ______ ____
ROOT
ATOM      1  C   UNL     1      -2.011  -4.098   2.300  0.00  0.00    +0.100 C 
ATOM      2  C   UNL     1      -3.118  -3.321   3.047  0.00  0.00    +0.121 C 
ATOM      3  N   UNL     1      -4.007  -4.371   3.596  0.00  0.00    -0.296 N 
ATOM      4  C   UNL     1      -3.082  -5.439   4.045  0.00  0.00    +0.115 C 
ATOM      5  C   UNL     1      -1.990  -5.487   2.958  0.00  0.00    -0.004 C 
ATOM      6  C   UNL     1      -0.627  -5.751   3.592  0.00  0.00    -0.010 C 
ATOM      7  C   UNL     1      -0.612  -7.161   4.189  0.00  0.00    -0.082 C 
ATOM      8  N   UNL     1      -0.882  -8.145   3.134  0.00  0.00    +0.379 N 
ATOM      9  C   UNL     1      -2.232  -7.942   2.594  0.00  0.00    -0.082 C 
ATOM     10  C   UNL     1      -2.316  -6.565   1.929  0.00  0.00    -0.010 C 
ATOM     11  C   UNL     1      -5.353  -4.359   3.670  0.00  0.00    +0.247 C 
ATOM     12  O   UNL     1      -5.981  -3.454   3.156  0.00  0.00    -0.270 OA
ATOM     13  H   UNL     1      -0.206  -8.037   2.393  0.00  0.00    -0.086 HD
ATOM     14  H   UNL     1      -0.812  -9.076   3.517  0.00  0.00    -0.086 HD
ENDROOT
BRANCH  11  15
ATOM     15  C   UNL     1      -6.064  -5.445   4.376  0.00  0.00    +0.037 A 
ATOM     16  C   UNL     1      -5.396  -6.218   5.327  0.00  0.00    +0.014 A 
ATOM     17  C   UNL     1      -6.065  -7.230   5.982  0.00  0.00    +0.016 A 
ATOM     18  C   UNL     1      -7.397  -7.480   5.699  0.00  0.00    +0.018 A 
ATOM     19  C   UNL     1      -8.066  -6.716   4.757  0.00  0.00    +0.016 A 
ATOM     20  C   UNL     1      -7.409  -5.698   4.099  0.00  0.00    +0.014 A 
ATOM     21 BR   UNL     1      -8.307  -8.870   6.602  0.00  0.00    -0.050 Br
ENDBRANCH  11  15
BRANCH   1  23
ATOM     22  N   UNL     1       0.250  -3.488   1.502  0.00  0.00    -0.312 N 
ATOM     23  C   UNL     1      -0.679  -3.414   2.475  0.00  0.00    +0.218 C 
ATOM     24  O   UNL     1      -0.445  -2.796   3.492  0.00  0.00    -0.275 OA
ATOM     25  H   UNL     1       0.062  -3.982   0.689  0.00  0.00    +0.149 HD
BRANCH  22  31
ATOM     26  C   UNL     1       2.937  -3.505  -1.851  0.00  0.00    +0.008 C 
ATOM     27  C   UNL     1       2.338  -3.816  -0.478  0.00  0.00    -0.009 C 
ATOM     28  C   UNL     1       3.285  -4.735   0.295  0.00  0.00    +0.003 C 
ATOM     29  C   UNL     1       2.687  -5.046   1.669  0.00  0.00    +0.002 C 
ATOM     30  C   UNL     1       2.492  -3.743   2.446  0.00  0.00    +0.022 C 
ATOM     31  C   UNL     1       1.544  -2.824   1.673  0.00  0.00    +0.076 C 
ATOM     32  C   UNL     1       2.143  -2.513   0.300  0.00  0.00    +0.009 C 
ATOM     33  C   UNL     1       1.196  -1.594  -0.474  0.00  0.00    +0.009 C 
ENDBRANCH  22  31
ENDBRANCH   1  23
TORSDOF 3
