REMARK  Name = ZINC39670547
REMARK  10 active torsions:
REMARK  status: ('A' for Active; 'I' for Inactive)
REMARK    1  A    between atoms: C_1  and  C_2
REMARK    2  A    between atoms: C_7  and  C_11
REMARK    3  A    between atoms: C_11  and  N_12
REMARK    4  A    between atoms: C_13  and  C_15
REMARK    5  A    between atoms: C_26  and  C_28
REMARK    6  A    between atoms: C_30  and  C_37
REMARK    7  A    between atoms: N_32  and  C_33
REMARK    8  A    between atoms: C_33  and  C_34
REMARK    9  A    between atoms: C_33  and  C_35
REMARK   10  A    between atoms: C_33  and  C_36
REMARK                            x       y       z     vdW  Elec       q    Type
REMARK                         _______ _______ _______ _____ _____    ______ ____
ROOT
ATOM      1  C   UNL     1       3.444  -7.599   3.544  0.00  0.00    +0.100 C 
ATOM      2  C   UNL     1       3.937  -7.604   2.079  0.00  0.00    +0.121 C 
ATOM      3  N   UNL     1       4.757  -8.833   1.964  0.00  0.00    -0.295 N 
ATOM      4  C   UNL     1       4.017  -9.845   2.755  0.00  0.00    +0.115 C 
ATOM      5  C   UNL     1       3.498  -9.072   3.983  0.00  0.00    -0.004 C 
ATOM      6  C   UNL     1       2.103  -9.561   4.363  0.00  0.00    -0.010 C 
ATOM      7  C   UNL     1       2.191 -11.009   4.851  0.00  0.00    -0.082 C 
ATOM      8  N   UNL     1       3.089 -11.084   6.010  0.00  0.00    +0.379 N 
ATOM      9  C   UNL     1       4.450 -10.700   5.614  0.00  0.00    -0.082 C 
ATOM     10  C   UNL     1       4.458  -9.239   5.157  0.00  0.00    -0.010 C 
ATOM     11  C   UNL     1       5.915  -8.993   1.293  0.00  0.00    +0.265 C 
ATOM     12  O   UNL     1       6.478 -10.071   1.301  0.00  0.00    -0.268 OA
ATOM     13  H   UNL     1       2.761 -10.457   6.729  0.00  0.00    -0.086 HD
ATOM     14  H   UNL     1       3.098 -12.027   6.368  0.00  0.00    -0.086 HD
ENDROOT
BRANCH  11  15
ATOM     15  C   UNL     1       6.497  -7.865   0.549  0.00  0.00    +0.124 A 
ATOM     16  C   UNL     1       5.888  -6.654   0.266  0.00  0.00    +0.057 A 
ATOM     17  C   UNL     1       6.836  -5.923  -0.453  0.00  0.00    +0.061 A 
ATOM     18  N   UNL     1       7.909  -6.663  -0.572  0.00  0.00    -0.175 NA
ATOM     19  N   UNL     1       7.748  -7.799   0.006  0.00  0.00    -0.254 N 
ATOM     20  C   UNL     1       6.656  -4.529  -0.997  0.00  0.00    +0.067 C 
BRANCH  19  21
ATOM     21  C   UNL     1       8.753  -8.864   0.069  0.00  0.00    +0.056 C 
ATOM     22  C   UNL     1       8.244 -10.091  -0.691  0.00  0.00    +0.036 C 
ATOM     23  C   UNL     1      10.055  -8.375  -0.568  0.00  0.00    +0.036 C 
ATOM     24  C   UNL     1       9.008  -9.238   1.530  0.00  0.00    +0.036 C 
ENDBRANCH  19  21
ENDBRANCH  11  15
BRANCH   1  26
ATOM     25  N   UNL     1       1.614  -6.423   4.721  0.00  0.00    -0.309 N 
ATOM     26  C   UNL     1       2.032  -7.079   3.621  0.00  0.00    +0.219 C 
ATOM     27  O   UNL     1       1.271  -7.252   2.692  0.00  0.00    -0.275 OA
ATOM     28  H   UNL     1       2.198  -6.348   5.492  0.00  0.00    +0.149 HD
BRANCH  25  29
ATOM     29  C   UNL     1       0.279  -5.822   4.753  0.00  0.00    +0.159 C 
BRANCH  29  36
ATOM     30  C   UNL     1      -1.401  -3.742  11.643  0.00  0.00    +0.045 C 
ATOM     31  C   UNL     1      -0.874  -3.707  10.232  0.00  0.00    -0.034 A 
ATOM     32  C   UNL     1      -0.238  -2.551   9.751  0.00  0.00    +0.008 A 
ATOM     33  C   UNL     1       0.237  -2.524   8.476  0.00  0.00    +0.045 A 
ATOM     34  C   UNL     1       0.083  -3.660   7.658  0.00  0.00    +0.115 A 
ATOM     35  N   UNL     1       0.438  -3.913   6.406  0.00  0.00    -0.342 N 
ATOM     36  C   UNL     1       0.060  -5.153   6.086  0.00  0.00    +0.051 A 
ATOM     37  C   UNL     1      -0.550  -5.708   7.155  0.00  0.00    +0.115 A 
ATOM     38  N   UNL     1      -0.542  -4.774   8.155  0.00  0.00    -0.308 N 
ATOM     39  C   UNL     1      -1.010  -4.790   9.438  0.00  0.00    +0.096 A 
ATOM     40  H   UNL     1       0.898  -3.296   5.816  0.00  0.00    +0.167 HD
ENDBRANCH  29  36
ENDBRANCH  25  29
ENDBRANCH   1  26
TORSDOF 5
