REMARK  Name = ZINC15080042
REMARK  8 active torsions:
REMARK  status: ('A' for Active; 'I' for Inactive)
REMARK    1  A    between atoms: C_1  and  C_2
REMARK    2  A    between atoms: C_5  and  C_8
REMARK    3  A    between atoms: C_10  and  C_19
REMARK    4  A    between atoms: C_11  and  C_18
REMARK    5  A    between atoms: C_19  and  O_21
REMARK    6  A    between atoms: O_21  and  C_22
REMARK    7  A    between atoms: C_22  and  C_23
REMARK    8  A    between atoms: C_22  and  C_24
REMARK                            x       y       z     vdW  Elec       q    Type
REMARK                         _______ _______ _______ _____ _____    ______ ____
ROOT
ATOM      1  C   UNL     1       0.156  -4.332  -0.048  0.00  0.00    +0.181 C 
ATOM      2  C   UNL     1      -1.086  -4.937   0.552  0.00  0.00    +0.082 C 
ATOM      3  C   UNL     1      -1.124  -5.460   1.788  0.00  0.00    +0.020 C 
ATOM      4  N   UNL     1      -0.020  -5.494   2.603  0.00  0.00    -0.286 N 
ATOM      5  C   UNL     1       1.209  -5.206   2.026  0.00  0.00    +0.240 A 
ATOM      6  N   UNL     1       1.307  -4.666   0.783  0.00  0.00    -0.201 N 
ATOM      7  N   UNL     1       2.672  -4.529   0.541  0.00  0.00    -0.042 NA
ATOM      8  N   UNL     1       3.279  -4.966   1.598  0.00  0.00    -0.021 NA
ATOM      9  N   UNL     1       2.421  -5.364   2.476  0.00  0.00    -0.092 NA
ATOM     10  C   UNL     1      -2.423  -6.028   2.297  0.00  0.00    +0.061 C 
ATOM     11  H   UNL     1      -0.096  -5.709   3.546  0.00  0.00    +0.155 HD
ENDROOT
BRANCH   1  16
ATOM     12  C   UNL     1      -0.434   1.411  -0.309  0.00  0.00    +0.044 C 
ATOM     13  C   UNL     1      -0.280  -0.087  -0.240  0.00  0.00    -0.050 A 
ATOM     14  C   UNL     1      -0.077  -0.814  -1.399  0.00  0.00    +0.004 A 
ATOM     15  C   UNL     1       0.064  -2.188  -1.336  0.00  0.00    +0.006 A 
ATOM     16  C   UNL     1       0.003  -2.834  -0.116  0.00  0.00    -0.018 A 
ATOM     17  C   UNL     1      -0.198  -2.107   1.042  0.00  0.00    +0.006 A 
ATOM     18  C   UNL     1      -0.335  -0.733   0.981  0.00  0.00    +0.004 A 
ENDBRANCH   1  16
BRANCH   2  19
ATOM     19  C   UNL     1      -2.267  -4.955  -0.223  0.00  0.00    +0.339 C 
ATOM     20  O   UNL     1      -2.429  -5.818  -1.065  0.00  0.00    -0.245 OA
BRANCH  19  21
ATOM     21  O   UNL     1      -3.216  -4.015  -0.029  0.00  0.00    -0.459 OA
BRANCH  21  22
ATOM     22  C   UNL     1      -4.385  -4.094  -0.847  0.00  0.00    +0.171 C 
ATOM     23  C   UNL     1      -5.435  -4.965  -0.154  0.00  0.00    +0.052 C 
ATOM     24  C   UNL     1      -4.950  -2.689  -1.065  0.00  0.00    +0.052 C 
ENDBRANCH  21  22
ENDBRANCH  19  21
ENDBRANCH   2  19
TORSDOF 4
