REMARK  Name = ZINC12592802
REMARK  7 active torsions:
REMARK  status: ('A' for Active; 'I' for Inactive)
REMARK    1  A    between atoms: C_4  and  O_29
REMARK    2  A    between atoms: C_5  and  C_7
REMARK    3  A    between atoms: C_7  and  C_9
REMARK    4  A    between atoms: C_7  and  C_22
REMARK    5  A    between atoms: C_9  and  C_10
REMARK    6  A    between atoms: C_17  and  N_59
REMARK    7  A    between atoms: C_25  and  O_28
REMARK                            x       y       z     vdW  Elec       q    Type
REMARK                         _______ _______ _______ _____ _____    ______ ____
ROOT
ATOM      1  C   UNL     1      -2.513   0.979   0.020  0.00  0.00    +0.061 C 
ENDROOT
BRANCH   1   6
ATOM      2  C   UNL     1       0.974   2.404   0.266  0.00  0.00    +0.001 A 
ATOM      3  C   UNL     1       0.713   3.744   0.484  0.00  0.00    +0.004 A 
ATOM      4  C   UNL     1      -0.591   4.193   0.556  0.00  0.00    +0.046 A 
ATOM      5  C   UNL     1      -1.641   3.297   0.410  0.00  0.00    +0.121 A 
ATOM      6  C   UNL     1      -1.376   1.954   0.185  0.00  0.00    +0.002 A 
ATOM      7  C   UNL     1      -0.070   1.509   0.119  0.00  0.00    +0.008 A 
BRANCH   5   8
ATOM      8  O   UNL     1      -2.925   3.735   0.480  0.00  0.00    -0.506 OA
ATOM      9  H   UNL     1      -3.296   4.004  -0.372  0.00  0.00    +0.292 HD
ENDBRANCH   5   8
ENDBRANCH   1   6
BRANCH   1  10
ATOM     10  C   UNL     1      -2.522   0.015   1.179  0.00  0.00    -0.039 A 
ATOM     11  C   UNL     1      -1.496  -0.900   1.323  0.00  0.00    +0.008 A 
ATOM     12  C   UNL     1      -1.499  -1.780   2.388  0.00  0.00    +0.045 A 
ATOM     13  C   UNL     1      -2.539  -1.753   3.306  0.00  0.00    +0.117 A 
ATOM     14  C   UNL     1      -3.571  -0.838   3.155  0.00  0.00    +0.045 A 
ATOM     15  C   UNL     1      -3.560   0.044   2.092  0.00  0.00    +0.008 A 
BRANCH  13  16
ATOM     16  O   UNL     1      -2.547  -2.622   4.351  0.00  0.00    -0.507 OA
ATOM     17  H   UNL     1      -2.997  -3.458   4.163  0.00  0.00    +0.292 HD
ENDBRANCH  13  16
ENDBRANCH   1  10
BRANCH   1  18
ATOM     18  C   UNL     1      -2.334   0.203  -1.287  0.00  0.00    +0.109 C 
BRANCH  18  19
ATOM     19  C   UNL     1      -2.448   1.150  -2.453  0.00  0.00    +0.216 C 
ATOM     20  O   UNL     1      -2.652   2.330  -2.259  0.00  0.00    -0.276 OA
ATOM     21  N   UNL     1      -2.322   0.687  -3.713  0.00  0.00    -0.305 N 
ATOM     22  C   UNL     1      -2.068  -0.739  -3.970  0.00  0.00    +0.089 C 
ATOM     23  C   UNL     1      -3.100  -1.235  -4.995  0.00  0.00    -0.059 C 
ATOM     24  C   UNL     1      -3.442   1.007  -5.854  0.00  0.00    -0.059 C 
ATOM     25  C   UNL     1      -2.430   1.594  -4.865  0.00  0.00    +0.089 C 
ATOM     26  N   UNL     1      -3.029  -0.372  -6.194  0.00  0.00    +0.384 N 
ATOM     27  H   UNL     1      -2.061  -0.355  -6.535  0.00  0.00    -0.081 HD
BRANCH  26  28
ATOM     28  C   UNL     1      -3.902  -0.913  -7.256  0.00  0.00    -0.068 C 
ATOM     29  C   UNL     1      -5.372  -0.977  -6.791  0.00  0.00    -0.015 C 
ATOM     30  C   UNL     1      -5.914  -2.282  -7.425  0.00  0.00    -0.002 C 
ATOM     31  C   UNL     1      -4.709  -3.247  -7.304  0.00  0.00    -0.002 C 
ATOM     32  C   UNL     1      -3.481  -2.356  -7.583  0.00  0.00    -0.015 C 
ENDBRANCH  26  28
ENDBRANCH  18  19
ENDBRANCH   1  18
TORSDOF 7
