REMARK  Name = ZINC36796561
REMARK  8 active torsions:
REMARK  status: ('A' for Active; 'I' for Inactive)
REMARK    1  A    between atoms: C_1  and  C_2
REMARK    2  A    between atoms: C_2  and  N_3
REMARK    3  A    between atoms: C_4  and  C_24
REMARK    4  A    between atoms: C_7  and  S_8
REMARK    5  A    between atoms: S_8  and  C_9
REMARK    6  A    between atoms: C_9  and  C_11
REMARK    7  A    between atoms: C_9  and  C_12
REMARK    8  A    between atoms: N_17  and  C_18
REMARK                            x       y       z     vdW  Elec       q    Type
REMARK                         _______ _______ _______ _____ _____    ______ ____
ROOT
ATOM      1  C   UNL     1      -1.495  -0.860   4.688  0.00  0.00    +0.137 C 
ATOM      2  C   UNL     1      -0.596   0.090   5.482  0.00  0.00    +0.029 C 
ENDROOT
BRANCH   1   3
ATOM      3  C   UNL     1      -2.905  -0.774   5.213  0.00  0.00    +0.233 C 
ATOM      4  O   UNL     1      -3.730  -0.106   4.627  0.00  0.00    -0.274 OA
ATOM      5  N   UNL     1      -3.249  -1.439   6.333  0.00  0.00    -0.239 N 
ATOM      6  C   UNL     1      -4.510  -1.362   6.802  0.00  0.00    +0.306 C 
ATOM      7  O   UNL     1      -5.337  -0.693   6.215  0.00  0.00    -0.252 OA
ATOM      8  N   UNL     1      -4.854  -2.028   7.923  0.00  0.00    -0.296 N 
ATOM      9  H   UNL     1      -2.589  -1.974   6.802  0.00  0.00    +0.159 HD
ATOM     10  H   UNL     1      -4.194  -2.562   8.391  0.00  0.00    +0.151 HD
BRANCH   8  11
ATOM     11  C   UNL     1      -6.225  -1.944   8.433  0.00  0.00    +0.074 C 
ATOM     12  C   UNL     1      -7.097  -2.982   7.724  0.00  0.00    +0.022 C 
ATOM     13  C   UNL     1      -8.528  -2.895   8.257  0.00  0.00    +0.002 C 
ATOM     14  C   UNL     1      -8.530  -3.169   9.762  0.00  0.00    +0.000 C 
ATOM     15  C   UNL     1      -7.658  -2.131  10.471  0.00  0.00    +0.002 C 
ATOM     16  C   UNL     1      -6.226  -2.218   9.938  0.00  0.00    +0.022 C 
ENDBRANCH   8  11
ENDBRANCH   1   3
BRANCH   1  17
ATOM     17  S   UNL     1      -1.472  -0.391   2.936  0.00  0.00    -0.074 S 
BRANCH  17  22
ATOM     18  N   UNL     1       0.714  -0.477   1.192  0.00  0.00    -0.302 N 
ATOM     19  C   UNL     1       2.039  -0.834   1.281  0.00  0.00    +0.165 A 
ATOM     20  N   UNL     1       2.251  -1.225   2.516  0.00  0.00    -0.128 NA
ATOM     21  N   UNL     1       1.165  -1.139   3.196  0.00  0.00    -0.122 NA
ATOM     22  C   UNL     1       0.193  -0.681   2.438  0.00  0.00    +0.193 A 
BRANCH  19  23
ATOM     23  C   UNL     1       3.037  -0.786   0.191  0.00  0.00    +0.019 A 
ATOM     24  C   UNL     1       2.810   0.011  -0.932  0.00  0.00    +0.013 A 
ATOM     25  C   UNL     1       3.744   0.052  -1.946  0.00  0.00    +0.021 A 
ATOM     26  C   UNL     1       4.906  -0.696  -1.851  0.00  0.00    +0.041 A 
ATOM     27  C   UNL     1       5.137  -1.488  -0.739  0.00  0.00    +0.021 A 
ATOM     28  C   UNL     1       4.213  -1.532   0.284  0.00  0.00    +0.013 A 
ATOM     29 CL   UNL     1       6.077  -0.639  -3.131  0.00  0.00    -0.084 Cl
ENDBRANCH  19  23
BRANCH  18  31
ATOM     30  C   UNL     1       0.007   1.555   0.028  0.00  0.00    +0.027 C 
ATOM     31  C   UNL     1       0.009   0.025   0.010  0.00  0.00    +0.122 C 
ENDBRANCH  18  31
ENDBRANCH  17  22
ENDBRANCH   1  17
TORSDOF 6
