REMARK  Name = ZINC25328981
REMARK  8 active torsions:
REMARK  status: ('A' for Active; 'I' for Inactive)
REMARK    1  A    between atoms: C_1  and  N_2
REMARK    2  A    between atoms: N_2  and  C_3
REMARK    3  A    between atoms: N_2  and  C_4
REMARK    4  A    between atoms: C_4  and  C_6
REMARK    5  A    between atoms: C_4  and  C_26
REMARK    6  A    between atoms: C_6  and  N_7
REMARK    7  A    between atoms: C_8  and  C_10
REMARK    8  A    between atoms: C_10  and  N_11
REMARK                            x       y       z     vdW  Elec       q    Type
REMARK                         _______ _______ _______ _____ _____    ______ ____
ROOT
ATOM      1  C   UNL     1      -2.040   5.619  -1.526  0.00  0.00    +0.213 C 
ENDROOT
BRANCH   1   2
ATOM      2  N   UNL     1      -3.046   6.154  -2.446  0.00  0.00    -0.215 N 
ATOM      3  C   UNL     1      -4.312   6.463  -2.090  0.00  0.00    +0.251 C 
ATOM      4  O   UNL     1      -4.816   6.356  -0.993  0.00  0.00    -0.272 OA
ATOM      5  C   UNL     1      -4.965   6.970  -3.350  0.00  0.00    +0.138 C 
ATOM      6  C   UNL     1      -5.464   8.410  -3.178  0.00  0.00    +0.045 C 
ATOM      7  C   UNL     1      -6.719   8.430  -4.081  0.00  0.00    +0.038 C 
ATOM      8  C   UNL     1      -7.186   6.990  -4.143  0.00  0.00    -0.042 A 
ATOM      9  C   UNL     1      -6.170   6.149  -3.721  0.00  0.00    -0.012 A 
ATOM     10  C   UNL     1      -6.378   4.780  -3.697  0.00  0.00    +0.006 A 
ATOM     11  C   UNL     1      -7.592   4.252  -4.092  0.00  0.00    +0.000 A 
ATOM     12  C   UNL     1      -8.605   5.093  -4.513  0.00  0.00    +0.000 A 
ATOM     13  C   UNL     1      -8.401   6.459  -4.537  0.00  0.00    +0.004 A 
ATOM     14  N   UNL     1      -3.917   6.887  -4.368  0.00  0.00    -0.281 N 
ATOM     15  C   UNL     1      -2.824   6.402  -3.743  0.00  0.00    +0.310 C 
ATOM     16  O   UNL     1      -1.759   6.210  -4.296  0.00  0.00    -0.252 OA
ATOM     17  H   UNL     1      -4.128   7.197  -5.402  0.00  0.00    +0.152 HD
ENDBRANCH   1   2
BRANCH   1  19
ATOM     18  N   UNL     1      -1.269   3.400  -0.751  0.00  0.00    -0.315 N 
ATOM     19  C   UNL     1      -2.107   4.113  -1.528  0.00  0.00    +0.231 C 
ATOM     20  O   UNL     1      -2.917   3.543  -2.229  0.00  0.00    -0.274 OA
ATOM     21  H   UNL     1      -0.535   3.916  -0.115  0.00  0.00    +0.149 HD
BRANCH  18  22
ATOM     22  C   UNL     1      -1.334   1.936  -0.753  0.00  0.00    +0.093 C 
BRANCH  22  23
ATOM     23  C   UNL     1      -0.181   1.373   0.080  0.00  0.00    -0.020 C 
BRANCH  23  24
ATOM     24  C   UNL     1      -0.342  -0.120   0.215  0.00  0.00    -0.052 A 
ATOM     25  C   UNL     1      -0.786  -0.673   1.401  0.00  0.00    +0.009 A 
ATOM     26  C   UNL     1      -0.919  -2.019   1.489  0.00  0.00    +0.045 A 
ATOM     27  S   UNL     1      -0.408  -2.548  -0.138  0.00  0.00    -0.105 S 
ATOM     28  C   UNL     1      -0.058  -0.939  -0.827  0.00  0.00    +0.047 A 
ENDBRANCH  23  24
BRANCH  23  30
ATOM     29  C   UNL     1       0.939   1.671  -2.046  0.00  0.00    -0.096 C 
ATOM     30  N   UNL     1       1.094   1.670  -0.585  0.00  0.00    +0.382 N 
ATOM     31  C   UNL     1       1.649   2.946  -0.114  0.00  0.00    -0.096 C 
ATOM     32  H   UNL     1       1.807   0.874  -0.322  0.00  0.00    -0.082 HD
ENDBRANCH  23  30
ENDBRANCH  22  23
ENDBRANCH  18  22
ENDBRANCH   1  19
TORSDOF 6
