REMARK  Name = ZINC61094978
REMARK  3 active torsions:
REMARK  status: ('A' for Active; 'I' for Inactive)
REMARK    1  A    between atoms: C_3  and  C_8
REMARK    2  A    between atoms: C_5  and  N_7
REMARK    3  A    between atoms: N_12  and  C_13
REMARK                            x       y       z     vdW  Elec       q    Type
REMARK                         _______ _______ _______ _____ _____    ______ ____
ROOT
ATOM      1  C   UNL     1       3.649   2.197  -0.144  0.00  0.00    +0.187 A 
ATOM      2  N   UNL     1       4.858   1.698  -0.295  0.00  0.00    -0.108 NA
ATOM      3  N   UNL     1       5.747   2.601  -0.091  0.00  0.00    -0.022 NA
ATOM      4  N   UNL     1       5.191   3.726   0.201  0.00  0.00    -0.039 NA
ATOM      5  N   UNL     1       3.801   3.514   0.174  0.00  0.00    -0.190 N 
ENDROOT
BRANCH   5   6
ATOM      6  C   UNL     1       2.790   4.454   0.423  0.00  0.00    +0.107 A 
ATOM      7  C   UNL     1       1.853   4.219   1.420  0.00  0.00    +0.072 A 
ATOM      8  C   UNL     1       0.857   5.147   1.664  0.00  0.00    +0.161 A 
ATOM      9  C   UNL     1       0.793   6.311   0.912  0.00  0.00    +0.161 A 
ATOM     10  C   UNL     1       1.726   6.546  -0.083  0.00  0.00    +0.081 A 
ATOM     11  C   UNL     1       2.728   5.624  -0.326  0.00  0.00    +0.152 A 
ATOM     12  F   UNL     1       3.642   5.857  -1.293  0.00  0.00    -0.203 F 
ATOM     13  F   UNL     1      -0.181   7.216   1.152  0.00  0.00    -0.202 F 
ATOM     14  F   UNL     1      -0.055   4.919   2.634  0.00  0.00    -0.202 F 
ENDBRANCH   5   6
BRANCH   1  17
ATOM     15  C   UNL     1      -0.007   1.492  -0.654  0.00  0.00    +0.002 A 
ATOM     16  C   UNL     1       1.185   2.174  -0.512  0.00  0.00    +0.012 A 
ATOM     17  C   UNL     1       2.370   1.469  -0.296  0.00  0.00    +0.023 A 
ATOM     18  C   UNL     1       2.345   0.077  -0.225  0.00  0.00    +0.034 A 
ATOM     19  C   UNL     1       1.143  -0.599  -0.368  0.00  0.00    +0.025 A 
ATOM     20  C   UNL     1      -0.033   0.113  -0.583  0.00  0.00    +0.023 A 
BRANCH  19  21
ATOM     21  N   UNL     1       1.112  -1.994  -0.298  0.00  0.00    -0.358 N 
ATOM     22  H   UNL     1       1.932  -2.490  -0.149  0.00  0.00    +0.142 HD
ATOM     23  H   UNL     1       0.271  -2.466  -0.399  0.00  0.00    +0.142 HD
ENDBRANCH  19  21
ENDBRANCH   1  17
TORSDOF 3
