REMARK  Name = ZINC31812070
REMARK  3 active torsions:
REMARK  status: ('A' for Active; 'I' for Inactive)
REMARK    1  A    between atoms: C_1  and  C_2
REMARK    2  A    between atoms: C_18  and  O_31
REMARK    3  A    between atoms: C_21  and  C_23
REMARK                            x       y       z     vdW  Elec       q    Type
REMARK                         _______ _______ _______ _____ _____    ______ ____
ROOT
ATOM      1  C   UNL     1       0.467   1.747  -0.271  0.00  0.00    +0.068 C 
ATOM      2  C   UNL     1       0.522   0.247  -0.138  0.00  0.00    +0.067 A 
ATOM      3  C   UNL     1       0.210  -0.676  -1.154  0.00  0.00    +0.037 A 
ATOM      4  C   UNL     1       0.380  -1.933  -0.642  0.00  0.00    +0.166 A 
ATOM      5  N   UNL     1       0.798  -1.773   0.667  0.00  0.00    -0.194 N 
ATOM      6  N   UNL     1       0.873  -0.406   0.934  0.00  0.00    -0.168 NA
ATOM      7  C   UNL     1       1.097  -2.797   1.562  0.00  0.00    +0.187 A 
ATOM      8  C   UNL     1       1.509  -2.509   2.872  0.00  0.00    +0.152 A 
ATOM      9  C   UNL     1       1.796  -3.587   3.730  0.00  0.00    +0.163 A 
ATOM     10  N   UNL     1       2.168  -3.028   4.927  0.00  0.00    -0.329 N 
ATOM     11  H   UNL     1       2.429  -3.508   5.728  0.00  0.00    +0.168 HD
ATOM     12  C   UNL     1       2.103  -1.674   4.783  0.00  0.00    +0.198 A 
ATOM     13  N   UNL     1       1.716  -1.372   3.578  0.00  0.00    -0.231 NA
ATOM     14  N   UNL     1       1.669  -4.827   3.272  0.00  0.00    -0.216 NA
ATOM     15  C   UNL     1       1.280  -5.048   2.035  0.00  0.00    +0.226 A 
ATOM     16  N   UNL     1       0.994  -4.070   1.196  0.00  0.00    -0.214 NA
ATOM     17  N   UNL     1       0.205  -3.152  -1.177  0.00  0.00    -0.197 NA
ATOM     18  C   UNL     1      -0.153  -3.616  -2.284  0.00  0.00    +0.199 C 
ATOM     19  C   UNL     1      -0.496  -2.916  -3.540  0.00  0.00    +0.165 C 
ATOM     20  S   UNL     1      -1.397  -1.383  -3.270  0.00  0.00    -0.138 S 
ATOM     21  C   UNL     1      -0.220  -0.248  -2.525  0.00  0.00    +0.112 C 
ENDROOT
BRANCH  21  22
ATOM     22  C   UNL     1      -0.853   1.117  -2.432  0.00  0.00    -0.028 A 
ATOM     23  C   UNL     1      -2.065   1.274  -1.786  0.00  0.00    +0.006 A 
ATOM     24  C   UNL     1      -2.646   2.525  -1.701  0.00  0.00    +0.022 A 
ATOM     25  C   UNL     1      -2.015   3.621  -2.262  0.00  0.00    +0.059 A 
ATOM     26  C   UNL     1      -0.801   3.463  -2.908  0.00  0.00    +0.060 A 
ATOM     27  C   UNL     1      -0.218   2.211  -2.988  0.00  0.00    +0.026 A 
ATOM     28 CL   UNL     1      -0.008   4.837  -3.613  0.00  0.00    -0.082 Cl
ATOM     29 CL   UNL     1      -2.745   5.192  -2.156  0.00  0.00    -0.082 Cl
ENDBRANCH  21  22
BRANCH  18  30
ATOM     30  O   UNL     1      -0.239  -4.961  -2.339  0.00  0.00    -0.495 OA
ATOM     31  H   UNL     1      -0.011  -5.404  -1.510  0.00  0.00    +0.293 HD
ENDBRANCH  18  30
TORSDOF 2
