REMARK  Name = ZINC59335086
REMARK  5 active torsions:
REMARK  status: ('A' for Active; 'I' for Inactive)
REMARK    1  A    between atoms: C_5  and  C_7
REMARK    2  A    between atoms: C_7  and  C_8
REMARK    3  A    between atoms: C_14  and  N_18
REMARK    4  A    between atoms: C_19  and  C_21
REMARK    5  A    between atoms: C_27  and  C_29
REMARK                            x       y       z     vdW  Elec       q    Type
REMARK                         _______ _______ _______ _____ _____    ______ ____
ROOT
ATOM      1  C   UNL     1       1.699  -3.694   1.190  0.00  0.00    +0.113 A 
ATOM      2  N   UNL     1       0.578  -3.740   1.959  0.00  0.00    -0.342 N 
ATOM      3  H   UNL     1      -0.338  -3.756   1.640  0.00  0.00    +0.167 HD
ATOM      4  C   UNL     1       0.986  -3.758   3.280  0.00  0.00    +0.066 A 
ATOM      5  C   UNL     1       0.317  -3.801   4.495  0.00  0.00    +0.029 A 
ATOM      6  C   UNL     1       1.030  -3.809   5.673  0.00  0.00    +0.025 A 
ATOM      7  C   UNL     1       2.423  -3.772   5.654  0.00  0.00    +0.036 A 
ATOM      8  C   UNL     1       3.104  -3.728   4.452  0.00  0.00    +0.053 A 
ATOM      9  C   UNL     1       2.390  -3.721   3.251  0.00  0.00    +0.091 A 
ATOM     10  N   UNL     1       2.759  -3.689   1.945  0.00  0.00    -0.232 NA
ENDROOT
BRANCH   7  11
ATOM     11  N   UNL     1       3.137  -3.780   6.859  0.00  0.00    -0.285 N 
ATOM     12  C   UNL     1       2.660  -4.459   7.921  0.00  0.00    +0.220 C 
ATOM     13  O   UNL     1       1.664  -5.141   7.806  0.00  0.00    -0.275 OA
ATOM     14  H   UNL     1       3.975  -3.296   6.930  0.00  0.00    +0.155 HD
BRANCH  12  15
ATOM     15  C   UNL     1       3.364  -4.371   9.250  0.00  0.00    +0.078 C 
ATOM     16  C   UNL     1       4.801  -4.877   9.101  0.00  0.00    +0.032 C 
ATOM     17  C   UNL     1       5.524  -4.754  10.446  0.00  0.00    +0.108 C 
ATOM     18  N   UNL     1       4.740  -5.457  11.471  0.00  0.00    -0.301 N 
ATOM     19  C   UNL     1       3.321  -5.110  11.636  0.00  0.00    +0.108 C 
ATOM     20  C   UNL     1       2.623  -5.230  10.278  0.00  0.00    +0.032 C 
ATOM     21  C   UNL     1       5.310  -6.402  12.244  0.00  0.00    +0.219 C 
ATOM     22  O   UNL     1       6.482  -6.679  12.097  0.00  0.00    -0.275 OA
BRANCH  21  23
ATOM     23  C   UNL     1       4.493  -7.114  13.290  0.00  0.00    +0.075 C 
ATOM     24  C   UNL     1       4.821  -6.830  14.758  0.00  0.00    +0.013 C 
ATOM     25  C   UNL     1       5.198  -8.176  14.136  0.00  0.00    +0.013 C 
ENDBRANCH  21  23
ENDBRANCH  12  15
ENDBRANCH   7  11
BRANCH   1  26
ATOM     26  C   UNL     1       1.711  -3.661  -0.316  0.00  0.00    +0.112 C 
BRANCH  26  31
ATOM     27  C   UNL     1       2.590  -0.195  -1.526  0.00  0.00    +0.000 A 
ATOM     28  C   UNL     1       3.964  -0.284  -1.649  0.00  0.00    +0.003 A 
ATOM     29  C   UNL     1       4.611  -1.466  -1.341  0.00  0.00    +0.038 A 
ATOM     30  C   UNL     1       3.882  -2.561  -0.909  0.00  0.00    +0.127 A 
ATOM     31  C   UNL     1       2.506  -2.470  -0.786  0.00  0.00    -0.005 A 
ATOM     32  C   UNL     1       1.861  -1.287  -1.095  0.00  0.00    +0.007 A 
ATOM     33  F   UNL     1       4.513  -3.717  -0.608  0.00  0.00    -0.205 F 
ENDBRANCH  26  31
ENDBRANCH   1  26
TORSDOF 5
