REMARK  Name = ZINC14775907
REMARK  4 active torsions:
REMARK  status: ('A' for Active; 'I' for Inactive)
REMARK    1  A    between atoms: N_9  and  C_10
REMARK    2  A    between atoms: C_10  and  C_11
REMARK    3  A    between atoms: N_13  and  N_14
REMARK    4  A    between atoms: C_15  and  C_17
REMARK                            x       y       z     vdW  Elec       q    Type
REMARK                         _______ _______ _______ _____ _____    ______ ____
ROOT
ATOM      1  C   UNL     1       5.916   3.130  -0.038  0.00  0.00    +0.249 C 
ATOM      2  O   UNL     1       5.718   4.326  -0.029  0.00  0.00    -0.272 OA
ATOM      3  N   UNL     1       4.874   2.275  -0.032  0.00  0.00    -0.233 N 
ATOM      4  H   UNL     1       5.032   1.317  -0.039  0.00  0.00    +0.173 HD
ENDROOT
BRANCH   3   5
ATOM      5  N   UNL     1       3.563   2.768  -0.017  0.00  0.00    -0.230 N 
ATOM      6  C   UNL     1       2.521   1.913  -0.012  0.00  0.00    +0.268 C 
ATOM      7  O   UNL     1       2.720   0.712  -0.020  0.00  0.00    -0.268 OA
ATOM      8  H   UNL     1       3.405   3.725  -0.010  0.00  0.00    +0.173 HD
BRANCH   6   9
ATOM      9  C   UNL     1       1.147   2.429   0.004  0.00  0.00    +0.095 A 
ATOM     10  C   UNL     1      -0.021   1.732   0.012  0.00  0.00    +0.068 A 
ATOM     11  C   UNL     1      -1.249   2.420   0.021  0.00  0.00    +0.008 A 
ATOM     12  C   UNL     1      -2.560   1.878   0.024  0.00  0.00    +0.010 A 
ATOM     13  C   UNL     1      -3.648   2.690   0.033  0.00  0.00    +0.001 A 
ATOM     14  C   UNL     1      -3.524   4.075   0.040  0.00  0.00    +0.001 A 
ATOM     15  C   UNL     1      -2.267   4.644   0.049  0.00  0.00    +0.016 A 
ATOM     16  C   UNL     1      -1.153   3.832   0.034  0.00  0.00    +0.021 A 
ATOM     17  S   UNL     1       0.598   4.127   0.019  0.00  0.00    -0.082 S 
ATOM     18 CL   UNL     1       0.002  -0.004   0.002  0.00  0.00    -0.082 Cl
ENDBRANCH   6   9
ENDBRANCH   3   5
BRANCH   1  19
ATOM     19  C   UNL     1       7.326   2.599  -0.054  0.00  0.00    +0.219 C 
BRANCH  19  28
ATOM     20  C   UNL     1       9.950   6.066   2.895  0.00  0.00    +0.001 A 
ATOM     21  C   UNL     1       9.075   5.078   3.328  0.00  0.00    +0.002 A 
ATOM     22  C   UNL     1       8.459   4.240   2.425  0.00  0.00    +0.026 A 
ATOM     23  C   UNL     1       8.710   4.386   1.065  0.00  0.00    +0.049 A 
ATOM     24  C   UNL     1       9.601   5.384   0.631  0.00  0.00    -0.000 A 
ATOM     25  C   UNL     1      10.214   6.223   1.564  0.00  0.00    +0.010 A 
ATOM     26  C   UNL     1       9.654   5.274  -0.829  0.00  0.00    +0.027 A 
ATOM     27  C   UNL     1       8.839   4.265  -1.175  0.00  0.00    +0.087 A 
ATOM     28  N   UNL     1       8.269   3.720  -0.057  0.00  0.00    -0.338 N 
ENDBRANCH  19  28
ENDBRANCH   1  19
TORSDOF 4
