REMARK  Name = ZINC13501000
REMARK  14 active torsions:
REMARK  status: ('A' for Active; 'I' for Inactive)
REMARK    1  A    between atoms: C_1  and  C_2
REMARK    2  A    between atoms: C_2  and  C_3
REMARK    3  A    between atoms: C_3  and  C_4
REMARK    4  A    between atoms: C_4  and  C_6
REMARK    5  A    between atoms: C_4  and  N_76
REMARK    6  A    between atoms: N_10  and  C_11
REMARK    7  A    between atoms: C_11  and  C_12
REMARK    8  A    between atoms: C_18  and  C_19
REMARK    9  A    between atoms: C_18  and  N_76
REMARK   10  A    between atoms: C_19  and  C_20
REMARK   11  A    between atoms: C_24  and  C_26
REMARK   12  A    between atoms: C_27  and  C_28
REMARK   13  A    between atoms: C_27  and  N_76
REMARK   14  A    between atoms: C_32  and  C_40
REMARK                            x       y       z     vdW  Elec       q    Type
REMARK                         _______ _______ _______ _____ _____    ______ ____
ROOT
ATOM      1  N   UNL     1      -0.463   7.608  -0.750  0.00  0.00    +0.389 N 
ATOM      2  H   UNL     1       0.364   7.729  -0.153  0.00  0.00    -0.080 HD
ENDROOT
BRANCH   1   3
ATOM      3  C   UNL     1      -0.089   7.893  -2.151  0.00  0.00    +0.003 C 
BRANCH   3   4
ATOM      4  C   UNL     1      -1.309   7.884  -3.036  0.00  0.00    +0.138 A 
ATOM      5  N   UNL     1      -2.473   8.424  -2.769  0.00  0.00    -0.115 NA
ATOM      6  N   UNL     1      -3.253   8.204  -3.770  0.00  0.00    -0.023 NA
ATOM      7  N   UNL     1      -2.617   7.537  -4.669  0.00  0.00    -0.044 NA
ATOM      8  N   UNL     1      -1.413   7.325  -4.255  0.00  0.00    -0.228 N 
BRANCH   8   9
ATOM      9  C   UNL     1      -0.359   6.607  -4.977  0.00  0.00    +0.178 C 
BRANCH   9  10
ATOM     10  C   UNL     1      -0.498   5.105  -4.721  0.00  0.00    +0.140 C 
ATOM     11  C   UNL     1       0.656   4.347  -5.411  0.00  0.00    +0.035 C 
ATOM     12  C   UNL     1      -0.059   3.079  -5.952  0.00  0.00    +0.031 C 
ATOM     13  C   UNL     1      -1.454   3.655  -6.304  0.00  0.00    +0.160 C 
ATOM     14  O   UNL     1      -1.726   4.628  -5.282  0.00  0.00    -0.375 OA
ENDBRANCH   9  10
ENDBRANCH   8   9
ENDBRANCH   3   4
BRANCH   3  15
ATOM     15  C   UNL     1       0.577   9.269  -2.215  0.00  0.00    -0.008 C 
BRANCH  15  17
ATOM     16  C   UNL     1       2.475  10.652  -1.364  0.00  0.00    +0.004 C 
ATOM     17  C   UNL     1       1.872   9.247  -1.400  0.00  0.00    -0.005 C 
ENDBRANCH  15  17
ENDBRANCH   3  15
ENDBRANCH   1   3
BRANCH   1  18
ATOM     18  C   UNL     1      -0.943   6.215  -0.628  0.00  0.00    -0.073 C 
BRANCH  18  19
ATOM     19  C   UNL     1       0.247   5.268  -0.789  0.00  0.00    +0.016 C 
BRANCH  19  20
ATOM     20  C   UNL     1      -0.194   3.855  -0.507  0.00  0.00    -0.049 A 
ATOM     21  C   UNL     1      -0.230   3.389   0.794  0.00  0.00    +0.003 A 
ATOM     22  C   UNL     1      -0.639   2.094   1.054  0.00  0.00    +0.001 A 
ATOM     23  C   UNL     1      -1.002   1.262   0.011  0.00  0.00    +0.003 A 
ATOM     24  C   UNL     1      -0.966   1.728  -1.290  0.00  0.00    -0.050 A 
ATOM     25  C   UNL     1      -0.562   3.025  -1.549  0.00  0.00    +0.007 A 
ATOM     26  C   UNL     1      -1.368   0.823  -2.426  0.00  0.00    +0.044 C 
ENDBRANCH  19  20
ENDBRANCH  18  19
ENDBRANCH   1  18
BRANCH   1  27
ATOM     27  C   UNL     1      -1.516   8.546  -0.307  0.00  0.00    -0.037 C 
BRANCH  27  28
ATOM     28  C   UNL     1      -1.539   8.569   1.200  0.00  0.00    +0.001 A 
ATOM     29  C   UNL     1      -0.810   9.493   1.873  0.00  0.00    +0.017 A 
ATOM     30  C   UNL     1      -0.855   9.489   3.336  0.00  0.00    -0.001 A 
ATOM     31  C   UNL     1      -0.125  10.417   4.085  0.00  0.00    +0.013 A 
ATOM     32  C   UNL     1      -0.188  10.387   5.449  0.00  0.00    -0.050 A 
ATOM     33  C   UNL     1      -0.971   9.442   6.099  0.00  0.00    +0.005 A 
ATOM     34  C   UNL     1      -1.698   8.517   5.382  0.00  0.00    +0.026 A 
ATOM     35  C   UNL     1      -1.650   8.529   3.991  0.00  0.00    +0.049 A 
ATOM     36  N   UNL     1      -2.367   7.616   3.249  0.00  0.00    -0.322 N 
ATOM     37  H   UNL     1      -2.914   6.955   3.702  0.00  0.00    +0.169 HD
ATOM     38  C   UNL     1      -2.324   7.631   1.905  0.00  0.00    +0.251 A 
ATOM     39  O   UNL     1      -2.975   6.812   1.280  0.00  0.00    -0.268 OA
ATOM     40  C   UNL     1       0.599  11.387   6.256  0.00  0.00    +0.044 C 
ENDBRANCH  27  28
ENDBRANCH   1  27
TORSDOF 11
