REMARK  Name = ZINC00580646
REMARK  6 active torsions:
REMARK  status: ('A' for Active; 'I' for Inactive)
REMARK    1  A    between atoms: C_3  and  C_8
REMARK    2  A    between atoms: C_5  and  O_7
REMARK    3  A    between atoms: N_9  and  N_10
REMARK    4  A    between atoms: C_11  and  C_13
REMARK    5  A    between atoms: C_13  and  N_14
REMARK    6  A    between atoms: N_14  and  C_15
REMARK                            x       y       z     vdW  Elec       q    Type
REMARK                         _______ _______ _______ _____ _____    ______ ____
ROOT
ATOM      1  N   UNL     1       4.838   4.181  -0.023  0.00  0.00    -0.206 N 
ATOM      2  C   UNL     1       4.819   5.529  -0.016  0.00  0.00    +0.249 C 
ATOM      3  O   UNL     1       3.760   6.120  -0.003  0.00  0.00    -0.272 OA
ATOM      4  H   UNL     1       5.685   3.709  -0.034  0.00  0.00    +0.177 HD
ENDROOT
BRANCH   1   6
ATOM      5  C   UNL     1       3.654   2.166  -0.022  0.00  0.00    +0.138 C 
ATOM      6  N   UNL     1       3.635   3.464  -0.015  0.00  0.00    -0.188 NA
BRANCH   5   9
ATOM      7  C   UNL     1      -0.017   1.378   0.010  0.00  0.00    +0.004 A 
ATOM      8  C   UNL     1       1.166   2.089   0.002  0.00  0.00    +0.010 A 
ATOM      9  C   UNL     1       2.387   1.411  -0.013  0.00  0.00    -0.002 A 
ATOM     10  C   UNL     1       2.404   0.015  -0.021  0.00  0.00    +0.054 A 
ATOM     11  C   UNL     1       1.211  -0.688  -0.013  0.00  0.00    +0.117 A 
ATOM     12  C   UNL     1       0.002  -0.004   0.002  0.00  0.00    +0.045 A 
BRANCH  11  13
ATOM     13  O   UNL     1       1.223  -2.046  -0.021  0.00  0.00    -0.507 OA
ATOM     14  H   UNL     1       1.235  -2.445   0.860  0.00  0.00    +0.292 HD
ENDBRANCH  11  13
ENDBRANCH   5   9
ENDBRANCH   1   6
BRANCH   2  15
ATOM     15  C   UNL     1       6.113   6.301  -0.025  0.00  0.00    +0.199 C 
BRANCH  15  16
ATOM     16  N   UNL     1       5.825   7.737  -0.015  0.00  0.00    -0.335 N 
ATOM     17  H   UNL     1       4.906   8.048  -0.004  0.00  0.00    +0.147 HD
BRANCH  16  18
ATOM     18  C   UNL     1       6.874   8.661  -0.020  0.00  0.00    +0.028 A 
ATOM     19  C   UNL     1       8.190   8.218  -0.041  0.00  0.00    +0.024 A 
ATOM     20  C   UNL     1       9.225   9.133  -0.047  0.00  0.00    +0.017 A 
ATOM     21  C   UNL     1       8.951  10.489  -0.031  0.00  0.00    +0.018 A 
ATOM     22  C   UNL     1       7.641  10.933  -0.010  0.00  0.00    +0.017 A 
ATOM     23  C   UNL     1       6.602  10.023  -0.011  0.00  0.00    +0.024 A 
ATOM     24 BR   UNL     1      10.371  11.738  -0.037  0.00  0.00    -0.050 Br
ENDBRANCH  16  18
ENDBRANCH  15  16
ENDBRANCH   2  15
TORSDOF 6
