REMARK  Name = ZINC44430069
REMARK  5 active torsions:
REMARK  status: ('A' for Active; 'I' for Inactive)
REMARK    1  A    between atoms: C_1  and  C_2
REMARK    2  A    between atoms: C_7  and  C_8
REMARK    3  A    between atoms: C_8  and  N_9
REMARK    4  A    between atoms: C_11  and  C_16
REMARK    5  A    between atoms: C_18  and  C_21
REMARK                            x       y       z     vdW  Elec       q    Type
REMARK                         _______ _______ _______ _____ _____    ______ ____
ROOT
ATOM      1  C   UNL     1      -4.279   2.619   2.542  0.00  0.00    +0.177 A 
ATOM      2  N   UNL     1      -4.838   3.791   2.846  0.00  0.00    -0.190 NA
ATOM      3  C   UNL     1      -5.786   4.075   1.978  0.00  0.00    +0.279 A 
ATOM      4  O   UNL     1      -5.849   3.068   1.089  0.00  0.00    -0.331 OA
ATOM      5  N   UNL     1      -4.852   2.134   1.477  0.00  0.00    -0.060 NA
ENDROOT
BRANCH   3   6
ATOM      6  C   UNL     1      -6.630   5.284   1.981  0.00  0.00    +0.157 A 
ATOM      7  C   UNL     1      -7.693   5.603   1.020  0.00  0.00    +0.032 A 
ATOM      8  C   UNL     1      -8.214   4.951  -0.101  0.00  0.00    +0.012 A 
ATOM      9  C   UNL     1      -9.232   5.528  -0.805  0.00  0.00    +0.001 A 
ATOM     10  C   UNL     1      -9.753   6.755  -0.417  0.00  0.00    +0.002 A 
ATOM     11  C   UNL     1      -9.259   7.410   0.675  0.00  0.00    +0.028 A 
ATOM     12  C   UNL     1      -8.221   6.845   1.412  0.00  0.00    +0.067 A 
ATOM     13  N   UNL     1      -7.526   7.242   2.527  0.00  0.00    -0.276 N 
ATOM     14  H   UNL     1      -7.675   8.065   3.018  0.00  0.00    +0.189 HD
ATOM     15  N   UNL     1      -6.574   6.269   2.848  0.00  0.00    -0.168 NA
ENDBRANCH   3   6
BRANCH   1  18
ATOM     16  N   UNL     1      -1.338   0.477   2.823  0.00  0.00    -0.296 N 
ATOM     17  C   UNL     1      -1.920   1.758   2.405  0.00  0.00    +0.120 C 
ATOM     18  C   UNL     1      -3.158   1.962   3.306  0.00  0.00    +0.086 C 
ATOM     19  C   UNL     1      -3.520   0.505   3.679  0.00  0.00    +0.109 C 
ATOM     20  C   UNL     1      -2.219  -0.252   3.530  0.00  0.00    +0.217 C 
ATOM     21  O   UNL     1      -2.001  -1.355   3.985  0.00  0.00    -0.276 OA
BRANCH  16  22
ATOM     22  C   UNL     1       0.025   0.045   2.504  0.00  0.00    +0.143 C 
BRANCH  22  29
ATOM     23  C   UNL     1      -0.018   1.503   0.010  0.00  0.00    +0.044 C 
ATOM     24  C   UNL     1       0.002  -0.004   0.002  0.00  0.00    -0.046 A 
ATOM     25  C   UNL     1       0.006  -0.689  -1.199  0.00  0.00    +0.003 A 
ATOM     26  C   UNL     1       0.025  -2.071  -1.207  0.00  0.00    +0.000 A 
ATOM     27  C   UNL     1       0.040  -2.768  -0.013  0.00  0.00    +0.000 A 
ATOM     28  C   UNL     1       0.037  -2.084   1.188  0.00  0.00    +0.005 A 
ATOM     29  C   UNL     1       0.023  -0.702   1.195  0.00  0.00    -0.027 A 
ENDBRANCH  22  29
ENDBRANCH  16  22
ENDBRANCH   1  18
TORSDOF 4
