REMARK  Name = ZINC41207505
REMARK  9 active torsions:
REMARK  status: ('A' for Active; 'I' for Inactive)
REMARK    1  A    between atoms: C_3  and  C_9
REMARK    2  A    between atoms: C_12  and  C_14
REMARK    3  A    between atoms: C_14  and  N_15
REMARK    4  A    between atoms: N_15  and  C_16
REMARK    5  A    between atoms: C_16  and  C_17
REMARK    6  A    between atoms: C_17  and  N_18
REMARK    7  A    between atoms: N_18  and  C_19
REMARK    8  A    between atoms: C_19  and  C_20
REMARK    9  A    between atoms: C_20  and  O_21
REMARK                            x       y       z     vdW  Elec       q    Type
REMARK                         _______ _______ _______ _____ _____    ______ ____
ROOT
ATOM      1  C   UNL     1       3.656   2.162  -0.022  0.00  0.00    +0.136 A 
ATOM      2  C   UNL     1       4.713   1.953   0.807  0.00  0.00    +0.050 A 
ATOM      3  C   UNL     1       5.702   2.891   0.448  0.00  0.00    +0.043 A 
ATOM      4  C   UNL     1       5.205   3.619  -0.570  0.00  0.00    +0.089 A 
ATOM      5  O   UNL     1       3.970   3.172  -0.856  0.00  0.00    -0.462 OA
ENDROOT
BRANCH   1   8
ATOM      6  C   UNL     1      -0.017   1.380   0.010  0.00  0.00    +0.016 A 
ATOM      7  C   UNL     1       1.167   2.089   0.002  0.00  0.00    +0.014 A 
ATOM      8  C   UNL     1       2.385   1.409  -0.013  0.00  0.00    +0.031 A 
ATOM      9  C   UNL     1       2.398   0.012  -0.021  0.00  0.00    +0.030 A 
ATOM     10  C   UNL     1       1.207  -0.686  -0.013  0.00  0.00    +0.031 A 
ATOM     11  C   UNL     1       0.002  -0.004   0.002  0.00  0.00    +0.019 A 
ATOM     12 BR   UNL     1      -1.625  -0.968   0.013  0.00  0.00    -0.050 Br
ATOM     13 BR   UNL     1       4.043  -0.921  -0.042  0.00  0.00    -0.050 Br
ENDBRANCH   1   8
BRANCH   4  14
ATOM     14  C   UNL     1       5.917   4.744  -1.276  0.00  0.00    -0.007 C 
BRANCH  14  15
ATOM     15  N   UNL     1       6.678   4.205  -2.411  0.00  0.00    +0.383 N 
ATOM     16  H   UNL     1       7.355   3.537  -2.075  0.00  0.00    -0.085 HD
ATOM     17  H   UNL     1       6.048   3.750  -3.054  0.00  0.00    -0.085 HD
BRANCH  15  18
ATOM     18  C   UNL     1       7.373   5.301  -3.100  0.00  0.00    -0.102 C 
BRANCH  18  19
ATOM     19  C   UNL     1       8.166   4.740  -4.282  0.00  0.00    -0.102 C 
BRANCH  19  20
ATOM     20  N   UNL     1       8.860   5.836  -4.970  0.00  0.00    +0.379 N 
ATOM     21  H   UNL     1       8.183   6.505  -5.306  0.00  0.00    -0.086 HD
ATOM     22  H   UNL     1       9.491   6.291  -4.327  0.00  0.00    -0.086 HD
BRANCH  20  23
ATOM     23  C   UNL     1       9.622   5.298  -6.105  0.00  0.00    -0.055 C 
BRANCH  23  24
ATOM     24  C   UNL     1      10.345   6.439  -6.822  0.00  0.00    +0.137 C 
BRANCH  24  25
ATOM     25  O   UNL     1      11.321   7.008  -5.947  0.00  0.00    -0.397 OA
ATOM     26  H   UNL     1      11.820   7.740  -6.337  0.00  0.00    +0.209 HD
ENDBRANCH  24  25
ENDBRANCH  23  24
ENDBRANCH  20  23
ENDBRANCH  19  20
ENDBRANCH  18  19
ENDBRANCH  15  18
ENDBRANCH  14  15
ENDBRANCH   4  14
TORSDOF 9
