REMARK  Name = ZINC24668987
REMARK  13 active torsions:
REMARK  status: ('A' for Active; 'I' for Inactive)
REMARK    1  A    between atoms: C_1  and  C_2
REMARK    2  A    between atoms: C_2  and  C_3
REMARK    3  A    between atoms: C_2  and  C_4
REMARK    4  A    between atoms: C_4  and  N_5
REMARK    5  A    between atoms: C_6  and  N_35
REMARK    6  A    between atoms: C_7  and  N_14
REMARK    7  A    between atoms: N_14  and  C_15
REMARK    8  A    between atoms: C_15  and  C_16
REMARK    9  A    between atoms: C_16  and  C_17
REMARK   10  A    between atoms: C_16  and  C_18
REMARK   11  A    between atoms: C_19  and  C_21
REMARK   12  A    between atoms: C_21  and  N_22
REMARK   13  A    between atoms: C_28  and  C_30
REMARK                            x       y       z     vdW  Elec       q    Type
REMARK                         _______ _______ _______ _____ _____    ______ ____
ROOT
ATOM      1  N   UNL     1      -1.044  -4.821  -2.829  0.00  0.00    -0.263 N 
ATOM      2  C   UNL     1      -1.112  -4.166  -4.008  0.00  0.00    +0.234 C 
ATOM      3  O   UNL     1      -1.293  -2.967  -4.026  0.00  0.00    -0.274 OA
ENDROOT
BRANCH   1   6
ATOM      4  N   UNL     1      -0.071  -3.422   0.426  0.00  0.00    -0.280 N 
ATOM      5  C   UNL     1      -0.009  -4.138  -0.747  0.00  0.00    +0.127 A 
ATOM      6  C   UNL     1      -1.078  -4.098  -1.618  0.00  0.00    +0.140 A 
ATOM      7  C   UNL     1      -2.203  -3.323  -1.278  0.00  0.00    +0.277 A 
ATOM      8  O   UNL     1      -3.162  -3.270  -2.030  0.00  0.00    -0.266 OA
ATOM      9  N   UNL     1      -2.213  -2.640  -0.116  0.00  0.00    -0.273 N 
ATOM     10  H   UNL     1      -2.987  -2.106   0.119  0.00  0.00    +0.173 HD
ATOM     11  C   UNL     1      -1.164  -2.696   0.723  0.00  0.00    +0.331 A 
ATOM     12  O   UNL     1      -1.201  -2.074   1.767  0.00  0.00    -0.246 OA
BRANCH   5  13
ATOM     13  N   UNL     1       1.106  -4.884  -1.048  0.00  0.00    -0.343 N 
ATOM     14  H   UNL     1       1.880  -4.857  -0.464  0.00  0.00    +0.144 HD
ATOM     15  H   UNL     1       1.118  -5.438  -1.844  0.00  0.00    +0.144 HD
ENDBRANCH   5  13
BRANCH   4  16
ATOM     16  C   UNL     1       1.057  -3.456   1.360  0.00  0.00    +0.131 C 
BRANCH  16  18
ATOM     17  C   UNL     1       2.105  -4.724   3.241  0.00  0.00    +0.009 C 
ATOM     18  C   UNL     1       0.869  -4.611   2.345  0.00  0.00    +0.003 C 
ATOM     19  C   UNL     1      -0.365  -4.348   3.210  0.00  0.00    +0.009 C 
ENDBRANCH  16  18
ENDBRANCH   4  16
ENDBRANCH   1   6
BRANCH   1  20
ATOM     20  C   UNL     1      -0.935  -6.281  -2.808  0.00  0.00    +0.117 C 
BRANCH  20  21
ATOM     21  C   UNL     1      -2.331  -6.899  -2.917  0.00  0.00    +0.001 C 
ATOM     22  C   UNL     1      -2.207  -8.418  -3.051  0.00  0.00    +0.009 C 
ATOM     23  C   UNL     1      -3.137  -6.562  -1.661  0.00  0.00    +0.009 C 
ENDBRANCH  20  21
ENDBRANCH   1  20
BRANCH   2  24
ATOM     24  C   UNL     1      -0.964  -4.926  -5.301  0.00  0.00    +0.181 C 
BRANCH  24  25
ATOM     25  N   UNL     1      -1.075  -3.994  -6.431  0.00  0.00    -0.291 NA
ATOM     26  C   UNL     1       0.046  -3.045  -6.444  0.00  0.00    +0.104 C 
ATOM     27  C   UNL     1      -0.199  -1.984  -7.522  0.00  0.00    +0.123 C 
ATOM     28  N   UNL     1      -0.452  -2.666  -8.800  0.00  0.00    -0.295 N 
ATOM     29  C   UNL     1      -1.468  -3.728  -8.834  0.00  0.00    +0.123 C 
ATOM     30  C   UNL     1      -1.173  -4.721  -7.704  0.00  0.00    +0.104 C 
ATOM     31  C   UNL     1       0.231  -2.326  -9.912  0.00  0.00    +0.253 C 
ATOM     32  O   UNL     1       1.158  -1.541  -9.841  0.00  0.00    -0.269 OA
BRANCH  31  33
ATOM     33  C   UNL     1      -0.143  -2.903 -11.206  0.00  0.00    +0.074 A 
ATOM     34  C   UNL     1       0.518  -2.824 -12.422  0.00  0.00    +0.021 A 
ATOM     35  C   UNL     1      -0.083  -3.474 -13.473  0.00  0.00    +0.008 A 
ATOM     36  C   UNL     1      -1.250  -4.131 -13.260  0.00  0.00    +0.046 A 
ATOM     37  S   UNL     1      -1.564  -3.894 -11.626  0.00  0.00    -0.092 S 
ENDBRANCH  31  33
ENDBRANCH  24  25
ENDBRANCH   2  24
TORSDOF 9
