REMARK  Name = ZINC05261041
REMARK  5 active torsions:
REMARK  status: ('A' for Active; 'I' for Inactive)
REMARK    1  A    between atoms: C_1  and  C_2
REMARK    2  A    between atoms: C_2  and  C_25
REMARK    3  A    between atoms: N_9  and  C_20
REMARK    4  A    between atoms: C_20  and  C_21
REMARK    5  A    between atoms: C_21  and  C_22
REMARK                            x       y       z     vdW  Elec       q    Type
REMARK                         _______ _______ _______ _____ _____    ______ ____
ROOT
ATOM      1  C   UNL     1       0.330   0.589  -0.537  0.00  0.00    +0.022 C 
ATOM      2  C   UNL     1       0.167   2.079  -0.230  0.00  0.00    +0.053 C 
ATOM      3  C   UNL     1      -0.647   2.758  -1.298  0.00  0.00    -0.015 A 
ATOM      4  C   UNL     1      -0.548   2.678  -2.673  0.00  0.00    +0.006 A 
ATOM      5  C   UNL     1      -1.454   3.426  -3.417  0.00  0.00    +0.000 A 
ATOM      6  C   UNL     1      -2.409   4.214  -2.808  0.00  0.00    +0.002 A 
ATOM      7  C   UNL     1      -2.515   4.302  -1.429  0.00  0.00    +0.023 A 
ATOM      8  C   UNL     1      -1.610   3.557  -0.670  0.00  0.00    +0.037 A 
ATOM      9  N   UNL     1      -1.500   3.481   0.713  0.00  0.00    -0.288 N 
ATOM     10  C   UNL     1      -0.688   2.287   1.039  0.00  0.00    +0.207 C 
ATOM     11  C   UNL     1       0.200   2.561   2.217  0.00  0.00    +0.042 C 
ATOM     12  C   UNL     1       0.596   1.556   2.998  0.00  0.00    +0.013 C 
ATOM     13  C   UNL     1       0.127   0.193   2.668  0.00  0.00    +0.017 A 
ATOM     14  C   UNL     1       0.732  -0.932   3.219  0.00  0.00    +0.011 A 
ATOM     15  C   UNL     1       0.266  -2.189   2.886  0.00  0.00    +0.001 A 
ATOM     16  C   UNL     1      -0.796  -2.330   2.009  0.00  0.00    +0.004 A 
ATOM     17  C   UNL     1      -1.404  -1.218   1.456  0.00  0.00    +0.046 A 
ATOM     18  C   UNL     1      -0.948   0.047   1.780  0.00  0.00    +0.131 A 
ATOM     19  O   UNL     1      -1.525   1.159   1.256  0.00  0.00    -0.463 OA
ATOM     20  C   UNL     1       1.533   2.752  -0.080  0.00  0.00    +0.022 C 
ENDROOT
BRANCH   9  21
ATOM     21  C   UNL     1      -2.824   3.406   1.343  0.00  0.00    +0.118 C 
BRANCH  21  22
ATOM     22  C   UNL     1      -2.660   3.234   2.855  0.00  0.00    +0.114 C 
BRANCH  22  23
ATOM     23  C   UNL     1      -4.013   3.290   3.516  0.00  0.00    +0.212 C 
ATOM     24  O   UNL     1      -5.011   3.451   2.845  0.00  0.00    -0.276 OA
ATOM     25  N   UNL     1      -4.115   3.160   4.854  0.00  0.00    -0.329 N 
ATOM     26  H   UNL     1      -3.318   3.031   5.391  0.00  0.00    +0.145 HD
ATOM     27  H   UNL     1      -4.986   3.196   5.280  0.00  0.00    +0.145 HD
ENDBRANCH  22  23
ENDBRANCH  21  22
ENDBRANCH   9  21
TORSDOF 3
