REMARK  Name = ZINC04133498
REMARK  17 active torsions:
REMARK  status: ('A' for Active; 'I' for Inactive)
REMARK    1  A    between atoms: C_1  and  C_2
REMARK    2  A    between atoms: C_7  and  C_15
REMARK    3  A    between atoms: C_13  and  C_14
REMARK    4  A    between atoms: C_15  and  N_16
REMARK    5  A    between atoms: N_16  and  C_17
REMARK    6  A    between atoms: N_16  and  C_21
REMARK    7  A    between atoms: C_17  and  C_18
REMARK    8  A    between atoms: C_18  and  N_63
REMARK    9  A    between atoms: C_19  and  N_63
REMARK   10  A    between atoms: C_20  and  N_63
REMARK   11  A    between atoms: C_21  and  N_23
REMARK   12  A    between atoms: N_23  and  C_24
REMARK   13  A    between atoms: C_24  and  C_25
REMARK   14  A    between atoms: C_25  and  C_26
REMARK   15  A    between atoms: C_26  and  N_65
REMARK   16  A    between atoms: C_27  and  N_65
REMARK   17  A    between atoms: C_28  and  N_65
REMARK                            x       y       z     vdW  Elec       q    Type
REMARK                         _______ _______ _______ _____ _____    ______ ____
ROOT
ATOM      1  N   UNL     1       0.002  -0.004   0.002  0.00  0.00    -0.310 N 
ENDROOT
BRANCH   1   2
ATOM      2  C   UNL     1       1.028  -0.667   0.572  0.00  0.00    +0.133 C 
ATOM      3  S   UNL     1       2.307   0.202   1.306  0.00  0.00    -0.019 S 
BRANCH   2   4
ATOM      4  N   UNL     1       1.046  -2.015   0.565  0.00  0.00    -0.326 N 
ATOM      5  H   UNL     1       0.321  -2.507   0.149  0.00  0.00    +0.148 HD
BRANCH   4   6
ATOM      6  C   UNL     1       2.160  -2.736   1.185  0.00  0.00    +0.101 C 
BRANCH   6   7
ATOM      7  C   UNL     1       1.937  -4.242   1.039  0.00  0.00    +0.000 C 
BRANCH   7   8
ATOM      8  C   UNL     1       3.101  -4.995   1.686  0.00  0.00    -0.078 C 
BRANCH   8  11
ATOM      9  C   UNL     1       2.949  -6.849   0.136  0.00  0.00    -0.097 C 
ATOM     10  C   UNL     1       3.853  -7.198   2.355  0.00  0.00    -0.097 C 
ATOM     11  N   UNL     1       2.861  -6.448   1.556  0.00  0.00    +0.376 N 
ATOM     12  H   UNL     1       1.920  -6.663   1.906  0.00  0.00    -0.083 HD
ENDBRANCH   8  11
ENDBRANCH   7   8
ENDBRANCH   6   7
ENDBRANCH   4   6
ENDBRANCH   2   4
ENDBRANCH   1   2
BRANCH   1  13
ATOM     13  C   UNL     1      -0.018   1.461   0.010  0.00  0.00    +0.147 C 
BRANCH  13  20
ATOM     14  C   UNL     1      -2.862   4.101   6.979  0.00  0.00    +0.044 C 
ATOM     15  C   UNL     1      -2.114   3.620   5.762  0.00  0.00    -0.046 A 
ATOM     16  C   UNL     1      -0.729   3.524   5.800  0.00  0.00    +0.004 A 
ATOM     17  C   UNL     1      -0.032   3.091   4.708  0.00  0.00    +0.010 A 
ATOM     18  C   UNL     1      -0.720   2.740   3.541  0.00  0.00    -0.001 A 
ATOM     19  C   UNL     1      -0.004   2.267   2.354  0.00  0.00    +0.020 A 
ATOM     20  C   UNL     1      -0.723   1.947   1.250  0.00  0.00    +0.035 A 
ATOM     21  C   UNL     1      -2.130   2.062   1.259  0.00  0.00    +0.254 A 
ATOM     22  O   UNL     1      -2.757   1.764   0.257  0.00  0.00    -0.268 OA
ATOM     23  N   UNL     1      -2.796   2.491   2.346  0.00  0.00    -0.322 N 
ATOM     24  H   UNL     1      -3.793   2.560   2.317  0.00  0.00    +0.169 HD
ATOM     25  C   UNL     1      -2.123   2.836   3.499  0.00  0.00    +0.052 A 
ATOM     26  C   UNL     1      -2.812   3.280   4.623  0.00  0.00    -0.024 A 
ATOM     27  C   UNL     1      -4.314   3.390   4.596  0.00  0.00    +0.046 C 
ENDBRANCH  13  20
ENDBRANCH   1  13
BRANCH   1  28
ATOM     28  C   UNL     1      -1.093  -0.748  -0.626  0.00  0.00    +0.088 C 
BRANCH  28  29
ATOM     29  C   UNL     1      -0.764  -0.991  -2.100  0.00  0.00    -0.060 C 
BRANCH  29  32
ATOM     30  C   UNL     1      -1.698  -1.783  -4.189  0.00  0.00    -0.097 C 
ATOM     31  C   UNL     1      -1.969  -3.090  -2.169  0.00  0.00    -0.097 C 
ATOM     32  N   UNL     1      -1.887  -1.723  -2.724  0.00  0.00    +0.377 N 
ATOM     33  H   UNL     1      -2.763  -1.227  -2.521  0.00  0.00    -0.083 HD
ENDBRANCH  29  32
ENDBRANCH  28  29
ENDBRANCH   1  28
TORSDOF 11
