REMARK  Name = ZINC12481989
REMARK  12 active torsions:
REMARK  status: ('A' for Active; 'I' for Inactive)
REMARK    1  A    between atoms: C_1  and  C_2
REMARK    2  A    between atoms: C_2  and  C_3
REMARK    3  A    between atoms: C_2  and  C_4
REMARK    4  A    between atoms: C_7  and  C_10
REMARK    5  A    between atoms: C_10  and  C_12
REMARK    6  A    between atoms: C_10  and  N_22
REMARK    7  A    between atoms: N_14  and  C_15
REMARK    8  A    between atoms: C_15  and  C_16
REMARK    9  A    between atoms: N_22  and  C_23
REMARK   10  A    between atoms: C_23  and  C_24
REMARK   11  A    between atoms: C_29  and  C_31
REMARK   12  A    between atoms: C_31  and  N_32
REMARK                            x       y       z     vdW  Elec       q    Type
REMARK                         _______ _______ _______ _____ _____    ______ ____
ROOT
ATOM      1  C   UNL     1      -1.051  -4.521  -2.992  0.00  0.00    +0.193 C 
ENDROOT
BRANCH   1   5
ATOM      2  C   UNL     1      -0.802  -8.115  -5.287  0.00  0.00    -0.045 A 
ATOM      3  C   UNL     1      -0.795  -6.887  -5.922  0.00  0.00    +0.004 A 
ATOM      4  C   UNL     1      -0.876  -5.724  -5.180  0.00  0.00    +0.006 A 
ATOM      5  C   UNL     1      -0.963  -5.789  -3.802  0.00  0.00    -0.018 A 
ATOM      6  C   UNL     1      -0.965  -7.016  -3.166  0.00  0.00    +0.006 A 
ATOM      7  C   UNL     1      -0.889  -8.180  -3.909  0.00  0.00    +0.004 A 
BRANCH   2   9
ATOM      8  C   UNL     1       0.533 -10.167  -5.683  0.00  0.00    +0.012 C 
ATOM      9  C   UNL     1      -0.714  -9.383  -6.097  0.00  0.00    +0.013 C 
ATOM     10  C   UNL     1      -1.959 -10.236  -5.845  0.00  0.00    +0.012 C 
ENDBRANCH   2   9
ENDBRANCH   1   5
BRANCH   1  11
ATOM     11  C   UNL     1      -2.361  -4.490  -2.248  0.00  0.00    +0.238 C 
ATOM     12  O   UNL     1      -2.407  -4.048  -1.119  0.00  0.00    -0.273 OA
ATOM     13  N   UNL     1      -3.482  -4.953  -2.836  0.00  0.00    -0.311 N 
ATOM     14  H   UNL     1      -3.445  -5.307  -3.739  0.00  0.00    +0.149 HD
BRANCH  13  15
ATOM     15  C   UNL     1      -4.755  -4.923  -2.113  0.00  0.00    +0.135 C 
BRANCH  15  16
ATOM     16  C   UNL     1      -5.859  -5.503  -2.999  0.00  0.00    +0.135 C 
ATOM     17  C   UNL     1      -7.228  -5.402  -2.289  0.00  0.00    +0.035 C 
ATOM     18  C   UNL     1      -7.955  -6.705  -2.689  0.00  0.00    +0.031 C 
ATOM     19  C   UNL     1      -6.940  -7.439  -3.593  0.00  0.00    +0.160 C 
ATOM     20  O   UNL     1      -5.650  -6.917  -3.203  0.00  0.00    -0.375 OA
ENDBRANCH  15  16
ENDBRANCH  13  15
ENDBRANCH   1  11
BRANCH   1  21
ATOM     21  N   UNL     1       0.056  -4.476  -2.034  0.00  0.00    -0.280 N 
ATOM     22  C   UNL     1       1.322  -4.334  -2.473  0.00  0.00    +0.238 C 
ATOM     23  O   UNL     1       1.545  -4.244  -3.662  0.00  0.00    -0.274 OA
BRANCH  21  24
ATOM     24  C   UNL     1      -0.213  -4.585  -0.598  0.00  0.00    +0.151 C 
BRANCH  24  25
ATOM     25  C   UNL     1      -0.212  -3.210   0.019  0.00  0.00    +0.007 A 
ATOM     26  C   UNL     1      -1.256  -2.377   0.250  0.00  0.00    +0.013 A 
ATOM     27  C   UNL     1      -1.017  -1.149   0.838  0.00  0.00    +0.008 A 
ATOM     28  C   UNL     1       0.256  -0.810   1.157  0.00  0.00    +0.045 A 
ATOM     29  S   UNL     1       1.166  -2.252   0.629  0.00  0.00    -0.100 S 
ENDBRANCH  24  25
ENDBRANCH  21  24
BRANCH  22  30
ATOM     30  C   UNL     1       2.461  -4.288  -1.487  0.00  0.00    +0.241 C 
BRANCH  30  31
ATOM     31  N   UNL     1       3.726  -4.130  -2.209  0.00  0.00    -0.235 N 
ATOM     32  C   UNL     1       4.336  -2.946  -2.551  0.00  0.00    +0.090 A 
ATOM     33  C   UNL     1       4.018  -1.605  -2.361  0.00  0.00    +0.029 A 
ATOM     34  C   UNL     1       4.857  -0.635  -2.834  0.00  0.00    +0.002 A 
ATOM     35  C   UNL     1       6.025  -0.975  -3.504  0.00  0.00    +0.002 A 
ATOM     36  C   UNL     1       6.359  -2.283  -3.703  0.00  0.00    +0.032 A 
ATOM     37  C   UNL     1       5.516  -3.297  -3.228  0.00  0.00    +0.113 A 
ATOM     38  N   UNL     1       5.578  -4.643  -3.272  0.00  0.00    -0.129 NA
ATOM     39  N   UNL     1       4.553  -5.156  -2.689  0.00  0.00    -0.064 NA
ENDBRANCH  30  31
ENDBRANCH  22  30
ENDBRANCH   1  21
TORSDOF 10
