REMARK  Name = ZINC13264102
REMARK  7 active torsions:
REMARK  status: ('A' for Active; 'I' for Inactive)
REMARK    1  A    between atoms: C_1  and  C_2
REMARK    2  A    between atoms: C_2  and  C_16
REMARK    3  A    between atoms: N_3  and  N_4
REMARK    4  A    between atoms: C_5  and  C_7
REMARK    5  A    between atoms: C_19  and  S_22
REMARK    6  A    between atoms: S_22  and  N_25
REMARK    7  A    between atoms: C_28  and  C_31
REMARK                            x       y       z     vdW  Elec       q    Type
REMARK                         _______ _______ _______ _____ _____    ______ ____
ROOT
ATOM      1  C   UNL     1       1.249   2.257   0.002  0.00  0.00    -0.002 A 
ATOM      2  C   UNL     1       2.470   1.579  -0.007  0.00  0.00    +0.011 A 
ATOM      3  C   UNL     1       3.651   2.291  -0.019  0.00  0.00    +0.029 A 
ATOM      4  C   UNL     1       3.628   3.675  -0.012  0.00  0.00    +0.106 A 
ATOM      5  C   UNL     1       2.422   4.354   0.003  0.00  0.00    +0.029 A 
ATOM      6  C   UNL     1       1.234   3.654   0.010  0.00  0.00    +0.011 A 
ENDROOT
BRANCH   1   8
ATOM      7  C   UNL     1       0.002  -0.004   0.002  0.00  0.00    +0.068 C 
ATOM      8  C   UNL     1      -0.018   1.503   0.010  0.00  0.00    +0.063 C 
ATOM      9  N   UNL     1      -1.151   2.136   0.019  0.00  0.00    -0.184 NA
BRANCH   9  10
ATOM     10  N   UNL     1      -2.355   1.419   0.021  0.00  0.00    -0.203 N 
ATOM     11  C   UNL     1      -3.531   2.077   0.030  0.00  0.00    +0.263 C 
ATOM     12  O   UNL     1      -3.547   3.293   0.037  0.00  0.00    -0.268 OA
ATOM     13  H   UNL     1      -2.341   0.450   0.016  0.00  0.00    +0.178 HD
BRANCH  11  14
ATOM     14  C   UNL     1      -4.799   1.322   0.032  0.00  0.00    +0.042 A 
ATOM     15  C   UNL     1      -4.782  -0.075   0.018  0.00  0.00    +0.017 A 
ATOM     16  C   UNL     1      -5.966  -0.778   0.026  0.00  0.00    +0.050 A 
ATOM     17  C   UNL     1      -7.180  -0.103   0.036  0.00  0.00    +0.166 A 
ATOM     18  C   UNL     1      -7.204   1.292   0.043  0.00  0.00    +0.167 A 
ATOM     19  C   UNL     1      -6.019   2.003   0.042  0.00  0.00    +0.062 A 
ATOM     20  O   UNL     1      -8.505   1.705   0.052  0.00  0.00    -0.453 OA
ATOM     21  C   UNL     1      -9.274   0.561  -0.363  0.00  0.00    +0.466 C 
ATOM     22  O   UNL     1      -8.465  -0.560   0.040  0.00  0.00    -0.453 OA
ENDBRANCH  11  14
ENDBRANCH   9  10
ENDBRANCH   1   8
BRANCH   4  23
ATOM     23  S   UNL     1       5.142   4.576  -0.021  0.00  0.00    +0.061 S 
ATOM     24  O   UNL     1       6.123   3.717  -0.585  0.00  0.00    -0.153 OA
ATOM     25  O   UNL     1       4.848   5.857  -0.562  0.00  0.00    -0.153 OA
BRANCH  23  26
ATOM     26  N   UNL     1       5.577   4.819   1.558  0.00  0.00    -0.177 NA
ATOM     27  C   UNL     1       5.132   6.017   2.282  0.00  0.00    +0.110 C 
ATOM     28  C   UNL     1       6.350   6.720   2.878  0.00  0.00    +0.032 C 
ATOM     29  C   UNL     1       7.142   5.727   3.733  0.00  0.00    +0.105 C 
ATOM     30  C   UNL     1       7.629   4.571   2.855  0.00  0.00    +0.032 C 
ATOM     31  C   UNL     1       6.420   3.842   2.261  0.00  0.00    +0.110 C 
BRANCH  29  32
ATOM     32  C   UNL     1       8.327   6.426   4.346  0.00  0.00    +0.359 C 
ATOM     33  O   UNL     1       9.447   6.040   4.107  0.00  0.00    -0.246 OA
ATOM     34  O   UNL     1       8.139   7.477   5.159  0.00  0.00    -0.246 OA
ENDBRANCH  29  32
ENDBRANCH  23  26
ENDBRANCH   4  23
TORSDOF 6
