REMARK  Name = ZINC59459349
REMARK  6 active torsions:
REMARK  status: ('A' for Active; 'I' for Inactive)
REMARK    1  A    between atoms: C_4  and  O_25
REMARK    2  A    between atoms: C_5  and  C_7
REMARK    3  A    between atoms: N_8  and  N_9
REMARK    4  A    between atoms: C_10  and  C_12
REMARK    5  A    between atoms: C_12  and  O_13
REMARK    6  A    between atoms: O_13  and  C_14
REMARK                            x       y       z     vdW  Elec       q    Type
REMARK                         _______ _______ _______ _____ _____    ______ ____
ROOT
ATOM      1  N   UNL     1       2.412  -4.186  -0.047  0.00  0.00    -0.204 N 
ATOM      2  C   UNL     1       3.591  -4.838  -0.063  0.00  0.00    +0.270 C 
ATOM      3  O   UNL     1       4.630  -4.212  -0.070  0.00  0.00    -0.270 OA
ATOM      4  H   UNL     1       1.581  -4.686  -0.041  0.00  0.00    +0.177 HD
ENDROOT
BRANCH   1   6
ATOM      5  C   UNL     1       1.250  -2.157  -0.023  0.00  0.00    +0.142 C 
ATOM      6  N   UNL     1       2.386  -2.785  -0.038  0.00  0.00    -0.188 NA
BRANCH   5  11
ATOM      7  C   UNL     1      -0.017   1.375   0.010  0.00  0.00    +0.001 A 
ATOM      8  C   UNL     1       1.169   2.089   0.002  0.00  0.00    +0.004 A 
ATOM      9  C   UNL     1       2.383   1.428  -0.013  0.00  0.00    +0.046 A 
ATOM     10  C   UNL     1       2.420   0.044  -0.022  0.00  0.00    +0.125 A 
ATOM     11  C   UNL     1       1.222  -0.684  -0.014  0.00  0.00    +0.036 A 
ATOM     12  C   UNL     1       0.002  -0.004   0.002  0.00  0.00    +0.013 A 
BRANCH  10  13
ATOM     13  O   UNL     1       3.612  -0.607  -0.038  0.00  0.00    -0.506 OA
ATOM     14  H   UNL     1       3.967  -0.800   0.841  0.00  0.00    +0.292 HD
ENDBRANCH  10  13
ENDBRANCH   5  11
ENDBRANCH   1   6
BRANCH   2  15
ATOM     15  C   UNL     1       3.619  -6.344  -0.072  0.00  0.00    +0.326 C 
BRANCH  15  16
ATOM     16  O   UNL     1       4.975  -6.795  -0.089  0.00  0.00    -0.482 OA
BRANCH  16  17
ATOM     17  C   UNL     1       5.178  -8.139  -0.099  0.00  0.00    +0.135 A 
ATOM     18  C   UNL     1       4.097  -9.008  -0.099  0.00  0.00    +0.047 A 
ATOM     19  C   UNL     1       4.314 -10.369  -0.107  0.00  0.00    +0.007 A 
ATOM     20  C   UNL     1       5.606 -10.881  -0.117  0.00  0.00    -0.043 A 
ATOM     21  C   UNL     1       6.681 -10.021  -0.122  0.00  0.00    -0.027 A 
ATOM     22  C   UNL     1       6.466  -8.649  -0.115  0.00  0.00    +0.063 A 
ATOM     23 BR   UNL     1       7.943  -7.467  -0.122  0.00  0.00    -0.046 Br
ATOM     24  C   UNL     1       8.107 -10.506  -0.149  0.00  0.00    +0.036 C 
ATOM     25  C   UNL     1       8.184 -11.973   0.270  0.00  0.00    +0.005 C 
ATOM     26  C   UNL     1       7.173 -12.768  -0.565  0.00  0.00    +0.005 C 
ATOM     27  C   UNL     1       5.766 -12.379  -0.117  0.00  0.00    +0.035 C 
ENDBRANCH  16  17
ENDBRANCH  15  16
ENDBRANCH   2  15
TORSDOF 6
