REMARK  Name = ZINC31157734
REMARK  10 active torsions:
REMARK  status: ('A' for Active; 'I' for Inactive)
REMARK    1  A    between atoms: C_1  and  C_2
REMARK    2  A    between atoms: C_3  and  C_37
REMARK    3  A    between atoms: C_7  and  C_10
REMARK    4  A    between atoms: C_10  and  C_11
REMARK    5  A    between atoms: C_10  and  C_12
REMARK    6  A    between atoms: C_10  and  O_36
REMARK    7  A    between atoms: C_12  and  O_35
REMARK    8  A    between atoms: C_15  and  O_34
REMARK    9  A    between atoms: C_16  and  C_33
REMARK   10  A    between atoms: C_26  and  C_32
REMARK                            x       y       z     vdW  Elec       q    Type
REMARK                         _______ _______ _______ _____ _____    ______ ____
ROOT
ATOM      1  C   UNL     1       0.648  -4.236   1.433  0.00  0.00    +0.106 C 
ATOM      2  C   UNL     1      -0.245  -4.146   0.167  0.00  0.00    +0.041 C 
ATOM      3  C   UNL     1      -1.178  -5.389   0.204  0.00  0.00    +0.038 C 
ATOM      4  C   UNL     1      -1.277  -5.661   1.714  0.00  0.00    +0.078 C 
ATOM      5  C   UNL     1       0.207  -5.516   2.140  0.00  0.00    +0.029 C 
ATOM      6  C   UNL     1       0.267  -5.559   3.649  0.00  0.00    +0.013 C 
ATOM      7  C   UNL     1      -0.275  -6.909   4.137  0.00  0.00    +0.006 C 
ATOM      8  C   UNL     1      -1.683  -7.198   3.628  0.00  0.00    +0.013 C 
ATOM      9  C   UNL     1      -1.776  -7.024   2.114  0.00  0.00    +0.029 C 
ATOM     10  C   UNL     1      -3.201  -7.285   1.631  0.00  0.00    +0.034 C 
ATOM     11  C   UNL     1      -4.153  -6.399   2.378  0.00  0.00    -0.026 C 
ATOM     12  C   UNL     1      -3.946  -6.059   3.615  0.00  0.00    -0.056 C 
ATOM     13  C   UNL     1      -2.756  -6.496   4.426  0.00  0.00    +0.054 C 
ATOM     14  C   UNL     1      -2.237  -5.310   5.201  0.00  0.00    +0.166 C 
ATOM     15  O   UNL     1      -1.227  -5.387   5.882  0.00  0.00    -0.292 OA
ATOM     16  C   UNL     1      -2.973  -4.042   5.207  0.00  0.00    +0.043 C 
ATOM     17  C   UNL     1      -4.226  -3.945   4.792  0.00  0.00    -0.019 C 
ATOM     18  C   UNL     1      -4.966  -5.155   4.287  0.00  0.00    +0.058 C 
ATOM     19  C   UNL     1      -3.276  -7.517   5.461  0.00  0.00    +0.024 C 
ATOM     20  C   UNL     1       1.059  -6.658   1.568  0.00  0.00    +0.017 C 
ENDROOT
BRANCH   1  21
ATOM     21  C   UNL     1       0.467  -3.002   2.311  0.00  0.00    +0.129 C 
ATOM     22  C   UNL     1      -1.016  -2.830   2.648  0.00  0.00    +0.048 C 
BRANCH  21  29
ATOM     23  C   UNL     1       1.502   1.979   2.392  0.00  0.00    +0.039 C 
ATOM     24  C   UNL     1       1.088   0.720   1.675  0.00  0.00    -0.059 C 
ATOM     25  C   UNL     1       0.930   0.745   0.356  0.00  0.00    +0.033 C 
ATOM     26  C   UNL     1       0.534  -0.484  -0.355  0.00  0.00    +0.335 C 
ATOM     27  O   UNL     1       0.545  -0.540  -1.569  0.00  0.00    -0.245 OA
ATOM     28  O   UNL     1       0.157  -1.549   0.396  0.00  0.00    -0.455 OA
ATOM     29  C   UNL     1       0.966  -1.765   1.562  0.00  0.00    +0.215 C 
ATOM     30  C   UNL     1       0.870  -0.539   2.469  0.00  0.00    +0.078 C 
ATOM     31  C   UNL     1       1.155   2.024  -0.409  0.00  0.00    +0.051 C 
ENDBRANCH  21  29
BRANCH  21  32
ATOM     32  O   UNL     1       1.214  -3.162   3.518  0.00  0.00    -0.382 OA
ATOM     33  H   UNL     1       2.164  -3.277   3.380  0.00  0.00    +0.210 HD
ENDBRANCH  21  32
ENDBRANCH   1  21
BRANCH   4  34
ATOM     34  O   UNL     1      -2.072  -4.633   2.319  0.00  0.00    -0.388 OA
ATOM     35  H   UNL     1      -2.980  -4.593   1.990  0.00  0.00    +0.210 HD
ENDBRANCH   4  34
BRANCH   1  36
ATOM     36  O   UNL     1       2.022  -4.357   1.041  0.00  0.00    -0.385 OA
ATOM     37  H   UNL     1       2.359  -3.597   0.547  0.00  0.00    +0.210 HD
ENDBRANCH   1  36
TORSDOF 5
