REMARK  Name = ZINC67102315
REMARK  6 active torsions:
REMARK  status: ('A' for Active; 'I' for Inactive)
REMARK    1  A    between atoms: C_1  and  C_2
REMARK    2  A    between atoms: C_6  and  C_7
REMARK    3  A    between atoms: N_9  and  N_10
REMARK    4  A    between atoms: N_13  and  C_14
REMARK    5  A    between atoms: C_23  and  O_25
REMARK    6  A    between atoms: O_25  and  C_26
REMARK                            x       y       z     vdW  Elec       q    Type
REMARK                         _______ _______ _______ _____ _____    ______ ____
ROOT
ATOM      1  N   UNL     1       0.058  -0.732   4.900  0.00  0.00    -0.218 N 
ATOM      2  C   UNL     1       0.080  -1.625   5.909  0.00  0.00    +0.316 C 
ATOM      3  O   UNL     1       0.086  -1.239   7.062  0.00  0.00    -0.251 OA
ATOM      4  N   UNL     1       0.096  -2.945   5.640  0.00  0.00    -0.291 N 
ATOM      5  H   UNL     1       0.047   0.219   5.094  0.00  0.00    +0.174 HD
ATOM      6  H   UNL     1       0.091  -3.253   4.720  0.00  0.00    +0.151 HD
ENDROOT
BRANCH   4   7
ATOM      7  C   UNL     1       0.119  -3.916   6.737  0.00  0.00    +0.105 C 
ATOM      8  C   UNL     1       0.754  -5.216   6.246  0.00  0.00    +0.027 C 
ATOM      9  C   UNL     1       0.574  -6.283   7.332  0.00  0.00    +0.007 C 
ATOM     10  C   UNL     1      -0.906  -6.655   7.400  0.00  0.00    +0.035 C 
ATOM     11  C   UNL     1      -1.758  -5.419   7.522  0.00  0.00    -0.039 A 
ATOM     12  C   UNL     1      -1.289  -4.162   7.213  0.00  0.00    -0.024 A 
ATOM     13  C   UNL     1      -2.128  -3.062   7.341  0.00  0.00    +0.009 A 
ATOM     14  C   UNL     1      -3.427  -3.217   7.776  0.00  0.00    +0.046 A 
ATOM     15  C   UNL     1      -3.901  -4.483   8.091  0.00  0.00    +0.127 A 
ATOM     16  C   UNL     1      -3.065  -5.577   7.963  0.00  0.00    +0.049 A 
BRANCH  15  17
ATOM     17  O   UNL     1      -5.179  -4.646   8.523  0.00  0.00    -0.434 OA
BRANCH  17  18
ATOM     18  C   UNL     1      -5.982  -3.469   8.631  0.00  0.00    +0.541 C 
ATOM     19  F   UNL     1      -5.390  -2.581   9.536  0.00  0.00    -0.166 F 
ATOM     20  F   UNL     1      -6.085  -2.858   7.377  0.00  0.00    -0.166 F 
ENDBRANCH  17  18
ENDBRANCH  15  17
ENDBRANCH   4   7
BRANCH   1  23
ATOM     21  C   UNL     1       0.030  -0.283   2.562  0.00  0.00    +0.267 C 
ATOM     22  O   UNL     1       0.016   0.910   2.805  0.00  0.00    -0.268 OA
ATOM     23  N   UNL     1       0.052  -1.176   3.571  0.00  0.00    -0.229 N 
ATOM     24  H   UNL     1       0.063  -2.126   3.378  0.00  0.00    +0.173 HD
BRANCH  21  30
ATOM     25  C   UNL     1      -0.018   1.503   0.010  0.00  0.00    +0.045 C 
ATOM     26  C   UNL     1       0.002  -0.004   0.002  0.00  0.00    -0.031 A 
ATOM     27  C   UNL     1       0.007  -0.729  -1.166  0.00  0.00    +0.011 A 
ATOM     28  C   UNL     1       0.026  -2.083  -1.101  0.00  0.00    +0.046 A 
ATOM     29  S   UNL     1       0.038  -2.416   0.545  0.00  0.00    -0.092 S 
ATOM     30  C   UNL     1       0.023  -0.748   1.172  0.00  0.00    +0.078 A 
ENDBRANCH  21  30
ENDBRANCH   1  23
TORSDOF 5
