REMARK  Name = ZINC02082366
REMARK  13 active torsions:
REMARK  status: ('A' for Active; 'I' for Inactive)
REMARK    1  A    between atoms: C_1  and  C_2
REMARK    2  A    between atoms: C_2  and  C_3
REMARK    3  A    between atoms: C_3  and  C_4
REMARK    4  A    between atoms: C_4  and  C_5
REMARK    5  A    between atoms: C_5  and  O_6
REMARK    6  A    between atoms: O_6  and  C_7
REMARK    7  A    between atoms: C_7  and  C_9
REMARK    8  A    between atoms: C_10  and  C_32
REMARK    9  A    between atoms: C_14  and  C_16
REMARK   10  A    between atoms: C_18  and  O_24
REMARK   11  A    between atoms: C_19  and  O_23
REMARK   12  A    between atoms: O_24  and  C_25
REMARK   13  A    between atoms: C_25  and  C_26
REMARK                            x       y       z     vdW  Elec       q    Type
REMARK                         _______ _______ _______ _____ _____    ______ ____
ROOT
ATOM      1  C   UNL     1       0.029  -0.049   0.019  0.00  0.00    +0.065 C 
ATOM      2  C   UNL     1      -0.033   1.270  -0.234  0.00  0.00    +0.016 C 
ATOM      3  N   UNL     1       1.107   2.024  -0.265  0.00  0.00    -0.321 N 
ATOM      4  C   UNL     1       2.256   1.577   0.332  0.00  0.00    +0.015 C 
ATOM      5  C   UNL     1       2.416   0.267   0.615  0.00  0.00    +0.024 C 
ATOM      6  C   UNL     1       1.342  -0.733   0.266  0.00  0.00    +0.092 C 
ATOM      7  C   UNL     1       3.583  -0.203   1.242  0.00  0.00    +0.162 C 
ATOM      8  O   UNL     1       3.700  -1.390   1.473  0.00  0.00    -0.292 OA
ATOM      9  C   UNL     1       4.691   0.738   1.631  0.00  0.00    +0.080 C 
ATOM     10  C   UNL     1       4.095   2.121   1.911  0.00  0.00    +0.014 C 
ATOM     11  C   UNL     1       3.331   2.581   0.666  0.00  0.00    +0.051 C 
ATOM     12  C   UNL     1      -1.367   1.920  -0.492  0.00  0.00    +0.061 C 
ATOM     13  H   UNL     1       1.108   2.999  -0.772  0.00  0.00    +0.152 HD
ENDROOT
BRANCH   6  14
ATOM     14  C   UNL     1       1.750  -1.484  -0.975  0.00  0.00    -0.030 A 
ATOM     15  C   UNL     1       1.932  -2.854  -0.924  0.00  0.00    +0.054 A 
ATOM     16  C   UNL     1       2.307  -3.546  -2.064  0.00  0.00    +0.163 A 
ATOM     17  C   UNL     1       2.499  -2.860  -3.259  0.00  0.00    +0.173 A 
ATOM     18  C   UNL     1       2.315  -1.487  -3.304  0.00  0.00    +0.063 A 
ATOM     19  C   UNL     1       1.936  -0.803  -2.163  0.00  0.00    +0.023 A 
ATOM     20 BR   UNL     1       2.575  -0.550  -4.926  0.00  0.00    -0.046 Br
BRANCH  17  21
ATOM     21  O   UNL     1       2.867  -3.535  -4.381  0.00  0.00    -0.503 OA
ATOM     22  H   UNL     1       3.019  -2.992  -5.325  0.00  0.00    +0.292 HD
ENDBRANCH  17  21
BRANCH  16  23
ATOM     23  O   UNL     1       2.485  -4.893  -2.015  0.00  0.00    -0.489 OA
BRANCH  23  24
ATOM     24  C   UNL     1       2.270  -5.531  -0.755  0.00  0.00    +0.226 C 
ATOM     25  C   UNL     1       2.517  -7.035  -0.895  0.00  0.00    +0.048 C 
ENDBRANCH  23  24
ENDBRANCH  16  23
ENDBRANCH   6  14
BRANCH   1  26
ATOM     26  C   UNL     1      -1.165  -0.806   0.053  0.00  0.00    +0.338 C 
ATOM     27  O   UNL     1      -2.243  -0.246  -0.024  0.00  0.00    -0.245 OA
BRANCH  26  28
ATOM     28  O   UNL     1      -1.109  -2.149   0.170  0.00  0.00    -0.461 OA
BRANCH  28  29
ATOM     29  C   UNL     1      -2.354  -2.850   0.198  0.00  0.00    +0.232 C 
BRANCH  29  30
ATOM     30  C   UNL     1      -2.092  -4.351   0.334  0.00  0.00    +0.041 C 
BRANCH  30  31
ATOM     31  C   UNL     1      -3.425  -5.101   0.363  0.00  0.00    +0.003 C 
BRANCH  31  33
ATOM     32  C   UNL     1      -4.495  -7.353   0.529  0.00  0.00    +0.004 C 
ATOM     33  C   UNL     1      -3.162  -6.603   0.499  0.00  0.00    -0.003 C 
ENDBRANCH  31  33
ENDBRANCH  30  31
ENDBRANCH  29  30
ENDBRANCH  28  29
ENDBRANCH  26  28
ENDBRANCH   1  26
TORSDOF 10
