REMARK  Name = ZINC00719909
REMARK  7 active torsions:
REMARK  status: ('A' for Active; 'I' for Inactive)
REMARK    1  A    between atoms: C_1  and  N_2
REMARK    2  A    between atoms: N_2  and  C_3
REMARK    3  A    between atoms: C_6  and  O_9
REMARK    4  A    between atoms: O_9  and  C_10
REMARK    5  A    between atoms: C_14  and  C_16
REMARK    6  A    between atoms: C_21  and  C_36
REMARK    7  A    between atoms: C_24  and  C_27
REMARK                            x       y       z     vdW  Elec       q    Type
REMARK                         _______ _______ _______ _____ _____    ______ ____
ROOT
ATOM      1  C   UNL     1      -0.194   0.300  -2.383  0.00  0.00    +0.149 A 
ATOM      2  C   UNL     1      -0.268  -0.183  -3.709  0.00  0.00    +0.078 A 
ATOM      3  C   UNL     1      -0.274   0.885  -4.531  0.00  0.00    +0.119 A 
ATOM      4  N   UNL     1      -0.205   2.013  -3.764  0.00  0.00    -0.238 N 
ATOM      5  N   UNL     1      -0.162   1.621  -2.427  0.00  0.00    -0.164 NA
ATOM      6  C   UNL     1      -0.186   3.371  -4.315  0.00  0.00    +0.215 C 
ATOM      7  C   UNL     1       0.228   3.302  -5.790  0.00  0.00    +0.063 C 
ATOM      8  C   UNL     1      -0.617   2.253  -6.521  0.00  0.00    +0.104 C 
ATOM      9  N   UNL     1      -0.339   0.930  -5.927  0.00  0.00    -0.322 N 
ATOM     10  H   UNL     1      -0.208   0.139  -6.473  0.00  0.00    +0.148 HD
ENDROOT
BRANCH   8  11
ATOM     11  C   UNL     1      -0.255   2.241  -7.984  0.00  0.00    -0.024 A 
ATOM     12  C   UNL     1       0.875   1.568  -8.409  0.00  0.00    +0.009 A 
ATOM     13  C   UNL     1       1.210   1.554  -9.751  0.00  0.00    +0.050 A 
ATOM     14  C   UNL     1       0.414   2.216 -10.671  0.00  0.00    +0.166 A 
ATOM     15  C   UNL     1      -0.724   2.894 -10.242  0.00  0.00    +0.167 A 
ATOM     16  C   UNL     1      -1.057   2.899  -8.897  0.00  0.00    +0.055 A 
ATOM     17  O   UNL     1      -1.331   3.458 -11.327  0.00  0.00    -0.453 OA
ATOM     18  C   UNL     1      -0.335   3.462 -12.366  0.00  0.00    +0.466 C 
ATOM     19  O   UNL     1       0.520   2.355 -12.025  0.00  0.00    -0.453 OA
ENDBRANCH   8  11
BRANCH   1  22
ATOM     20  C   UNL     1      -0.439   1.504   0.158  0.00  0.00    +0.138 C 
ATOM     21  N   UNL     1      -0.213   0.060   0.052  0.00  0.00    -0.269 N 
ATOM     22  C   UNL     1      -0.163  -0.527  -1.160  0.00  0.00    +0.271 C 
ATOM     23  O   UNL     1      -0.092  -1.738  -1.246  0.00  0.00    -0.268 OA
BRANCH  21  24
ATOM     24  C   UNL     1      -0.050  -0.710   1.211  0.00  0.00    +0.037 A 
ATOM     25  C   UNL     1       0.331  -2.042   1.112  0.00  0.00    +0.027 A 
ATOM     26  C   UNL     1       0.491  -2.800   2.254  0.00  0.00    +0.048 A 
ATOM     27  C   UNL     1       0.273  -2.232   3.501  0.00  0.00    +0.130 A 
ATOM     28  C   UNL     1      -0.107  -0.901   3.601  0.00  0.00    +0.048 A 
ATOM     29  C   UNL     1      -0.263  -0.140   2.459  0.00  0.00    +0.027 A 
BRANCH  27  30
ATOM     30  O   UNL     1       0.431  -2.979   4.626  0.00  0.00    -0.406 OA
BRANCH  30  31
ATOM     31  C   UNL     1       0.190  -2.330   5.875  0.00  0.00    +0.575 C 
ATOM     32  F   UNL     1      -1.131  -1.868   5.914  0.00  0.00    -0.133 F 
ATOM     33  F   UNL     1       0.397  -3.238   6.920  0.00  0.00    -0.133 F 
ATOM     34  F   UNL     1       1.066  -1.249   6.016  0.00  0.00    -0.133 F 
ENDBRANCH  30  31
ENDBRANCH  27  30
ENDBRANCH  21  24
ENDBRANCH   1  22
BRANCH   6  35
ATOM     35  C   UNL     1       0.818   4.225  -3.538  0.00  0.00    +0.412 C 
ATOM     36  F   UNL     1       2.094   3.661  -3.647  0.00  0.00    -0.168 F 
ATOM     37  F   UNL     1       0.835   5.521  -4.066  0.00  0.00    -0.168 F 
ATOM     38  F   UNL     1       0.443   4.275  -2.191  0.00  0.00    -0.168 F 
ENDBRANCH   6  35
TORSDOF 6
