REMARK  Name = ZINC20610828
REMARK  5 active torsions:
REMARK  status: ('A' for Active; 'I' for Inactive)
REMARK    1  A    between atoms: C_1  and  C_2
REMARK    2  A    between atoms: C_7  and  N_8
REMARK    3  A    between atoms: C_11  and  C_18
REMARK    4  A    between atoms: C_24  and  O_30
REMARK    5  A    between atoms: O_30  and  C_31
REMARK                            x       y       z     vdW  Elec       q    Type
REMARK                         _______ _______ _______ _____ _____    ______ ____
ROOT
ATOM      1  C   UNL     1      -2.431   1.347   4.920  0.00  0.00    +0.018 C 
ATOM      2  C   UNL     1      -3.151   0.086   5.333  0.00  0.00    +0.011 A 
ATOM      3  C   UNL     1      -4.485  -0.084   5.177  0.00  0.00    -0.022 A 
ATOM      4  C   UNL     1      -4.810  -1.400   5.677  0.00  0.00    +0.006 A 
ATOM      5  C   UNL     1      -6.011  -2.112   5.770  0.00  0.00    +0.056 A 
ATOM      6  C   UNL     1      -5.943  -3.384   6.319  0.00  0.00    +0.121 A 
ATOM      7  C   UNL     1      -4.742  -3.930   6.755  0.00  0.00    +0.047 A 
ATOM      8  C   UNL     1      -3.546  -3.242   6.671  0.00  0.00    +0.030 A 
ATOM      9  C   UNL     1      -3.586  -1.961   6.124  0.00  0.00    +0.047 A 
ATOM     10  N   UNL     1      -2.606  -1.033   5.901  0.00  0.00    -0.359 N 
ATOM     11  H   UNL     1      -1.667  -1.150   6.113  0.00  0.00    +0.166 HD
ATOM     12  C   UNL     1      -5.387   0.968   4.583  0.00  0.00    +0.018 C 
ATOM     13  C   UNL     1      -4.620   2.298   4.579  0.00  0.00    -0.076 C 
ATOM     14  N   UNL     1      -3.289   2.100   3.991  0.00  0.00    +0.388 N 
ATOM     15  H   UNL     1      -2.868   2.996   3.799  0.00  0.00    -0.084 HD
ATOM     16  H   UNL     1      -3.381   1.584   3.129  0.00  0.00    -0.084 HD
ENDROOT
BRANCH   1  20
ATOM     17  N   UNL     1       0.025  -0.013   2.418  0.00  0.00    -0.229 N 
ATOM     18  C   UNL     1      -1.144   0.296   3.014  0.00  0.00    +0.267 A 
ATOM     19  O   UNL     1      -2.200  -0.024   2.496  0.00  0.00    -0.267 OA
ATOM     20  C   UNL     1      -1.136   0.991   4.237  0.00  0.00    +0.073 A 
ATOM     21  C   UNL     1       0.058   1.337   4.795  0.00  0.00    +0.260 A 
ATOM     22  N   UNL     1       1.225   1.002   4.155  0.00  0.00    -0.274 N 
ATOM     23  H   UNL     1       2.077   1.246   4.548  0.00  0.00    +0.173 HD
ATOM     24  C   UNL     1       1.194   0.332   2.988  0.00  0.00    +0.337 A 
ATOM     25  O   UNL     1       2.238   0.040   2.438  0.00  0.00    -0.246 OA
ATOM     26  O   UNL     1       0.093   2.004   5.968  0.00  0.00    -0.267 OA
BRANCH  17  33
ATOM     27  C   UNL     1      -0.018   1.503   0.010  0.00  0.00    +0.046 C 
ATOM     28  C   UNL     1       0.002  -0.004   0.002  0.00  0.00    -0.026 A 
ATOM     29  C   UNL     1       0.006  -0.689  -1.198  0.00  0.00    +0.005 A 
ATOM     30  C   UNL     1       0.024  -2.071  -1.206  0.00  0.00    +0.000 A 
ATOM     31  C   UNL     1       0.039  -2.773  -0.014  0.00  0.00    +0.002 A 
ATOM     32  C   UNL     1       0.035  -2.094   1.188  0.00  0.00    +0.026 A 
ATOM     33  C   UNL     1       0.023  -0.705   1.200  0.00  0.00    +0.057 A 
ENDBRANCH  17  33
ENDBRANCH   1  20
BRANCH   6  34
ATOM     34  O   UNL     1      -7.083  -4.117   6.432  0.00  0.00    -0.495 OA
ATOM     35  C   UNL     1      -6.962  -5.421   7.003  0.00  0.00    +0.277 C 
ENDBRANCH   6  34
TORSDOF 3
