REMARK  Name = ZINC00718512
REMARK  4 active torsions:
REMARK  status: ('A' for Active; 'I' for Inactive)
REMARK    1  A    between atoms: C_4  and  C_7
REMARK    2  A    between atoms: C_14  and  N_27
REMARK    3  A    between atoms: C_15  and  C_25
REMARK    4  A    between atoms: C_16  and  C_18
REMARK                            x       y       z     vdW  Elec       q    Type
REMARK                         _______ _______ _______ _____ _____    ______ ____
ROOT
ATOM      1  C   UNL     1       4.104  -1.053  -0.230  0.00  0.00    +0.100 A 
ATOM      2  C   UNL     1       4.185  -2.113   0.678  0.00  0.00    +0.054 A 
ATOM      3  C   UNL     1       5.443  -2.638   0.604  0.00  0.00    +0.223 A 
ATOM      4  N   UNL     1       6.128  -1.933  -0.320  0.00  0.00    -0.246 N 
ATOM      5  H   UNL     1       7.049  -2.083  -0.585  0.00  0.00    +0.192 HD
ATOM      6  N   UNL     1       5.272  -0.947  -0.836  0.00  0.00    -0.171 NA
ATOM      7  O   UNL     1       5.846  -3.684   1.367  0.00  0.00    -0.423 OA
ATOM      8  C   UNL     1       5.064  -4.035   2.409  0.00  0.00    +0.200 C 
ATOM      9  C   UNL     1       3.800  -3.591   2.583  0.00  0.00    +0.098 C 
ATOM     10  C   UNL     1       3.131  -2.652   1.611  0.00  0.00    +0.103 C 
ENDROOT
BRANCH  10  11
ATOM     11  C   UNL     1       2.086  -3.397   0.821  0.00  0.00    -0.021 A 
ATOM     12  C   UNL     1       2.465  -4.392  -0.061  0.00  0.00    +0.005 A 
ATOM     13  C   UNL     1       1.506  -5.074  -0.786  0.00  0.00    +0.000 A 
ATOM     14  C   UNL     1       0.168  -4.763  -0.629  0.00  0.00    +0.001 A 
ATOM     15  C   UNL     1      -0.211  -3.768   0.252  0.00  0.00    +0.014 A 
ATOM     16  C   UNL     1       0.748  -3.088   0.982  0.00  0.00    +0.017 A 
ATOM     17  I   UNL     1       0.173  -1.586   2.324  0.00  0.00    -0.044 I 
ENDBRANCH  10  11
BRANCH   1  21
ATOM     18  C   UNL     1       0.692   1.386  -0.932  0.00  0.00    +0.000 A 
ATOM     19  C   UNL     1       1.059   1.071   0.363  0.00  0.00    +0.001 A 
ATOM     20  C   UNL     1       2.166   0.280   0.597  0.00  0.00    +0.010 A 
ATOM     21  C   UNL     1       2.913  -0.202  -0.475  0.00  0.00    +0.003 A 
ATOM     22  C   UNL     1       2.539   0.118  -1.779  0.00  0.00    +0.010 A 
ATOM     23  C   UNL     1       1.431   0.910  -2.001  0.00  0.00    +0.001 A 
ENDBRANCH   1  21
BRANCH   8  24
ATOM     24  N   UNL     1       5.584  -4.892   3.347  0.00  0.00    -0.328 N 
ATOM     25  H   UNL     1       6.489  -5.227   3.249  0.00  0.00    +0.145 HD
ATOM     26  H   UNL     1       5.046  -5.162   4.108  0.00  0.00    +0.145 HD
ENDBRANCH   8  24
BRANCH   9  27
ATOM     27  C   UNL     1       3.067  -4.030   3.733  0.00  0.00    +0.101 C 
ATOM     28  N   UNL     1       2.486  -4.378   4.645  0.00  0.00    -0.191 NA
ENDBRANCH   9  27
TORSDOF 4
