REMARK  Name = ZINC27595944
REMARK  15 active torsions:
REMARK  status: ('A' for Active; 'I' for Inactive)
REMARK    1  A    between atoms: C_1  and  C_2
REMARK    2  A    between atoms: C_2  and  C_3
REMARK    3  A    between atoms: C_6  and  C_9
REMARK    4  A    between atoms: C_9  and  C_11
REMARK    5  A    between atoms: C_9  and  N_33
REMARK    6  A    between atoms: C_11  and  N_12
REMARK    7  A    between atoms: C_13  and  C_15
REMARK    8  A    between atoms: C_15  and  C_17
REMARK    9  A    between atoms: C_15  and  S_18
REMARK   10  A    between atoms: S_18  and  C_19
REMARK   11  A    between atoms: C_19  and  C_20
REMARK   12  A    between atoms: C_26  and  C_32
REMARK   13  A    between atoms: C_27  and  C_31
REMARK   14  A    between atoms: N_33  and  C_34
REMARK   15  A    between atoms: N_33  and  C_35
REMARK                            x       y       z     vdW  Elec       q    Type
REMARK                         _______ _______ _______ _____ _____    ______ ____
ROOT
ATOM      1  N   UNL     1       4.281  -1.903  -6.422  0.00  0.00    -0.316 N 
ATOM      2  C   UNL     1       5.122  -1.252  -7.249  0.00  0.00    +0.226 C 
ATOM      3  O   UNL     1       5.173  -0.040  -7.230  0.00  0.00    -0.275 OA
ATOM      4  H   UNL     1       4.240  -2.872  -6.437  0.00  0.00    +0.149 HD
ENDROOT
BRANCH   2   5
ATOM      5  C   UNL     1       6.000  -2.028  -8.196  0.00  0.00    +0.129 C 
ATOM      6  C   UNL     1       7.218  -2.564  -7.441  0.00  0.00    +0.029 C 
BRANCH   5   7
ATOM      7  S   UNL     1       6.551  -0.940  -9.539  0.00  0.00    -0.141 S 
BRANCH   7   8
ATOM      8  C   UNL     1       7.455  -2.047 -10.657  0.00  0.00    +0.144 C 
BRANCH   8   9
ATOM      9  C   UNL     1       7.974  -1.259 -11.832  0.00  0.00    +0.121 A 
ATOM     10  N   UNL     1       8.681  -1.895 -12.802  0.00  0.00    -0.310 N 
ATOM     11  H   UNL     1       8.842  -2.848 -12.724  0.00  0.00    +0.170 HD
ATOM     12  C   UNL     1       9.162  -1.229 -13.868  0.00  0.00    +0.260 A 
ATOM     13  O   UNL     1       9.793  -1.815 -14.730  0.00  0.00    -0.267 OA
ATOM     14  C   UNL     1       8.919   0.179 -13.974  0.00  0.00    +0.075 A 
ATOM     15  C   UNL     1       9.326   1.108 -15.012  0.00  0.00    -0.026 A 
ATOM     16  C   UNL     1       8.984   2.402 -14.905  0.00  0.00    -0.008 A 
ATOM     17  S   UNL     1       8.073   2.462 -13.373  0.00  0.00    -0.073 S 
ATOM     18  C   UNL     1       8.180   0.749 -12.922  0.00  0.00    +0.116 A 
ATOM     19  N   UNL     1       7.732   0.023 -11.902  0.00  0.00    -0.226 NA
ATOM     20  C   UNL     1       9.294   3.532 -15.852  0.00  0.00    +0.052 C 
ATOM     21  C   UNL     1      10.125   0.626 -16.195  0.00  0.00    +0.045 C 
ENDBRANCH   8   9
ENDBRANCH   7   8
ENDBRANCH   5   7
ENDBRANCH   2   5
BRANCH   1  22
ATOM     22  C   UNL     1       3.428  -1.148  -5.501  0.00  0.00    +0.093 C 
BRANCH  22  23
ATOM     23  C   UNL     1       2.646  -2.121  -4.616  0.00  0.00    -0.021 C 
BRANCH  23  27
ATOM     24  C   UNL     1      -0.010  -4.430  -7.037  0.00  0.00    -0.048 A 
ATOM     25  C   UNL     1       1.195  -4.969  -6.626  0.00  0.00    +0.004 A 
ATOM     26  C   UNL     1       2.054  -4.221  -5.843  0.00  0.00    +0.002 A 
ATOM     27  C   UNL     1       1.709  -2.936  -5.471  0.00  0.00    -0.059 A 
ATOM     28  C   UNL     1       0.505  -2.397  -5.883  0.00  0.00    +0.002 A 
ATOM     29  C   UNL     1      -0.353  -3.142  -6.669  0.00  0.00    +0.004 A 
BRANCH  24  31
ATOM     30  C   UNL     1      -0.625  -5.011  -9.368  0.00  0.00    +0.009 C 
ATOM     31  C   UNL     1      -0.948  -5.245  -7.891  0.00  0.00    +0.032 C 
ENDBRANCH  24  31
ENDBRANCH  23  27
BRANCH  23  32
ATOM     32  N   UNL     1       1.871  -1.365  -3.623  0.00  0.00    +0.382 N 
ATOM     33  C   UNL     1       1.085  -2.297  -2.803  0.00  0.00    -0.096 C 
ATOM     34  C   UNL     1       2.787  -0.607  -2.761  0.00  0.00    -0.096 C 
ATOM     35  H   UNL     1       1.249  -0.728  -4.097  0.00  0.00    -0.082 HD
ENDBRANCH  23  32
ENDBRANCH  22  23
ENDBRANCH   1  22
TORSDOF 9
