REMARK  Name = ZINC01505364
REMARK  7 active torsions:
REMARK  status: ('A' for Active; 'I' for Inactive)
REMARK    1  A    between atoms: C_1  and  C_2
REMARK    2  A    between atoms: C_2  and  C_29
REMARK    3  A    between atoms: C_3  and  N_18
REMARK    4  A    between atoms: N_5  and  C_9
REMARK    5  A    between atoms: C_9  and  C_10
REMARK    6  A    between atoms: N_18  and  O_28
REMARK    7  A    between atoms: N_21  and  C_22
REMARK                            x       y       z     vdW  Elec       q    Type
REMARK                         _______ _______ _______ _____ _____    ______ ____
ROOT
ATOM      1  C   UNL     1      -3.422   7.042  -2.048  0.00  0.00    +0.026 C 
ATOM      2  C   UNL     1      -3.336   6.173  -0.792  0.00  0.00    +0.054 C 
ATOM      3  C   UNL     1      -1.912   6.189  -0.201  0.00  0.00    +0.210 C 
ATOM      4  N   UNL     1      -1.857   6.740   1.133  0.00  0.00    -0.293 N 
ATOM      5  C   UNL     1      -2.967   7.179   1.742  0.00  0.00    +0.112 C 
ATOM      6  S   UNL     1      -3.087   7.857   3.310  0.00  0.00    -0.028 S 
ATOM      7  S   UNL     1      -4.293   6.911   0.583  0.00  0.00    -0.093 S 
ATOM      8  C   UNL     1      -3.799   4.744  -1.080  0.00  0.00    +0.026 C 
ENDROOT
BRANCH   3   9
ATOM      9  N   UNL     1      -1.402   4.816  -0.164  0.00  0.00    -0.145 N 
ATOM     10  C   UNL     1      -0.674   4.339  -1.192  0.00  0.00    +0.331 C 
ATOM     11  O   UNL     1      -0.384   5.069  -2.121  0.00  0.00    -0.250 OA
ATOM     12  N   UNL     1      -0.268   3.054  -1.192  0.00  0.00    -0.268 N 
ATOM     13  H   UNL     1      -0.554   2.455  -0.485  0.00  0.00    +0.156 HD
BRANCH  12  14
ATOM     14  C   UNL     1       0.568   2.584  -2.212  0.00  0.00    +0.035 A 
ATOM     15  C   UNL     1       0.414   3.056  -3.509  0.00  0.00    +0.023 A 
ATOM     16  C   UNL     1       1.236   2.585  -4.515  0.00  0.00    +0.002 A 
ATOM     17  C   UNL     1       2.211   1.646  -4.231  0.00  0.00    +0.000 A 
ATOM     18  C   UNL     1       2.366   1.176  -2.940  0.00  0.00    +0.002 A 
ATOM     19  C   UNL     1       1.548   1.642  -1.930  0.00  0.00    +0.023 A 
ENDBRANCH  12  14
BRANCH   9  20
ATOM     20  O   UNL     1      -1.675   3.989   0.953  0.00  0.00    -0.290 OA
ATOM     21  H   UNL     1      -2.147   4.438   1.668  0.00  0.00    +0.242 HD
ENDBRANCH   9  20
ENDBRANCH   3   9
BRANCH   4  22
ATOM     22  C   UNL     1      -0.570   6.821   1.830  0.00  0.00    +0.149 C 
BRANCH  22  23
ATOM     23  C   UNL     1       0.154   8.072   1.404  0.00  0.00    +0.040 A 
ATOM     24  C   UNL     1       0.957   8.059   0.277  0.00  0.00    +0.131 A 
ATOM     25  C   UNL     1       1.618   9.210  -0.116  0.00  0.00    +0.039 A 
ATOM     26  C   UNL     1       1.484  10.370   0.623  0.00  0.00    +0.006 A 
ATOM     27  C   UNL     1       0.687  10.384   1.751  0.00  0.00    +0.039 A 
ATOM     28  C   UNL     1       0.021   9.235   2.143  0.00  0.00    +0.131 A 
ATOM     29  F   UNL     1      -0.758   9.249   3.247  0.00  0.00    -0.205 F 
ATOM     30  F   UNL     1       1.092   6.923  -0.443  0.00  0.00    -0.205 F 
ENDBRANCH  22  23
ENDBRANCH   4  22
TORSDOF 5
