REMARK  Name = ZINC41606948
REMARK  7 active torsions:
REMARK  status: ('A' for Active; 'I' for Inactive)
REMARK    1  A    between atoms: C_1  and  C_2
REMARK    2  A    between atoms: C_2  and  C_4
REMARK    3  A    between atoms: C_2  and  S_16
REMARK    4  A    between atoms: N_6  and  C_7
REMARK    5  A    between atoms: C_10  and  C_13
REMARK    6  A    between atoms: C_13  and  C_15
REMARK    7  A    between atoms: S_16  and  C_17
REMARK                            x       y       z     vdW  Elec       q    Type
REMARK                         _______ _______ _______ _____ _____    ______ ____
ROOT
ATOM      1  C   UNL     1      -0.004   1.532   0.016  0.00  0.00    +0.029 C 
ATOM      2  C   UNL     1       0.003   0.002   0.004  0.00  0.00    +0.137 C 
ENDROOT
BRANCH   2   3
ATOM      3  C   UNL     1       0.730  -0.506   1.222  0.00  0.00    +0.230 C 
ATOM      4  O   UNL     1       1.907  -0.788   1.152  0.00  0.00    -0.274 OA
ATOM      5  N   UNL     1       0.071  -0.647   2.389  0.00  0.00    -0.285 N 
ATOM      6  H   UNL     1      -0.852  -0.360   2.463  0.00  0.00    +0.155 HD
BRANCH   5   7
ATOM      7  C   UNL     1       0.717  -1.206   3.490  0.00  0.00    +0.033 A 
ATOM      8  C   UNL     1       0.007  -2.012   4.376  0.00  0.00    +0.024 A 
ATOM      9  C   UNL     1       0.638  -2.565   5.460  0.00  0.00    +0.013 A 
ATOM     10  C   UNL     1       2.000  -2.317   5.676  0.00  0.00    +0.017 A 
ATOM     11  C   UNL     1       2.710  -1.506   4.782  0.00  0.00    +0.013 A 
ATOM     12  C   UNL     1       2.072  -0.962   3.698  0.00  0.00    +0.024 A 
BRANCH  10  13
ATOM     13  C   UNL     1       2.680  -2.907   6.836  0.00  0.00    +0.160 C 
ATOM     14  O   UNL     1       2.063  -3.609   7.609  0.00  0.00    -0.292 OA
ATOM     15  C   UNL     1       4.145  -2.639   7.066  0.00  0.00    +0.091 C 
ENDBRANCH  10  13
ENDBRANCH   5   7
ENDBRANCH   2   3
BRANCH   2  16
ATOM     16  S   UNL     1       0.844  -0.587  -1.492  0.00  0.00    -0.073 S 
BRANCH  16  17
ATOM     17  C   UNL     1      -0.194  -0.042  -2.807  0.00  0.00    +0.193 A 
ATOM     18  N   UNL     1      -1.296   0.639  -2.527  0.00  0.00    -0.183 NA
ATOM     19  C   UNL     1      -2.085   1.055  -3.502  0.00  0.00    +0.278 A 
ATOM     20  O   UNL     1      -3.211   1.751  -3.211  0.00  0.00    -0.265 OA
ATOM     21  C   UNL     1      -1.758   0.776  -4.843  0.00  0.00    +0.051 A 
ATOM     22  C   UNL     1      -0.610   0.069  -5.092  0.00  0.00    +0.063 A 
ATOM     23  N   UNL     1       0.142  -0.315  -4.053  0.00  0.00    -0.226 NA
ATOM     24  C   UNL     1      -0.281  -0.219  -6.556  0.00  0.00    +0.125 C 
ATOM     25  S   UNL     1      -1.888   0.135  -7.380  0.00  0.00    -0.150 S 
ATOM     26  C   UNL     1      -2.586   1.201  -6.053  0.00  0.00    +0.112 C 
ENDBRANCH  16  17
ENDBRANCH   2  16
TORSDOF 5
