REMARK  Name = ZINC05678343
REMARK  5 active torsions:
REMARK  status: ('A' for Active; 'I' for Inactive)
REMARK    1  A    between atoms: C_1  and  C_2
REMARK    2  A    between atoms: C_5  and  C_7
REMARK    3  A    between atoms: N_8  and  N_9
REMARK    4  A    between atoms: C_10  and  C_12
REMARK    5  A    between atoms: C_15  and  N_17
REMARK                            x       y       z     vdW  Elec       q    Type
REMARK                         _______ _______ _______ _____ _____    ______ ____
ROOT
ATOM      1  N   UNL     1       0.813   5.641   0.025  0.00  0.00    -0.200 N 
ATOM      2  C   UNL     1       1.419   4.437   0.013  0.00  0.00    +0.299 C 
ATOM      3  O   UNL     1       2.634   4.368   0.002  0.00  0.00    -0.265 OA
ATOM      4  H   UNL     1      -0.285   5.704   0.035  0.00  0.00    +0.178 HD
ENDROOT
BRANCH   2   5
ATOM      5  C   UNL     1       0.617   3.214   0.013  0.00  0.00    +0.194 A 
ATOM      6  C   UNL     1       1.103   1.922   0.002  0.00  0.00    +0.057 A 
ATOM      7  C   UNL     1      -0.013   1.076   0.008  0.00  0.00    +0.076 A 
ATOM      8  C   UNL     1      -1.113   1.864   0.017  0.00  0.00    +0.280 A 
ATOM      9  O   UNL     1      -0.731   3.147   0.026  0.00  0.00    -0.429 OA
BRANCH   8  10
ATOM     10  N   UNL     1      -2.514   1.385   0.020  0.00  0.00    +0.093 N 
ATOM     11  O   UNL     1      -2.768   0.093   0.014  0.00  0.00    -0.123 OA
ATOM     12  O   UNL     1      -3.506   2.251   0.029  0.00  0.00    -0.123 OA
ENDBRANCH   8  10
ENDBRANCH   2   5
BRANCH   1  14
ATOM     13  C   UNL     1       0.918   7.915   0.037  0.00  0.00    +0.145 C 
ATOM     14  N   UNL     1       1.520   6.720   0.025  0.00  0.00    -0.187 NA
BRANCH  13  19
ATOM     15  C   UNL     1       4.776  11.846   0.025  0.00  0.00    +0.053 C 
ATOM     16  C   UNL     1       3.541  10.982   0.031  0.00  0.00    +0.001 A 
ATOM     17  C   UNL     1       2.196  11.396   0.045  0.00  0.00    +0.028 A 
ATOM     18  C   UNL     1       1.227  10.480   0.049  0.00  0.00    +0.032 A 
ATOM     19  C   UNL     1       1.675   9.070   0.037  0.00  0.00    +0.033 A 
ATOM     20  S   UNL     1       3.450   9.252   0.030  0.00  0.00    -0.091 S 
ATOM     21 BR   UNL     1       1.766  13.238   0.060  0.00  0.00    -0.049 Br
ENDBRANCH  13  19
ENDBRANCH   1  14
TORSDOF 4
