REMARK  Name = ZINC02354243
REMARK  6 active torsions:
REMARK  status: ('A' for Active; 'I' for Inactive)
REMARK    1  A    between atoms: C_3  and  C_6
REMARK    2  A    between atoms: C_6  and  N_7
REMARK    3  A    between atoms: N_7  and  C_8
REMARK    4  A    between atoms: N_11  and  C_16
REMARK    5  A    between atoms: C_25  and  C_28
REMARK    6  A    between atoms: C_28  and  C_29
REMARK                            x       y       z     vdW  Elec       q    Type
REMARK                         _______ _______ _______ _____ _____    ______ ____
ROOT
ATOM      1  C   UNL     1       5.464   0.574   1.586  0.00  0.00    +0.071 A 
ATOM      2  C   UNL     1       6.376   0.564   0.509  0.00  0.00    +0.157 A 
ATOM      3  N   UNL     1       7.660   0.533   0.732  0.00  0.00    -0.174 NA
ATOM      4  N   UNL     1       8.165   0.509   2.037  0.00  0.00    -0.222 N 
ATOM      5  C   UNL     1       7.331   0.517   3.095  0.00  0.00    +0.288 A 
ATOM      6  O   UNL     1       7.779   0.496   4.231  0.00  0.00    -0.265 OA
ATOM      7  C   UNL     1       5.945   0.556   2.883  0.00  0.00    +0.129 A 
ATOM      8 CL   UNL     1       4.848   0.575   4.229  0.00  0.00    -0.076 Cl
ENDROOT
BRANCH   4   9
ATOM      9  C   UNL     1       9.614   0.474   2.254  0.00  0.00    +0.068 C 
ATOM     10  C   UNL     1       9.982  -0.792   3.031  0.00  0.00    +0.034 C 
ATOM     11  C   UNL     1      11.495  -0.829   3.258  0.00  0.00    -0.008 C 
ATOM     12  C   UNL     1      11.920   0.404   4.059  0.00  0.00    +0.007 C 
ATOM     13  C   UNL     1      11.552   1.669   3.282  0.00  0.00    -0.008 C 
ATOM     14  C   UNL     1      10.039   1.706   3.055  0.00  0.00    +0.034 C 
ATOM     15  C   UNL     1      12.270   1.666   1.931  0.00  0.00    +0.011 C 
ATOM     16  C   UNL     1      11.845   0.433   1.130  0.00  0.00    -0.016 C 
ATOM     17  C   UNL     1      12.213  -0.832   1.907  0.00  0.00    +0.011 C 
ATOM     18  C   UNL     1      10.332   0.470   0.903  0.00  0.00    +0.037 C 
BRANCH  16  19
ATOM     19  C   UNL     1      12.563   0.430  -0.221  0.00  0.00    +0.132 C 
BRANCH  19  20
ATOM     20  C   UNL     1      14.053   0.394   0.003  0.00  0.00    +0.357 C 
ATOM     21  O   UNL     1      14.499   0.373   1.138  0.00  0.00    -0.246 OA
ATOM     22  O   UNL     1      14.813   0.386  -0.951  0.00  0.00    -0.246 OA
ENDBRANCH  19  20
ENDBRANCH  16  19
ENDBRANCH   4   9
BRANCH   1  23
ATOM     23  N   UNL     1       4.101   0.607   1.347  0.00  0.00    -0.334 N 
ATOM     24  H   UNL     1       3.478   0.617   2.090  0.00  0.00    +0.147 HD
BRANCH  23  25
ATOM     25  C   UNL     1       3.599   0.625  -0.029  0.00  0.00    +0.176 C 
BRANCH  25  28
ATOM     26  C   UNL     1      -0.016   1.341   0.009  0.00  0.00    +0.041 A 
ATOM     27  C   UNL     1       1.331   1.769  -0.001  0.00  0.00    +0.046 A 
ATOM     28  C   UNL     1       2.092   0.660  -0.014  0.00  0.00    +0.122 A 
ATOM     29  O   UNL     1       1.282  -0.411  -0.012  0.00  0.00    -0.466 OA
ATOM     30  C   UNL     1       0.002  -0.004   0.002  0.00  0.00    +0.195 A 
ENDBRANCH  25  28
ENDBRANCH  23  25
ENDBRANCH   1  23
TORSDOF 6
