REMARK  Name = ZINC58754097
REMARK  10 active torsions:
REMARK  status: ('A' for Active; 'I' for Inactive)
REMARK    1  A    between atoms: C_4  and  C_7
REMARK    2  A    between atoms: C_7  and  N_8
REMARK    3  A    between atoms: C_9  and  N_36
REMARK    4  A    between atoms: C_10  and  N_17
REMARK    5  A    between atoms: N_17  and  C_18
REMARK    6  A    between atoms: N_17  and  C_29
REMARK    7  A    between atoms: C_18  and  C_19
REMARK    8  A    between atoms: C_19  and  C_20
REMARK    9  A    between atoms: N_22  and  C_23
REMARK   10  A    between atoms: C_29  and  C_30
REMARK                            x       y       z     vdW  Elec       q    Type
REMARK                         _______ _______ _______ _____ _____    ______ ____
ROOT
ATOM      1  N   UNL     1       6.235   0.670   3.912  0.00  0.00    -0.318 N 
ENDROOT
BRANCH   1   4
ATOM      2  N   UNL     1       5.016  -1.806   1.491  0.00  0.00    -0.276 N 
ATOM      3  C   UNL     1       5.840  -0.897   2.115  0.00  0.00    +0.127 A 
ATOM      4  C   UNL     1       5.407  -0.268   3.251  0.00  0.00    +0.134 A 
ATOM      5  C   UNL     1       4.127  -0.567   3.751  0.00  0.00    +0.277 A 
ATOM      6  O   UNL     1       3.719  -0.018   4.761  0.00  0.00    -0.266 OA
ATOM      7  N   UNL     1       3.354  -1.463   3.107  0.00  0.00    -0.273 N 
ATOM      8  H   UNL     1       2.471  -1.670   3.450  0.00  0.00    +0.173 HD
ATOM      9  C   UNL     1       3.793  -2.069   1.989  0.00  0.00    +0.331 A 
ATOM     10  O   UNL     1       3.076  -2.871   1.422  0.00  0.00    -0.246 OA
BRANCH   3  11
ATOM     11  N   UNL     1       7.088  -0.625   1.603  0.00  0.00    -0.343 N 
ATOM     12  H   UNL     1       7.419  -1.126   0.841  0.00  0.00    +0.144 HD
ATOM     13  H   UNL     1       7.636   0.068   2.004  0.00  0.00    +0.144 HD
ENDBRANCH   3  11
BRANCH   2  14
ATOM     14  C   UNL     1       5.469  -2.485   0.275  0.00  0.00    +0.163 C 
BRANCH  14  18
ATOM     15  C   UNL     1       4.360  -0.178  -3.145  0.00  0.00    +0.000 A 
ATOM     16  C   UNL     1       5.580   0.038  -2.531  0.00  0.00    +0.000 A 
ATOM     17  C   UNL     1       5.939  -0.709  -1.425  0.00  0.00    +0.005 A 
ATOM     18  C   UNL     1       5.077  -1.670  -0.931  0.00  0.00    -0.028 A 
ATOM     19  C   UNL     1       3.857  -1.885  -1.544  0.00  0.00    +0.005 A 
ATOM     20  C   UNL     1       3.499  -1.140  -2.651  0.00  0.00    +0.000 A 
ENDBRANCH  14  18
ENDBRANCH   2  14
ENDBRANCH   1   4
BRANCH   1  21
ATOM     21  C   UNL     1       6.731   0.386   5.261  0.00  0.00    +0.115 C 
BRANCH  21  22
ATOM     22  C   UNL     1       8.127  -0.234   5.170  0.00  0.00    +0.115 C 
BRANCH  22  23
ATOM     23  C   UNL     1       8.637  -0.526   6.558  0.00  0.00    +0.219 C 
ATOM     24  O   UNL     1       7.952  -0.265   7.524  0.00  0.00    -0.275 OA
ATOM     25  N   UNL     1       9.855  -1.079   6.726  0.00  0.00    -0.285 N 
ATOM     26  H   UNL     1      10.434  -1.217   5.960  0.00  0.00    +0.155 HD
BRANCH  25  27
ATOM     27  C   UNL     1      10.283  -1.454   8.004  0.00  0.00    +0.033 A 
ATOM     28  C   UNL     1      11.621  -1.326   8.355  0.00  0.00    +0.023 A 
ATOM     29  C   UNL     1      12.040  -1.697   9.617  0.00  0.00    +0.002 A 
ATOM     30  C   UNL     1      11.130  -2.194  10.532  0.00  0.00    +0.000 A 
ATOM     31  C   UNL     1       9.798  -2.323  10.185  0.00  0.00    +0.002 A 
ATOM     32  C   UNL     1       9.371  -1.948   8.926  0.00  0.00    +0.023 A 
ENDBRANCH  25  27
ENDBRANCH  22  23
ENDBRANCH  21  22
ENDBRANCH   1  21
BRANCH   1  33
ATOM     33  C   UNL     1       6.596   1.925   3.247  0.00  0.00    +0.140 C 
BRANCH  33  34
ATOM     34  C   UNL     1       5.509   2.944   3.474  0.00  0.00    -0.030 A 
ATOM     35  C   UNL     1       4.404   2.972   2.645  0.00  0.00    +0.005 A 
ATOM     36  C   UNL     1       3.407   3.907   2.853  0.00  0.00    +0.000 A 
ATOM     37  C   UNL     1       3.516   4.814   3.891  0.00  0.00    +0.000 A 
ATOM     38  C   UNL     1       4.621   4.785   4.721  0.00  0.00    +0.000 A 
ATOM     39  C   UNL     1       5.615   3.847   4.515  0.00  0.00    +0.005 A 
ENDBRANCH  33  34
ENDBRANCH   1  33
TORSDOF 10
