REMARK  Name = ZINC64482304
REMARK  10 active torsions:
REMARK  status: ('A' for Active; 'I' for Inactive)
REMARK    1  A    between atoms: C_1  and  C_2
REMARK    2  A    between atoms: C_7  and  C_37
REMARK    3  A    between atoms: C_8  and  C_15
REMARK    4  A    between atoms: C_15  and  C_16
REMARK    5  A    between atoms: C_19  and  S_22
REMARK    6  A    between atoms: N_20  and  C_21
REMARK    7  A    between atoms: S_22  and  C_23
REMARK    8  A    between atoms: C_23  and  C_24
REMARK    9  A    between atoms: N_26  and  C_27
REMARK   10  A    between atoms: C_27  and  C_28
REMARK                            x       y       z     vdW  Elec       q    Type
REMARK                         _______ _______ _______ _____ _____    ______ ____
ROOT
ATOM      1  C   UNL     1      -1.017  -6.591   2.532  0.00  0.00    +0.138 A 
ATOM      2  N   UNL     1      -2.035  -7.294   2.125  0.00  0.00    -0.133 NA
ATOM      3  N   UNL     1      -1.636  -8.429   1.674  0.00  0.00    -0.122 NA
ATOM      4  C   UNL     1      -0.329  -8.512   1.769  0.00  0.00    +0.192 A 
ATOM      5  N   UNL     1       0.107  -7.339   2.315  0.00  0.00    -0.309 N 
ATOM      6  C   UNL     1       1.492  -6.962   2.610  0.00  0.00    +0.152 C 
ENDROOT
BRANCH   1   7
ATOM      7  C   UNL     1      -1.067  -5.206   3.125  0.00  0.00    +0.118 C 
BRANCH   7  14
ATOM      8  C   UNL     1      -0.212   1.331  -0.415  0.00  0.00    +0.043 C 
ATOM      9  C   UNL     1      -0.204  -0.175  -0.348  0.00  0.00    -0.050 C 
ATOM     10  C   UNL     1      -1.351  -0.844  -0.222  0.00  0.00    +0.018 C 
ATOM     11  C   UNL     1      -1.324  -2.350  -0.148  0.00  0.00    +0.190 C 
ATOM     12  N   UNL     1      -2.470  -2.848   0.590  0.00  0.00    -0.325 N 
ATOM     13  C   UNL     1      -2.365  -3.745   1.607  0.00  0.00    +0.011 C 
ATOM     14  C   UNL     1      -1.161  -4.188   2.018  0.00  0.00    +0.039 C 
ATOM     15  H   UNL     1      -3.353  -2.526   0.348  0.00  0.00    +0.148 HD
ATOM     16  C   UNL     1       0.013  -3.695   1.407  0.00  0.00    +0.250 C 
ATOM     17  O   UNL     1       1.100  -4.108   1.772  0.00  0.00    -0.270 OA
ATOM     18  N   UNL     1      -0.060  -2.777   0.444  0.00  0.00    -0.252 N 
ATOM     19  C   UNL     1       1.115  -2.189  -0.017  0.00  0.00    +0.080 C 
ATOM     20  C   UNL     1       1.066  -0.909  -0.427  0.00  0.00    +0.018 C 
ATOM     21  C   UNL     1      -3.613  -4.250   2.285  0.00  0.00    +0.061 C 
ENDBRANCH   7  14
ENDBRANCH   1   7
BRANCH   4  22
ATOM     22  S   UNL     1       0.672  -9.876   1.279  0.00  0.00    -0.077 S 
BRANCH  22  23
ATOM     23  C   UNL     1      -0.517 -11.085   0.635  0.00  0.00    +0.173 C 
BRANCH  23  24
ATOM     24  C   UNL     1       0.218 -12.318   0.175  0.00  0.00    +0.223 C 
ATOM     25  O   UNL     1       1.426 -12.375   0.272  0.00  0.00    -0.275 OA
ATOM     26  N   UNL     1      -0.466 -13.356  -0.344  0.00  0.00    -0.311 N 
ATOM     27  H   UNL     1      -1.432 -13.311  -0.421  0.00  0.00    +0.149 HD
BRANCH  26  28
ATOM     28  C   UNL     1       0.249 -14.555  -0.791  0.00  0.00    +0.151 C 
BRANCH  28  29
ATOM     29  C   UNL     1      -0.754 -15.574  -1.333  0.00  0.00    +0.191 C 
ATOM     30  N   UNL     1      -1.542 -14.977  -2.419  0.00  0.00    -0.362 N 
ATOM     31  C   UNL     1      -2.791 -14.999  -2.053  0.00  0.00    +0.060 A 
ATOM     32  C   UNL     1      -4.031 -14.551  -2.703  0.00  0.00    +0.027 A 
ATOM     33  C   UNL     1      -5.209 -14.706  -2.067  0.00  0.00    +0.002 A 
ATOM     34  C   UNL     1      -5.310 -15.286  -0.789  0.00  0.00    +0.002 A 
ATOM     35  C   UNL     1      -4.237 -15.730  -0.105  0.00  0.00    +0.027 A 
ATOM     36  C   UNL     1      -2.898 -15.613  -0.701  0.00  0.00    +0.060 A 
ATOM     37  N   UNL     1      -1.712 -15.947  -0.284  0.00  0.00    -0.362 N 
ATOM     38  H   UNL     1      -1.196 -14.630  -3.256  0.00  0.00    +0.162 HD
ATOM     39  H   UNL     1      -1.498 -16.366   0.564  0.00  0.00    +0.162 HD
ENDBRANCH  28  29
ENDBRANCH  26  28
ENDBRANCH  23  24
ENDBRANCH  22  23
ENDBRANCH   4  22
TORSDOF 7
