REMARK  Name = ZINC33911985
REMARK  7 active torsions:
REMARK  status: ('A' for Active; 'I' for Inactive)
REMARK    1  A    between atoms: C_1  and  C_2
REMARK    2  A    between atoms: C_4  and  C_16
REMARK    3  A    between atoms: C_5  and  C_15
REMARK    4  A    between atoms: N_6  and  C_7
REMARK    5  A    between atoms: C_10  and  O_13
REMARK    6  A    between atoms: O_13  and  C_14
REMARK    7  A    between atoms: C_28  and  C_29
REMARK                            x       y       z     vdW  Elec       q    Type
REMARK                         _______ _______ _______ _____ _____    ______ ____
ROOT
ATOM      1  C   UNL     1       0.041  -3.340  -1.427  0.00  0.00    +0.026 C 
ATOM      2  C   UNL     1      -0.069  -3.241  -2.799  0.00  0.00    +0.085 A 
ATOM      3  C   UNL     1      -0.177  -4.446  -3.667  0.00  0.00    +0.160 A 
ATOM      4  N   UNL     1      -0.780  -5.546  -3.299  0.00  0.00    -0.281 NA
ATOM      5  N   UNL     1       0.435  -4.283  -4.926  0.00  0.00    -0.212 N 
ATOM      6  C   UNL     1       0.568  -2.995  -5.411  0.00  0.00    +0.199 A 
ATOM      7  N   UNL     1       0.304  -1.883  -4.781  0.00  0.00    -0.182 NA
ATOM      8  C   UNL     1      -0.094  -1.929  -3.488  0.00  0.00    +0.283 A 
ATOM      9  O   UNL     1      -0.458  -0.922  -2.905  0.00  0.00    -0.265 OA
ATOM     10  S   UNL     1       1.179  -3.244  -7.056  0.00  0.00    -0.031 S 
ATOM     11  C   UNL     1       1.347  -5.021  -6.994  0.00  0.00    +0.101 A 
ATOM     12  N   UNL     1       0.906  -5.308  -5.720  0.00  0.00    -0.283 N 
ATOM     13  C   UNL     1       1.796  -5.875  -7.959  0.00  0.00    +0.102 C 
ATOM     14  H   UNL     1      -0.821  -6.303  -3.905  0.00  0.00    +0.188 HD
ATOM     15  H   UNL     1       0.927  -6.218  -5.386  0.00  0.00    +0.188 HD
ENDROOT
BRANCH   1  19
ATOM     16  C   UNL     1       1.814   1.151   0.061  0.00  0.00    +0.064 C 
ATOM     17  C   UNL     1       1.105  -0.178   0.002  0.00  0.00    +0.022 A 
ATOM     18  C   UNL     1       1.134  -1.030  -1.036  0.00  0.00    +0.031 A 
ATOM     19  C   UNL     1       0.308  -2.183  -0.651  0.00  0.00    -0.003 A 
ATOM     20  C   UNL     1      -0.156  -1.908   0.625  0.00  0.00    +0.028 A 
ATOM     21  N   UNL     1       0.335  -0.710   0.999  0.00  0.00    -0.317 N 
ATOM     22  C   UNL     1      -1.049  -2.796   1.453  0.00  0.00    +0.064 C 
BRANCH  21  23
ATOM     23  C   UNL     1       0.089  -0.094   2.235  0.00  0.00    +0.047 A 
ATOM     24  C   UNL     1       0.566  -0.670   3.405  0.00  0.00    +0.030 A 
ATOM     25  C   UNL     1       0.323  -0.063   4.621  0.00  0.00    +0.047 A 
ATOM     26  C   UNL     1      -0.397   1.121   4.675  0.00  0.00    +0.120 A 
ATOM     27  C   UNL     1      -0.874   1.697   3.506  0.00  0.00    +0.047 A 
ATOM     28  C   UNL     1      -0.627   1.094   2.288  0.00  0.00    +0.030 A 
BRANCH  26  29
ATOM     29  O   UNL     1      -0.637   1.718   5.872  0.00  0.00    -0.495 OA
ATOM     30  C   UNL     1      -1.385   2.935   5.853  0.00  0.00    +0.277 C 
ENDBRANCH  26  29
ENDBRANCH  21  23
ENDBRANCH   1  19
BRANCH  13  31
ATOM     31  C   UNL     1       1.850  -7.255  -7.705  0.00  0.00    +0.242 C 
ATOM     32  O   UNL     1       1.496  -7.690  -6.623  0.00  0.00    -0.271 OA
ATOM     33  N   UNL     1       2.293  -8.098  -8.659  0.00  0.00    -0.298 N 
ATOM     34  C   UNL     1       2.755  -7.710  -9.999  0.00  0.00    +0.108 C 
ATOM     35  C   UNL     1       3.139  -9.005 -10.745  0.00  0.00    +0.020 C 
ATOM     36  C   UNL     1       2.339 -10.095  -9.983  0.00  0.00    +0.020 C 
ATOM     37  C   UNL     1       2.401  -9.563  -8.527  0.00  0.00    +0.108 C 
ENDBRANCH  13  31
TORSDOF 4
