REMARK  Name = ZINC33838824
REMARK  6 active torsions:
REMARK  status: ('A' for Active; 'I' for Inactive)
REMARK    1  A    between atoms: C_1  and  C_2
REMARK    2  A    between atoms: C_7  and  O_42
REMARK    3  A    between atoms: C_20  and  O_41
REMARK    4  A    between atoms: C_24  and  C_40
REMARK    5  A    between atoms: C_28  and  C_33
REMARK    6  A    between atoms: C_33  and  C_34
REMARK                            x       y       z     vdW  Elec       q    Type
REMARK                         _______ _______ _______ _____ _____    ______ ____
ROOT
ATOM      1  C   UNL     1       4.608  -1.243  -1.524  0.00  0.00    +0.008 C 
ATOM      2  C   UNL     1       3.514  -0.529  -2.321  0.00  0.00    -0.010 C 
ATOM      3  C   UNL     1       4.035   0.828  -2.792  0.00  0.00    +0.003 C 
ATOM      4  C   UNL     1       4.589   0.707  -4.212  0.00  0.00    +0.003 C 
ATOM      5  C   UNL     1       4.257   1.950  -5.030  0.00  0.00    +0.035 C 
ATOM      6  C   UNL     1       2.739   2.094  -5.196  0.00  0.00    +0.138 C 
ATOM      7  C   UNL     1       2.317   3.404  -4.591  0.00  0.00    +0.011 C 
ATOM      8  C   UNL     1       1.452   3.530  -3.605  0.00  0.00    +0.090 C 
ATOM      9  C   UNL     1       0.733   2.429  -2.968  0.00  0.00    +0.333 C 
ATOM     10  O   UNL     1       0.833   1.318  -3.437  0.00  0.00    -0.246 OA
ATOM     11  O   UNL     1      -0.032   2.632  -1.892  0.00  0.00    -0.444 OA
ATOM     12  C   UNL     1      -0.798   1.568  -1.297  0.00  0.00    +0.202 C 
ATOM     13  C   UNL     1      -0.035   0.985  -0.155  0.00  0.00    +0.097 C 
ATOM     14  C   UNL     1       1.362   1.550  -0.143  0.00  0.00    -0.020 C 
ATOM     15  C   UNL     1       2.382   0.966  -0.697  0.00  0.00    -0.030 C 
ATOM     16  C   UNL     1       2.281  -0.343  -1.430  0.00  0.00    +0.030 C 
ATOM     17  C   UNL     1      -0.661   1.324   1.201  0.00  0.00    +0.151 C 
ATOM     18  C   UNL     1      -2.128   0.989   1.204  0.00  0.00    -0.045 C 
ATOM     19  C   UNL     1      -2.684   0.368   2.214  0.00  0.00    +0.010 C 
ATOM     20  C   UNL     1      -2.970   1.394   0.011  0.00  0.00    +0.023 C 
ATOM     21  C   UNL     1      -2.142   2.233  -0.928  0.00  0.00    +0.070 C 
ATOM     22  C   UNL     1      -2.725   2.342  -2.353  0.00  0.00    +0.085 C 
ATOM     23  N   UNL     1      -2.295   1.099  -3.014  0.00  0.00    -0.308 N 
ATOM     24  C   UNL     1      -1.183   0.618  -2.401  0.00  0.00    +0.258 C 
ATOM     25  O   UNL     1      -0.626  -0.417  -2.693  0.00  0.00    -0.271 OA
ATOM     26  C   UNL     1      -3.501   0.105  -0.610  0.00  0.00    +0.012 C 
ATOM     27  H   UNL     1      -2.863   0.705  -3.869  0.00  0.00    +0.149 HD
ENDROOT
BRANCH  17  28
ATOM     28  O   UNL     1       0.012   0.595   2.231  0.00  0.00    -0.387 OA
ATOM     29  H   UNL     1      -0.301   0.710   3.279  0.00  0.00    +0.210 HD
ENDBRANCH  17  28
BRANCH   6  30
ATOM     30  O   UNL     1       2.420   2.092  -6.594  0.00  0.00    -0.388 OA
ATOM     31  H   UNL     1       1.373   2.186  -6.918  0.00  0.00    +0.210 HD
ENDBRANCH   6  30
BRANCH  22  32
ATOM     32  C   UNL     1      -4.227   2.561  -2.403  0.00  0.00    +0.057 C 
BRANCH  32  33
ATOM     33  C   UNL     1      -4.655   2.784  -3.830  0.00  0.00    -0.046 A 
ATOM     34  C   UNL     1      -4.690   4.064  -4.350  0.00  0.00    +0.004 A 
ATOM     35  C   UNL     1      -5.079   4.268  -5.660  0.00  0.00    +0.000 A 
ATOM     36  C   UNL     1      -5.442   3.192  -6.449  0.00  0.00    +0.000 A 
ATOM     37  C   UNL     1      -5.412   1.912  -5.928  0.00  0.00    +0.000 A 
ATOM     38  C   UNL     1      -5.019   1.708  -4.619  0.00  0.00    +0.004 A 
ENDBRANCH  32  33
ENDBRANCH  22  32
TORSDOF 4
