REMARK  Name = ZINC58007420
REMARK  3 active torsions:
REMARK  status: ('A' for Active; 'I' for Inactive)
REMARK    1  A    between atoms: C_6  and  C_7
REMARK    2  A    between atoms: C_7  and  C_8
REMARK    3  A    between atoms: C_12  and  O_17
REMARK                            x       y       z     vdW  Elec       q    Type
REMARK                         _______ _______ _______ _____ _____    ______ ____
ROOT
ATOM      1  C   UNL     1      -1.738  -1.024  -1.408  0.00  0.00    +0.201 A 
ATOM      2  N   UNL     1      -1.417  -2.065  -2.115  0.00  0.00    -0.213 NA
ATOM      3  C   UNL     1      -1.994  -1.958  -3.342  0.00  0.00    +0.113 A 
ATOM      4  C   UNL     1      -1.994  -2.762  -4.483  0.00  0.00    +0.077 A 
ATOM      5  C   UNL     1      -2.698  -2.362  -5.602  0.00  0.00    +0.119 A 
ATOM      6  C   UNL     1      -3.405  -1.164  -5.596  0.00  0.00    +0.049 A 
ATOM      7  C   UNL     1      -3.411  -0.363  -4.474  0.00  0.00    +0.052 A 
ATOM      8  C   UNL     1      -2.709  -0.751  -3.342  0.00  0.00    +0.156 A 
ATOM      9  O   UNL     1      -2.528  -0.204  -2.119  0.00  0.00    -0.439 OA
ENDROOT
BRANCH   5  10
ATOM     10  O   UNL     1      -2.700  -3.144  -6.715  0.00  0.00    -0.507 OA
ATOM     11  H   UNL     1      -3.416  -3.793  -6.738  0.00  0.00    +0.292 HD
ENDBRANCH   5  10
BRANCH   1  12
ATOM     12  C   UNL     1      -1.293  -0.775   0.010  0.00  0.00    +0.131 C 
BRANCH  12  18
ATOM     13  C   UNL     1      -0.017   1.378   0.010  0.00  0.00    +0.007 A 
ATOM     14  C   UNL     1       1.170   2.086   0.002  0.00  0.00    +0.038 A 
ATOM     15  C   UNL     1       2.379   1.410  -0.013  0.00  0.00    +0.123 A 
ATOM     16  C   UNL     1       2.396   0.026  -0.021  0.00  0.00    +0.038 A 
ATOM     17  C   UNL     1       1.208  -0.680  -0.013  0.00  0.00    +0.007 A 
ATOM     18  C   UNL     1       0.002  -0.004   0.002  0.00  0.00    -0.038 A 
ATOM     19  F   UNL     1       3.540   2.101  -0.021  0.00  0.00    -0.205 F 
ENDBRANCH  12  18
ENDBRANCH   1  12
TORSDOF 3
