REMARK  Name = ZINC65119353
REMARK  7 active torsions:
REMARK  status: ('A' for Active; 'I' for Inactive)
REMARK    1  A    between atoms: C_1  and  C_2
REMARK    2  A    between atoms: C_4  and  C_25
REMARK    3  A    between atoms: C_5  and  N_9
REMARK    4  A    between atoms: C_6  and  C_8
REMARK    5  A    between atoms: N_9  and  S_10
REMARK    6  A    between atoms: S_10  and  C_13
REMARK    7  A    between atoms: C_15  and  C_18
REMARK                            x       y       z     vdW  Elec       q    Type
REMARK                         _______ _______ _______ _____ _____    ______ ____
ROOT
ATOM      1  S   UNL     1       0.046  -4.799   1.816  0.00  0.00    +0.098 S 
ATOM      2  O   UNL     1       1.207  -4.358   2.506  0.00  0.00    -0.148 OA
ATOM      3  O   UNL     1      -1.266  -4.604   2.328  0.00  0.00    -0.148 OA
ENDROOT
BRANCH   1   4
ATOM      4  C   UNL     1       0.236  -6.533   1.567  0.00  0.00    +0.148 A 
ATOM      5  C   UNL     1       1.372  -7.265   1.528  0.00  0.00    +0.046 A 
ATOM      6  C   UNL     1       1.284  -8.637   1.316  0.00  0.00    +0.011 A 
ATOM      7  C   UNL     1       0.046  -9.194   1.155  0.00  0.00    +0.057 A 
ATOM      8  S   UNL     1      -1.022  -7.772   1.310  0.00  0.00    -0.076 S 
BRANCH   6   9
ATOM      9  C   UNL     1       2.506  -9.477   1.266  0.00  0.00    +0.092 A 
ATOM     10  C   UNL     1       2.395 -10.871   1.050  0.00  0.00    +0.035 A 
ATOM     11  C   UNL     1       3.540 -11.611   1.010  0.00  0.00    +0.073 A 
ATOM     12  C   UNL     1       4.769 -10.938   1.188  0.00  0.00    +0.265 A 
ATOM     13  O   UNL     1       5.819 -11.558   1.159  0.00  0.00    -0.266 OA
ATOM     14  N   UNL     1       4.773  -9.606   1.388  0.00  0.00    -0.243 N 
ATOM     15  N   UNL     1       3.686  -8.923   1.417  0.00  0.00    -0.171 NA
ATOM     16  H   UNL     1       5.620  -9.150   1.510  0.00  0.00    +0.192 HD
ENDBRANCH   6   9
ENDBRANCH   1   4
BRANCH   1  17
ATOM     17  N   UNL     1       0.083  -4.083   0.323  0.00  0.00    -0.097 NA
BRANCH  17  22
ATOM     18  C   UNL     1       0.586   1.549  -0.111  0.00  0.00    +0.044 C 
ATOM     19  C   UNL     1       0.452   0.052   0.005  0.00  0.00    -0.050 A 
ATOM     20  C   UNL     1       1.475  -0.768  -0.435  0.00  0.00    +0.008 A 
ATOM     21  C   UNL     1       1.356  -2.140  -0.331  0.00  0.00    -0.025 A 
ATOM     22  C   UNL     1       0.207  -2.696   0.216  0.00  0.00    +0.080 A 
ATOM     23  C   UNL     1      -0.819  -1.869   0.657  0.00  0.00    -0.025 A 
ATOM     24  C   UNL     1      -0.691  -0.498   0.555  0.00  0.00    +0.008 A 
ATOM     25  C   UNL     1      -2.068  -2.468   1.251  0.00  0.00    +0.046 C 
ATOM     26  C   UNL     1       2.471  -3.033  -0.810  0.00  0.00    +0.046 C 
ENDBRANCH  17  22
ENDBRANCH   1  17
TORSDOF 4
