REMARK  Name = ZINC20654104
REMARK  5 active torsions:
REMARK  status: ('A' for Active; 'I' for Inactive)
REMARK    1  A    between atoms: C_1  and  C_2
REMARK    2  A    between atoms: C_2  and  C_29
REMARK    3  A    between atoms: C_10  and  C_12
REMARK    4  A    between atoms: C_12  and  N_13
REMARK    5  A    between atoms: C_19  and  C_21
REMARK                            x       y       z     vdW  Elec       q    Type
REMARK                         _______ _______ _______ _____ _____    ______ ____
ROOT
ATOM      1  C   UNL     1      -0.356   2.561  -0.438  0.00  0.00    +0.011 C 
ATOM      2  C   UNL     1      -0.537   1.074  -0.748  0.00  0.00    -0.022 C 
ATOM      3  C   UNL     1       0.083   0.766  -2.114  0.00  0.00    +0.063 C 
ATOM      4  C   UNL     1       1.577   1.042  -2.028  0.00  0.00    +0.062 A 
ATOM      5  C   UNL     1       2.219   0.928  -0.789  0.00  0.00    +0.079 A 
ATOM      6  S   UNL     1       3.889   1.339  -1.191  0.00  0.00    -0.049 S 
ATOM      7  C   UNL     1       3.659   1.611  -2.839  0.00  0.00    +0.165 A 
ATOM      8  N   UNL     1       2.367   1.388  -3.016  0.00  0.00    -0.229 NA
ATOM      9  N   UNL     1       4.599   1.979  -3.784  0.00  0.00    -0.264 N 
ATOM     10  C   UNL     1       5.884   2.163  -3.420  0.00  0.00    +0.233 C 
ATOM     11  O   UNL     1       6.215   2.006  -2.264  0.00  0.00    -0.274 OA
ATOM     12  C   UNL     1       1.606   0.568   0.407  0.00  0.00    +0.172 C 
ATOM     13  O   UNL     1       2.230   0.514   1.448  0.00  0.00    -0.291 OA
ATOM     14  C   UNL     1       0.123   0.247   0.354  0.00  0.00    +0.087 C 
ATOM     15  C   UNL     1      -2.032   0.749  -0.792  0.00  0.00    +0.011 C 
ATOM     16  H   UNL     1       4.335   2.104  -4.708  0.00  0.00    +0.157 HD
ENDROOT
BRANCH  10  17
ATOM     17  C   UNL     1       6.909   2.564  -4.449  0.00  0.00    +0.181 C 
BRANCH  17  18
ATOM     18  N   UNL     1       8.222   2.701  -3.805  0.00  0.00    -0.291 NA
ATOM     19  C   UNL     1       8.225   3.814  -2.846  0.00  0.00    +0.104 C 
ATOM     20  C   UNL     1       9.546   3.810  -2.069  0.00  0.00    +0.123 C 
ATOM     21  N   UNL     1      10.656   3.817  -3.033  0.00  0.00    -0.293 N 
ATOM     22  C   UNL     1      10.649   2.814  -4.109  0.00  0.00    +0.123 C 
ATOM     23  C   UNL     1       9.286   2.857  -4.807  0.00  0.00    +0.104 C 
ATOM     24  C   UNL     1      11.653   4.718  -2.934  0.00  0.00    +0.282 C 
ATOM     25  O   UNL     1      11.582   5.616  -2.115  0.00  0.00    -0.267 OA
BRANCH  24  26
ATOM     26  C   UNL     1      12.824   4.616  -3.811  0.00  0.00    +0.189 A 
ATOM     27  C   UNL     1      13.830   5.533  -3.916  0.00  0.00    +0.054 A 
ATOM     28  C   UNL     1      14.735   5.033  -4.865  0.00  0.00    +0.042 A 
ATOM     29  C   UNL     1      14.248   3.847  -5.293  0.00  0.00    +0.196 A 
ATOM     30  O   UNL     1      13.099   3.597  -4.652  0.00  0.00    -0.458 OA
ENDBRANCH  24  26
ENDBRANCH  17  18
ENDBRANCH  10  17
TORSDOF 3
