REMARK  Name = ZINC13571315
REMARK  10 active torsions:
REMARK  status: ('A' for Active; 'I' for Inactive)
REMARK    1  A    between atoms: C_1  and  O_2
REMARK    2  A    between atoms: O_2  and  C_3
REMARK    3  A    between atoms: C_7  and  O_9
REMARK    4  A    between atoms: O_9  and  C_10
REMARK    5  A    between atoms: C_10  and  C_11
REMARK    6  A    between atoms: C_11  and  C_12
REMARK    7  A    between atoms: C_12  and  N_13
REMARK    8  A    between atoms: C_15  and  C_22
REMARK    9  A    between atoms: N_29  and  C_32
REMARK   10  A    between atoms: C_32  and  C_33
REMARK                            x       y       z     vdW  Elec       q    Type
REMARK                         _______ _______ _______ _____ _____    ______ ____
ROOT
ATOM      1  N   UNL     1       2.873  -8.161  -4.940  0.00  0.00    -0.346 N 
ATOM      2  C   UNL     1       3.841  -8.992  -4.517  0.00  0.00    +0.094 A 
ATOM      3  C   UNL     1       3.279 -10.193  -4.114  0.00  0.00    +0.001 A 
ATOM      4  C   UNL     1       1.823 -10.053  -4.323  0.00  0.00    +0.007 A 
ATOM      5  C   UNL     1       1.632  -8.760  -4.835  0.00  0.00    +0.050 A 
ATOM      6  C   UNL     1       0.343  -8.328  -5.130  0.00  0.00    +0.026 A 
ATOM      7  C   UNL     1      -0.729  -9.167  -4.916  0.00  0.00    +0.002 A 
ATOM      8  C   UNL     1      -0.538 -10.442  -4.406  0.00  0.00    +0.001 A 
ATOM      9  C   UNL     1       0.733 -10.891  -4.116  0.00  0.00    +0.010 A 
ENDROOT
BRANCH   3  10
ATOM     10  C   UNL     1       3.958 -11.318  -3.610  0.00  0.00    +0.028 C 
ATOM     11  C   UNL     1       4.918 -11.163  -2.613  0.00  0.00    +0.102 C 
ATOM     12  C   UNL     1       5.082  -9.923  -1.932  0.00  0.00    +0.276 C 
ATOM     13  O   UNL     1       4.304  -8.864  -2.241  0.00  0.00    -0.268 OA
ATOM     14  N   UNL     1       6.007  -9.823  -0.993  0.00  0.00    -0.123 NA
ATOM     15  C   UNL     1       6.793 -10.845  -0.661  0.00  0.00    +0.336 C 
ATOM     16  O   UNL     1       7.624 -10.681   0.214  0.00  0.00    -0.250 OA
ATOM     17  N   UNL     1       6.709 -12.050  -1.249  0.00  0.00    -0.213 N 
ATOM     18  C   UNL     1       5.798 -12.276  -2.220  0.00  0.00    +0.260 C 
ATOM     19  O   UNL     1       5.710 -13.365  -2.757  0.00  0.00    -0.269 OA
BRANCH  17  20
ATOM     20  C   UNL     1       7.608 -13.127  -0.829  0.00  0.00    +0.192 C 
BRANCH  20  21
ATOM     21  C   UNL     1       6.969 -13.908   0.291  0.00  0.00    +0.123 A 
ATOM     22  C   UNL     1       6.179 -14.986   0.147  0.00  0.00    +0.046 A 
ATOM     23  C   UNL     1       5.804 -15.396   1.447  0.00  0.00    +0.041 A 
ATOM     24  C   UNL     1       6.388 -14.543   2.308  0.00  0.00    +0.195 A 
ATOM     25  O   UNL     1       7.098 -13.647   1.602  0.00  0.00    -0.466 OA
ENDBRANCH  20  21
ENDBRANCH  17  20
ENDBRANCH   3  10
BRANCH   1  26
ATOM     26  C   UNL     1       3.101  -6.803  -5.439  0.00  0.00    +0.125 C 
BRANCH  26  27
ATOM     27  C   UNL     1       2.922  -5.803  -4.295  0.00  0.00    +0.062 C 
BRANCH  27  28
ATOM     28  C   UNL     1       3.160  -4.384  -4.817  0.00  0.00    +0.231 C 
BRANCH  28  29
ATOM     29  O   UNL     1       2.994  -3.450  -3.748  0.00  0.00    -0.492 OA
BRANCH  29  34
ATOM     30  C   UNL     1       3.207   0.165  -3.361  0.00  0.00    +0.124 A 
ATOM     31  C   UNL     1       3.535   0.542  -4.656  0.00  0.00    +0.046 A 
ATOM     32  C   UNL     1       3.681  -0.417  -5.640  0.00  0.00    +0.007 A 
ATOM     33  C   UNL     1       3.500  -1.753  -5.338  0.00  0.00    +0.046 A 
ATOM     34  C   UNL     1       3.172  -2.135  -4.045  0.00  0.00    +0.124 A 
ATOM     35  C   UNL     1       3.031  -1.175  -3.054  0.00  0.00    +0.091 A 
BRANCH  30  37
ATOM     36  C   UNL     1       3.260   2.470  -2.782  0.00  0.00    +0.277 C 
ATOM     37  O   UNL     1       3.064   1.109  -2.394  0.00  0.00    -0.495 OA
ENDBRANCH  30  37
ENDBRANCH  29  34
ENDBRANCH  28  29
ENDBRANCH  27  28
ENDBRANCH  26  27
ENDBRANCH   1  26
TORSDOF 9
