REMARK  Name = ZINC14479264
REMARK  7 active torsions:
REMARK  status: ('A' for Active; 'I' for Inactive)
REMARK    1  A    between atoms: C_1  and  O_2
REMARK    2  A    between atoms: O_2  and  C_3
REMARK    3  A    between atoms: C_6  and  C_11
REMARK    4  A    between atoms: C_8  and  O_9
REMARK    5  A    between atoms: O_9  and  C_10
REMARK    6  A    between atoms: C_21  and  N_28
REMARK    7  A    between atoms: C_24  and  O_27
REMARK                            x       y       z     vdW  Elec       q    Type
REMARK                         _______ _______ _______ _____ _____    ______ ____
ROOT
ATOM      1  C   UNL     1      -2.559   3.864   0.046  0.00  0.00    +0.105 C 
ATOM      2  C   UNL     1      -3.174   3.777   1.445  0.00  0.00    +0.029 C 
ATOM      3  C   UNL     1      -2.096   4.241   2.466  0.00  0.00    +0.033 C 
ATOM      4  C   UNL     1      -1.244   3.004   2.669  0.00  0.00    -0.030 C 
ATOM      5  C   UNL     1      -1.909   1.927   2.331  0.00  0.00    -0.023 C 
ATOM      6  C   UNL     1      -3.294   2.292   1.847  0.00  0.00    +0.051 C 
ATOM      7  C   UNL     1      -3.689   1.435   0.680  0.00  0.00    +0.014 A 
ATOM      8  C   UNL     1      -3.997   0.102   0.925  0.00  0.00    +0.132 A 
ATOM      9  C   UNL     1      -4.364  -0.738  -0.106  0.00  0.00    +0.037 A 
ATOM     10  C   UNL     1      -4.429  -0.257  -1.402  0.00  0.00    +0.049 A 
ATOM     11  C   UNL     1      -4.125   1.067  -1.657  0.00  0.00    +0.138 A 
ATOM     12  C   UNL     1      -3.756   1.920  -0.612  0.00  0.00    +0.076 A 
ATOM     13  N   UNL     1      -3.468   3.252  -0.924  0.00  0.00    -0.334 N 
ATOM     14  H   UNL     1      -3.839   3.840  -1.777  0.00  0.00    +0.147 HD
ENDROOT
BRANCH   1  18
ATOM     15  C   UNL     1       1.178   1.785  -0.002  0.00  0.00    +0.162 A 
ATOM     16  C   UNL     1       0.034   1.170  -0.483  0.00  0.00    +0.050 A 
ATOM     17  C   UNL     1      -1.172   1.846  -0.471  0.00  0.00    +0.009 A 
ATOM     18  C   UNL     1      -1.241   3.133   0.030  0.00  0.00    -0.023 A 
ATOM     19  C   UNL     1      -0.103   3.753   0.511  0.00  0.00    +0.055 A 
ATOM     20  C   UNL     1       1.109   3.083   0.497  0.00  0.00    +0.162 A 
BRANCH  15  22
ATOM     21  C   UNL     1       2.361  -0.205  -0.545  0.00  0.00    +0.277 C 
ATOM     22  O   UNL     1       2.366   1.123  -0.018  0.00  0.00    -0.491 OA
ENDBRANCH  15  22
BRANCH  20  23
ATOM     23  O   UNL     1       2.230   3.691   0.970  0.00  0.00    -0.491 OA
ATOM     24  C   UNL     1       2.084   5.023   1.466  0.00  0.00    +0.277 C 
ENDBRANCH  20  23
ENDBRANCH   1  18
BRANCH   8  25
ATOM     25  N   UNL     1      -3.931  -0.422   2.307  0.00  0.00    +0.057 N 
ATOM     26  O   UNL     1      -4.200  -1.589   2.529  0.00  0.00    -0.126 OA
ATOM     27  O   UNL     1      -3.607   0.313   3.223  0.00  0.00    -0.126 OA
ENDBRANCH   8  25
BRANCH  11  28
ATOM     28  O   UNL     1      -4.187   1.543  -2.930  0.00  0.00    -0.505 OA
ATOM     29  H   UNL     1      -3.947   2.596  -3.136  0.00  0.00    +0.292 HD
ENDBRANCH  11  28
TORSDOF 5
