REMARK  Name = ZINC13574515
REMARK  4 active torsions:
REMARK  status: ('A' for Active; 'I' for Inactive)
REMARK    1  A    between atoms: C_3  and  C_6
REMARK    2  A    between atoms: N_31  and  C_34
REMARK    3  A    between atoms: C_34  and  C_35
REMARK    4  A    between atoms: C_35  and  C_36
REMARK                            x       y       z     vdW  Elec       q    Type
REMARK                         _______ _______ _______ _____ _____    ______ ____
ROOT
ATOM      1  C   UNL     1       1.551  10.624  -1.256  0.00  0.00    +0.070 C 
ATOM      2  C   UNL     1       2.209  11.885  -0.754  0.00  0.00    +0.033 A 
ATOM      3  C   UNL     1       2.687  12.176   0.476  0.00  0.00    +0.087 A 
ATOM      4  N   UNL     1       3.251  13.422   0.620  0.00  0.00    -0.311 N 
ATOM      5  H   UNL     1       3.621  13.687   1.476  0.00  0.00    +0.170 HD
ATOM      6  C   UNL     1       3.292  14.277  -0.421  0.00  0.00    +0.289 A 
ATOM      7  O   UNL     1       3.744  15.408  -0.464  0.00  0.00    -0.260 OA
ATOM      8  S   UNL     1       2.537  13.359  -1.685  0.00  0.00    -0.030 S 
ATOM      9  S   UNL     1       2.572  11.003   1.823  0.00  0.00    -0.103 S 
ATOM     10  C   UNL     1       1.374   9.836   1.130  0.00  0.00    +0.061 C 
ATOM     11  C   UNL     1       1.865   9.531  -0.303  0.00  0.00    +0.019 C 
ATOM     12  C   UNL     1       1.582   8.054  -0.553  0.00  0.00    +0.007 C 
ATOM     13  C   UNL     1       0.605   7.679   0.628  0.00  0.00    +0.010 C 
ATOM     14  C   UNL     1       1.409   8.430   1.767  0.00  0.00    +0.015 C 
ATOM     15  C   UNL     1       2.820   7.814   1.548  0.00  0.00    +0.092 C 
ATOM     16  C   UNL     1       2.887   7.413   0.044  0.00  0.00    +0.091 C 
ATOM     17  C   UNL     1       2.739   5.914   0.071  0.00  0.00    +0.226 C 
ATOM     18  O   UNL     1       2.625   5.202  -0.904  0.00  0.00    -0.275 OA
ATOM     19  N   UNL     1       2.750   5.492   1.341  0.00  0.00    -0.241 N 
ATOM     20  C   UNL     1       2.834   6.469   2.250  0.00  0.00    +0.226 C 
ATOM     21  O   UNL     1       2.910   6.306   3.449  0.00  0.00    -0.275 OA
ENDROOT
BRANCH   1  24
ATOM     22  C   UNL     1      -2.137  10.804  -2.191  0.00  0.00    +0.008 A 
ATOM     23  C   UNL     1      -0.790  10.538  -2.348  0.00  0.00    +0.012 A 
ATOM     24  C   UNL     1       0.059  10.822  -1.330  0.00  0.00    -0.002 A 
ATOM     25  S   UNL     1      -1.048  11.499  -0.104  0.00  0.00    -0.101 S 
ATOM     26  C   UNL     1      -2.568  11.351  -1.028  0.00  0.00    +0.045 A 
ENDBRANCH   1  24
BRANCH  19  27
ATOM     27  C   UNL     1       2.680   4.074   1.706  0.00  0.00    +0.127 C 
BRANCH  27  28
ATOM     28  C   UNL     1       1.217   3.663   1.879  0.00  0.00    +0.144 C 
BRANCH  28  29
ATOM     29  C   UNL     1       1.146   2.205   2.254  0.00  0.00    +0.358 C 
ATOM     30  O   UNL     1       2.161   1.561   2.371  0.00  0.00    -0.246 OA
ATOM     31  O   UNL     1      -0.046   1.622   2.458  0.00  0.00    -0.246 OA
ENDBRANCH  28  29
ENDBRANCH  27  28
ENDBRANCH  19  27
TORSDOF 4
