REMARK  Name = ZINC17086084
REMARK  6 active torsions:
REMARK  status: ('A' for Active; 'I' for Inactive)
REMARK    1  A    between atoms: C_1  and  C_2
REMARK    2  A    between atoms: C_14  and  C_17
REMARK    3  A    between atoms: C_20  and  C_23
REMARK    4  A    between atoms: C_23  and  C_24
REMARK    5  A    between atoms: C_23  and  C_25
REMARK    6  A    between atoms: C_23  and  C_26
REMARK                            x       y       z     vdW  Elec       q    Type
REMARK                         _______ _______ _______ _____ _____    ______ ____
ROOT
ATOM      1  C   UNL     1       6.561   5.152  -0.153  0.00  0.00    +0.008 C 
ATOM      2  C   UNL     1       5.209   4.555  -0.548  0.00  0.00    -0.009 C 
ATOM      3  C   UNL     1       4.096   5.565  -0.253  0.00  0.00    +0.008 C 
ATOM      4  C   UNL     1       2.781   5.084  -0.869  0.00  0.00    +0.037 C 
ATOM      5  C   UNL     1       2.515   3.656  -0.407  0.00  0.00    -0.023 A 
ATOM      6  C   UNL     1       3.513   2.892   0.092  0.00  0.00    -0.004 A 
ATOM      7  S   UNL     1       2.747   1.342   0.488  0.00  0.00    -0.078 S 
ATOM      8  C   UNL     1       1.146   1.701   0.000  0.00  0.00    +0.080 A 
ATOM      9  C   UNL     1       1.207   3.024  -0.464  0.00  0.00    +0.068 A 
ATOM     10  C   UNL     1      -0.049   3.636  -0.954  0.00  0.00    +0.248 C 
ATOM     11  O   UNL     1      -0.057   4.737  -1.474  0.00  0.00    -0.270 OA
ATOM     12  N   UNL     1      -1.185   2.925  -0.799  0.00  0.00    -0.289 N 
ATOM     13  C   UNL     1      -1.276   1.723   0.017  0.00  0.00    +0.190 C 
ATOM     14  N   UNL     1      -0.011   0.966   0.007  0.00  0.00    -0.316 N 
ATOM     15  C   UNL     1       4.948   3.280   0.267  0.00  0.00    +0.046 C 
ATOM     16  H   UNL     1      -2.073   3.297  -1.330  0.00  0.00    +0.151 HD
ATOM     17  H   UNL     1      -0.028  -0.134   0.006  0.00  0.00    +0.149 HD
ENDROOT
BRANCH  13  18
ATOM     18  C   UNL     1      -1.604   2.118   1.434  0.00  0.00    -0.009 A 
ATOM     19  C   UNL     1      -1.200   1.317   2.486  0.00  0.00    +0.007 A 
ATOM     20  C   UNL     1      -1.497   1.681   3.786  0.00  0.00    +0.004 A 
ATOM     21  C   UNL     1      -2.206   2.842   4.034  0.00  0.00    -0.042 A 
ATOM     22  C   UNL     1      -2.614   3.640   2.982  0.00  0.00    +0.004 A 
ATOM     23  C   UNL     1      -2.313   3.278   1.682  0.00  0.00    +0.007 A 
BRANCH  21  24
ATOM     24  C   UNL     1      -2.534   3.236   5.450  0.00  0.00    -0.013 C 
ATOM     25  C   UNL     1      -4.053   3.320   5.617  0.00  0.00    +0.015 C 
ATOM     26  C   UNL     1      -1.972   2.190   6.415  0.00  0.00    +0.015 C 
ATOM     27  C   UNL     1      -1.912   4.600   5.758  0.00  0.00    +0.015 C 
ENDBRANCH  21  24
ENDBRANCH  13  18
TORSDOF 2
