REMARK  Name = ZINC06446500
REMARK  5 active torsions:
REMARK  status: ('A' for Active; 'I' for Inactive)
REMARK    1  A    between atoms: C_4  and  C_7
REMARK    2  A    between atoms: C_7  and  N_8
REMARK    3  A    between atoms: N_8  and  C_9
REMARK    4  A    between atoms: C_9  and  C_10
REMARK    5  A    between atoms: N_27  and  C_28
REMARK                            x       y       z     vdW  Elec       q    Type
REMARK                         _______ _______ _______ _____ _____    ______ ____
ROOT
ATOM      1  N   UNL     1       3.596   1.392   0.645  0.00  0.00    -0.277 N 
ATOM      2  C   UNL     1       2.331   0.926   0.654  0.00  0.00    +0.303 C 
ATOM      3  O   UNL     1       2.065  -0.097   1.255  0.00  0.00    -0.253 OA
ATOM      4  N   UNL     1       1.362   1.593  -0.002  0.00  0.00    -0.296 N 
ATOM      5  H   UNL     1       1.574   2.409  -0.482  0.00  0.00    +0.151 HD
ENDROOT
BRANCH   4   6
ATOM      6  C   UNL     1      -0.013   1.086   0.008  0.00  0.00    +0.074 C 
ATOM      7  C   UNL     1      -0.729   1.579   1.267  0.00  0.00    +0.022 C 
ATOM      8  C   UNL     1      -2.164   1.050   1.278  0.00  0.00    +0.002 C 
ATOM      9  C   UNL     1      -2.904   1.556   0.038  0.00  0.00    +0.000 C 
ATOM     10  C   UNL     1      -2.188   1.063  -1.221  0.00  0.00    +0.002 C 
ATOM     11  C   UNL     1      -0.753   1.593  -1.232  0.00  0.00    +0.022 C 
ENDBRANCH   4   6
BRANCH   1  12
ATOM     12  C   UNL     1       3.916   2.624  -0.080  0.00  0.00    +0.144 C 
BRANCH  12  16
ATOM     13  C   UNL     1       3.460   5.972   2.534  0.00  0.00    +0.000 A 
ATOM     14  C   UNL     1       4.679   5.327   2.443  0.00  0.00    +0.000 A 
ATOM     15  C   UNL     1       4.827   4.244   1.598  0.00  0.00    +0.005 A 
ATOM     16  C   UNL     1       3.755   3.805   0.843  0.00  0.00    -0.030 A 
ATOM     17  C   UNL     1       2.537   4.454   0.930  0.00  0.00    +0.005 A 
ATOM     18  C   UNL     1       2.388   5.534   1.780  0.00  0.00    +0.000 A 
ENDBRANCH  12  16
ENDBRANCH   1  12
BRANCH   1  19
ATOM     19  C   UNL     1       4.649   0.667   1.359  0.00  0.00    +0.150 C 
BRANCH  19  20
ATOM     20  C   UNL     1       5.282  -0.340   0.433  0.00  0.00    +0.035 A 
ATOM     21  C   UNL     1       6.412  -0.018  -0.247  0.00  0.00    +0.020 A 
ATOM     22  C   UNL     1       7.002  -1.017  -1.137  0.00  0.00    +0.003 A 
ATOM     23  C   UNL     1       8.168  -0.740  -1.861  0.00  0.00    +0.059 A 
ATOM     24  C   UNL     1       8.701  -1.702  -2.691  0.00  0.00    +0.167 A 
ATOM     25  C   UNL     1       8.081  -2.952  -2.812  0.00  0.00    +0.168 A 
ATOM     26  C   UNL     1       6.929  -3.233  -2.101  0.00  0.00    +0.075 A 
ATOM     27  C   UNL     1       6.380  -2.275  -1.259  0.00  0.00    +0.053 A 
ATOM     28  N   UNL     1       5.231  -2.539  -0.540  0.00  0.00    -0.322 N 
ATOM     29  H   UNL     1       4.803  -3.405  -0.625  0.00  0.00    +0.169 HD
ATOM     30  C   UNL     1       4.701  -1.615   0.280  0.00  0.00    +0.254 A 
ATOM     31  O   UNL     1       3.689  -1.886   0.904  0.00  0.00    -0.268 OA
ATOM     32  O   UNL     1       8.803  -3.710  -3.687  0.00  0.00    -0.453 OA
ATOM     33  C   UNL     1      10.088  -3.069  -3.783  0.00  0.00    +0.466 C 
ATOM     34  O   UNL     1       9.807  -1.688  -3.492  0.00  0.00    -0.453 OA
ENDBRANCH  19  20
ENDBRANCH   1  19
TORSDOF 5
