REMARK  Name = ZINC06993074
REMARK  3 active torsions:
REMARK  status: ('A' for Active; 'I' for Inactive)
REMARK    1  A    between atoms: C_4  and  C_8
REMARK    2  A    between atoms: C_8  and  C_9
REMARK    3  A    between atoms: N_11  and  N_12
REMARK                            x       y       z     vdW  Elec       q    Type
REMARK                         _______ _______ _______ _____ _____    ______ ____
ROOT
ATOM      1  C   UNL     1       2.908   1.466  -1.437  0.00  0.00    +0.234 C 
ATOM      2  O   UNL     1       2.211   1.855  -2.351  0.00  0.00    -0.274 OA
ATOM      3  N   UNL     1       4.062   0.821  -1.697  0.00  0.00    -0.223 N 
ATOM      4  H   UNL     1       4.619   0.510  -0.967  0.00  0.00    +0.174 HD
ENDROOT
BRANCH   3   5
ATOM      5  N   UNL     1       4.458   0.599  -3.023  0.00  0.00    -0.137 N 
ATOM      6  C   UNL     1       5.436   1.287  -3.647  0.00  0.00    +0.263 C 
ATOM      7  O   UNL     1       6.115   2.179  -3.186  0.00  0.00    -0.271 OA
ATOM      8  C   UNL     1       5.508   0.710  -5.042  0.00  0.00    +0.114 C 
ATOM      9  C   UNL     1       6.882   0.098  -5.294  0.00  0.00    +0.035 C 
ATOM     10  C   UNL     1       6.926  -0.505  -6.700  0.00  0.00    +0.003 C 
ATOM     11  C   UNL     1       6.639   0.588  -7.732  0.00  0.00    +0.000 C 
ATOM     12  C   UNL     1       5.248   1.174  -7.481  0.00  0.00    +0.003 C 
ATOM     13  C   UNL     1       5.197   1.784  -6.079  0.00  0.00    +0.035 C 
ATOM     14  N   UNL     1       4.472  -0.331  -5.052  0.00  0.00    -0.284 N 
ATOM     15  C   UNL     1       3.916  -0.325  -3.825  0.00  0.00    +0.326 C 
ATOM     16  O   UNL     1       3.019  -1.073  -3.486  0.00  0.00    -0.251 OA
ATOM     17  H   UNL     1       4.238  -0.910  -5.793  0.00  0.00    +0.151 HD
ENDBRANCH   3   5
BRANCH   1  18
ATOM     18  C   UNL     1       2.482   1.705  -0.011  0.00  0.00    +0.135 C 
BRANCH  18  22
ATOM     19  C   UNL     1      -1.248   3.789   0.033  0.00  0.00    +0.003 A 
ATOM     20  C   UNL     1      -0.061   4.497   0.026  0.00  0.00    +0.020 A 
ATOM     21  C   UNL     1       1.147   3.823   0.011  0.00  0.00    +0.046 A 
ATOM     22  C   UNL     1       1.167   2.440   0.004  0.00  0.00    -0.002 A 
ATOM     23  C   UNL     1      -0.021   1.732   0.012  0.00  0.00    +0.046 A 
ATOM     24  C   UNL     1      -1.229   2.407   0.021  0.00  0.00    +0.020 A 
ATOM     25 CL   UNL     1       0.002  -0.004   0.002  0.00  0.00    -0.083 Cl
ATOM     26 CL   UNL     1       2.638   4.712   0.001  0.00  0.00    -0.083 Cl
ENDBRANCH  18  22
ENDBRANCH   1  18
TORSDOF 3
