REMARK  Name = ZINC35969393
REMARK  8 active torsions:
REMARK  status: ('A' for Active; 'I' for Inactive)
REMARK    1  A    between atoms: C_1  and  C_2
REMARK    2  A    between atoms: C_2  and  N_3
REMARK    3  A    between atoms: C_6  and  C_11
REMARK    4  A    between atoms: N_20  and  C_22
REMARK    5  A    between atoms: C_22  and  C_23
REMARK    6  A    between atoms: N_25  and  C_26
REMARK    7  A    between atoms: C_26  and  C_27
REMARK    8  A    between atoms: C_27  and  C_28
REMARK                            x       y       z     vdW  Elec       q    Type
REMARK                         _______ _______ _______ _____ _____    ______ ____
ROOT
ATOM      1  N   UNL     1       0.688  -0.476  -1.203  0.00  0.00    -0.257 N 
ATOM      2  C   UNL     1      -0.057  -0.690  -2.328  0.00  0.00    +0.042 C 
ATOM      3  C   UNL     1       0.512  -1.125  -3.471  0.00  0.00    +0.058 C 
ATOM      4  C   UNL     1       2.007  -1.367  -3.465  0.00  0.00    +0.142 C 
ATOM      5  N   UNL     1       2.720  -1.107  -2.203  0.00  0.00    -0.288 N 
ATOM      6  C   UNL     1       2.012  -0.670  -1.144  0.00  0.00    +0.307 C 
ATOM      7  O   UNL     1       2.592  -0.448  -0.099  0.00  0.00    -0.252 OA
ATOM      8  C   UNL     1      -0.463  -1.267  -4.480  0.00  0.00    +0.247 C 
ATOM      9  O   UNL     1      -0.229  -1.644  -5.614  0.00  0.00    -0.270 OA
ATOM     10  N   UNL     1      -1.684  -0.932  -4.027  0.00  0.00    -0.283 N 
ATOM     11  C   UNL     1      -1.533  -0.536  -2.619  0.00  0.00    +0.160 C 
ATOM     12  H   UNL     1       3.679  -1.244  -2.137  0.00  0.00    +0.151 HD
ENDROOT
BRANCH   4  13
ATOM     13  C   UNL     1       2.246  -2.806  -3.845  0.00  0.00    -0.020 A 
ATOM     14  C   UNL     1       2.090  -3.805  -2.901  0.00  0.00    +0.006 A 
ATOM     15  C   UNL     1       2.308  -5.125  -3.248  0.00  0.00    +0.003 A 
ATOM     16  C   UNL     1       2.683  -5.448  -4.539  0.00  0.00    +0.038 A 
ATOM     17  C   UNL     1       2.839  -4.449  -5.484  0.00  0.00    +0.124 A 
ATOM     18  C   UNL     1       2.614  -3.128  -5.137  0.00  0.00    +0.044 A 
ATOM     19  F   UNL     1       3.206  -4.764  -6.746  0.00  0.00    -0.205 F 
ENDBRANCH   4  13
BRANCH   1  21
ATOM     20  C   UNL     1      -0.019   1.526   0.010  0.00  0.00    +0.025 C 
ATOM     21  C   UNL     1       0.002  -0.004   0.002  0.00  0.00    +0.111 C 
ENDBRANCH   1  21
BRANCH  10  22
ATOM     22  C   UNL     1      -2.932  -0.957  -4.793  0.00  0.00    +0.204 C 
BRANCH  22  23
ATOM     23  C   UNL     1      -3.580  -2.310  -4.655  0.00  0.00    +0.230 C 
ATOM     24  O   UNL     1      -3.052  -3.170  -3.982  0.00  0.00    -0.274 OA
ATOM     25  N   UNL     1      -4.747  -2.566  -5.279  0.00  0.00    -0.314 N 
ATOM     26  H   UNL     1      -5.170  -1.879  -5.817  0.00  0.00    +0.149 HD
BRANCH  25  27
ATOM     27  C   UNL     1      -5.377  -3.882  -5.144  0.00  0.00    +0.110 C 
BRANCH  27  28
ATOM     28  C   UNL     1      -6.681  -3.908  -5.944  0.00  0.00    +0.074 C 
BRANCH  28  29
ATOM     29  C   UNL     1      -7.329  -5.261  -5.805  0.00  0.00    +0.043 A 
ATOM     30  C   UNL     1      -8.635  -5.351  -5.361  0.00  0.00    +0.023 A 
ATOM     31  C   UNL     1      -9.222  -6.601  -5.237  0.00  0.00    +0.003 A 
ATOM     32  C   UNL     1      -8.470  -7.718  -5.566  0.00  0.00    +0.020 A 
ATOM     33  C   UNL     1      -7.170  -7.551  -6.003  0.00  0.00    +0.111 A 
ATOM     34  N   UNL     1      -6.645  -6.346  -6.114  0.00  0.00    -0.260 NA
ENDBRANCH  28  29
ENDBRANCH  27  28
ENDBRANCH  25  27
ENDBRANCH  22  23
ENDBRANCH  10  22
TORSDOF 7
