REMARK  Name = ZINC19449772
REMARK  8 active torsions:
REMARK  status: ('A' for Active; 'I' for Inactive)
REMARK    1  A    between atoms: C_1  and  C_2
REMARK    2  A    between atoms: C_2  and  C_3
REMARK    3  A    between atoms: C_2  and  N_4
REMARK    4  A    between atoms: C_5  and  C_7
REMARK    5  A    between atoms: C_10  and  C_15
REMARK    6  A    between atoms: N_12  and  C_14
REMARK    7  A    between atoms: N_18  and  S_21
REMARK    8  A    between atoms: S_21  and  C_24
REMARK                            x       y       z     vdW  Elec       q    Type
REMARK                         _______ _______ _______ _____ _____    ______ ____
ROOT
ATOM      1  C   UNL     1       2.288   0.347  -1.477  0.00  0.00    -0.022 C 
ATOM      2  C   UNL     1       2.184   1.831  -1.837  0.00  0.00    +0.019 C 
ATOM      3  C   UNL     1       1.218   2.521  -0.869  0.00  0.00    +0.109 C 
ATOM      4  N   UNL     1       1.664   2.264   0.507  0.00  0.00    -0.177 NA
ATOM      5  C   UNL     1       1.882   0.874   0.931  0.00  0.00    +0.109 C 
ATOM      6  C   UNL     1       2.841   0.202  -0.058  0.00  0.00    +0.019 C 
ENDROOT
BRANCH   1   9
ATOM      7  C   UNL     1       5.596  -0.961  -2.551  0.00  0.00    +0.057 C 
ATOM      8  C   UNL     1       4.647   0.241  -2.369  0.00  0.00    -0.004 C 
ATOM      9  C   UNL     1       3.225  -0.353  -2.463  0.00  0.00    -0.065 C 
ATOM     10  N   UNL     1       3.391  -1.782  -2.095  0.00  0.00    +0.380 N 
ATOM     11  C   UNL     1       4.668  -2.180  -2.741  0.00  0.00    -0.066 C 
ATOM     12  C   UNL     1       2.272  -2.589  -2.599  0.00  0.00    -0.096 C 
ATOM     13  H   UNL     1       3.397  -1.943  -1.007  0.00  0.00    -0.082 HD
BRANCH   7  15
ATOM     14  N   UNL     1       7.322  -1.730  -4.148  0.00  0.00    -0.313 N 
ATOM     15  C   UNL     1       6.460  -0.765  -3.771  0.00  0.00    +0.214 C 
ATOM     16  O   UNL     1       6.378   0.260  -4.414  0.00  0.00    -0.276 OA
ATOM     17  H   UNL     1       7.397  -2.659  -3.565  0.00  0.00    +0.149 HD
BRANCH  14  19
ATOM     18  C   UNL     1       9.424  -0.765  -4.946  0.00  0.00    +0.027 C 
ATOM     19  C   UNL     1       8.162  -1.539  -5.333  0.00  0.00    +0.067 C 
ATOM     20  C   UNL     1       8.555  -2.903  -5.904  0.00  0.00    +0.027 C 
ENDBRANCH  14  19
ENDBRANCH   7  15
ENDBRANCH   1   9
BRANCH   4  21
ATOM     21  S   UNL     1       1.921   3.517   1.559  0.00  0.00    +0.061 S 
ATOM     22  O   UNL     1       2.833   3.042   2.540  0.00  0.00    -0.153 OA
ATOM     23  O   UNL     1       2.185   4.665   0.765  0.00  0.00    -0.153 OA
BRANCH  21  24
ATOM     24  C   UNL     1       0.398   3.819   2.392  0.00  0.00    +0.106 A 
ATOM     25  C   UNL     1      -0.508   4.722   1.868  0.00  0.00    +0.031 A 
ATOM     26  C   UNL     1      -1.705   4.956   2.517  0.00  0.00    +0.040 A 
ATOM     27  C   UNL     1      -1.992   4.294   3.699  0.00  0.00    +0.124 A 
ATOM     28  C   UNL     1      -1.081   3.394   4.226  0.00  0.00    +0.040 A 
ATOM     29  C   UNL     1       0.113   3.157   3.571  0.00  0.00    +0.031 A 
ATOM     30  F   UNL     1      -3.159   4.527   4.338  0.00  0.00    -0.205 F 
ENDBRANCH  21  24
ENDBRANCH   4  21
TORSDOF 5
