REMARK  Name = ZINC65497826
REMARK  7 active torsions:
REMARK  status: ('A' for Active; 'I' for Inactive)
REMARK    1  A    between atoms: C_1  and  C_2
REMARK    2  A    between atoms: C_4  and  C_13
REMARK    3  A    between atoms: C_15  and  C_23
REMARK    4  A    between atoms: C_23  and  C_24
REMARK    5  A    between atoms: C_24  and  C_26
REMARK    6  A    between atoms: C_24  and  N_27
REMARK    7  A    between atoms: C_28  and  C_30
REMARK                            x       y       z     vdW  Elec       q    Type
REMARK                         _______ _______ _______ _____ _____    ______ ____
ROOT
ATOM      1  C   UNL     1       0.014  -3.064  -1.454  0.00  0.00    +0.175 C 
ATOM      2  C   UNL     1       1.304  -3.295  -2.209  0.00  0.00    -0.029 C 
ATOM      3  C   UNL     1       0.993  -3.193  -3.521  0.00  0.00    -0.000 A 
ATOM      4  C   UNL     1       1.795  -3.313  -4.745  0.00  0.00    +0.010 A 
ATOM      5  C   UNL     1       1.189  -3.157  -5.944  0.00  0.00    +0.001 A 
ATOM      6  C   UNL     1      -0.182  -2.885  -6.047  0.00  0.00    +0.002 A 
ATOM      7  C   UNL     1      -0.984  -2.761  -4.968  0.00  0.00    +0.026 A 
ATOM      8  C   UNL     1      -0.453  -2.906  -3.657  0.00  0.00    +0.043 A 
ATOM      9  N   UNL     1      -1.015  -2.832  -2.474  0.00  0.00    -0.371 N 
ATOM     10  H   UNL     1      -1.953  -2.654  -2.301  0.00  0.00    +0.161 HD
ENDROOT
BRANCH   1  14
ATOM     11  C   UNL     1       0.324   1.702   0.053  0.00  0.00    +0.090 C 
ATOM     12  C   UNL     1       0.277   0.196   0.101  0.00  0.00    +0.149 A 
ATOM     13  N   UNL     1       0.146  -0.608  -0.953  0.00  0.00    -0.213 NA
ATOM     14  C   UNL     1       0.142  -1.857  -0.562  0.00  0.00    +0.161 A 
ATOM     15  N   UNL     1       0.273  -1.873   0.780  0.00  0.00    -0.196 N 
ATOM     16  N   UNL     1       0.363  -0.531   1.184  0.00  0.00    -0.149 NA
ATOM     17  C   UNL     1       0.315  -3.002   1.605  0.00  0.00    +0.156 A 
ATOM     18  C   UNL     1       0.946  -2.928   2.840  0.00  0.00    +0.048 A 
ATOM     19  C   UNL     1       0.981  -4.053   3.647  0.00  0.00    +0.005 A 
ATOM     20  C   UNL     1       0.379  -5.216   3.187  0.00  0.00    +0.020 A 
ATOM     21  C   UNL     1      -0.230  -5.217   1.947  0.00  0.00    +0.113 A 
ATOM     22  N   UNL     1      -0.251  -4.128   1.203  0.00  0.00    -0.236 NA
ENDBRANCH   1  14
BRANCH   2  23
ATOM     23  C   UNL     1       2.661  -3.579  -1.618  0.00  0.00    +0.056 C 
BRANCH  23  24
ATOM     24  C   UNL     1       3.349  -2.259  -1.262  0.00  0.00    +0.074 C 
ATOM     25  C   UNL     1       4.676  -2.550  -0.559  0.00  0.00    +0.028 C 
BRANCH  24  26
ATOM     26  N   UNL     1       3.601  -1.494  -2.485  0.00  0.00    -0.313 N 
ATOM     27  C   UNL     1       3.779  -0.160  -2.420  0.00  0.00    +0.210 C 
ATOM     28  O   UNL     1       3.650   0.419  -1.362  0.00  0.00    -0.276 OA
ATOM     29  C   UNL     1       4.139   0.614  -3.663  0.00  0.00    +0.109 C 
ATOM     30  H   UNL     1       3.640  -1.948  -3.341  0.00  0.00    +0.149 HD
ENDBRANCH  24  26
ENDBRANCH  23  24
ENDBRANCH   2  23
TORSDOF 4
