REMARK  Name = ZINC64730447
REMARK  6 active torsions:
REMARK  status: ('A' for Active; 'I' for Inactive)
REMARK    1  A    between atoms: C_1  and  C_2
REMARK    2  A    between atoms: C_5  and  O_8
REMARK    3  A    between atoms: O_8  and  C_9
REMARK    4  A    between atoms: C_9  and  C_10
REMARK    5  A    between atoms: C_15  and  C_18
REMARK    6  A    between atoms: C_26  and  C_28
REMARK                            x       y       z     vdW  Elec       q    Type
REMARK                         _______ _______ _______ _____ _____    ______ ____
ROOT
ATOM      1  C   UNL     1       3.637  -4.601  -1.594  0.00  0.00    +0.256 C 
ATOM      2  O   UNL     1       3.349  -4.540  -2.770  0.00  0.00    -0.272 OA
ATOM      3  N   UNL     1       4.329  -5.657  -1.122  0.00  0.00    -0.262 N 
ATOM      4  C   UNL     1       4.712  -6.675  -1.983  0.00  0.00    +0.165 A 
ATOM      5  N   UNL     1       5.380  -7.776  -1.714  0.00  0.00    -0.225 NA
ATOM      6  C   UNL     1       5.641  -8.627  -2.714  0.00  0.00    +0.079 A 
ATOM      7  C   UNL     1       5.191  -8.302  -3.987  0.00  0.00    +0.076 A 
ATOM      8  S   UNL     1       4.418  -6.829  -3.735  0.00  0.00    -0.060 S 
ATOM      9  H   UNL     1       4.560  -5.705  -0.181  0.00  0.00    +0.157 HD
ENDROOT
BRANCH   6  10
ATOM     10  C   UNL     1       6.354  -9.822  -2.481  0.00  0.00    +0.009 C 
ATOM     11  C   UNL     1       6.766 -10.330  -1.251  0.00  0.00    +0.005 A 
ATOM     12  C   UNL     1       6.622  -9.858   0.072  0.00  0.00    +0.010 A 
ATOM     13  C   UNL     1       7.136 -10.576   1.103  0.00  0.00    +0.001 A 
ATOM     14  C   UNL     1       7.811 -11.780   0.890  0.00  0.00    +0.002 A 
ATOM     15  C   UNL     1       7.986 -12.293  -0.353  0.00  0.00    +0.026 A 
ATOM     16  C   UNL     1       7.476 -11.599  -1.480  0.00  0.00    +0.043 A 
ATOM     17  N   UNL     1       7.514 -11.880  -2.768  0.00  0.00    -0.377 N 
ATOM     18  C   UNL     1       6.824 -10.823  -3.513  0.00  0.00    +0.109 C 
ATOM     19  C   UNL     1       7.791 -10.155  -4.492  0.00  0.00    +0.035 C 
ATOM     20  H   UNL     1       7.929 -12.664  -3.160  0.00  0.00    +0.160 HD
ENDBRANCH   6  10
BRANCH   1  21
ATOM     21  C   UNL     1       3.221  -3.494  -0.658  0.00  0.00    +0.326 C 
BRANCH  21  22
ATOM     22  O   UNL     1       2.505  -2.497  -1.389  0.00  0.00    -0.468 OA
BRANCH  22  26
ATOM     23  C   UNL     1       0.727   1.943  -0.132  0.00  0.00    +0.055 C 
ATOM     24  C   UNL     1       0.711   0.419   0.005  0.00  0.00    +0.210 C 
ATOM     25  C   UNL     1       1.280  -0.258  -1.265  0.00  0.00    +0.145 C 
ATOM     26  C   UNL     1       2.058  -1.428  -0.693  0.00  0.00    +0.231 C 
ATOM     27  N   UNL     1       2.219  -1.232   0.559  0.00  0.00    -0.050 NA
ATOM     28  O   UNL     1       1.646  -0.020   1.011  0.00  0.00    -0.388 OA
ENDBRANCH  22  26
ENDBRANCH  21  22
ENDBRANCH   1  21
TORSDOF 4
