REMARK  Name = ZINC06220174
REMARK  4 active torsions:
REMARK  status: ('A' for Active; 'I' for Inactive)
REMARK    1  A    between atoms: C_6  and  C_7
REMARK    2  A    between atoms: N_9  and  N_10
REMARK    3  A    between atoms: C_11  and  C_13
REMARK    4  A    between atoms: C_13  and  C_14
REMARK                            x       y       z     vdW  Elec       q    Type
REMARK                         _______ _______ _______ _____ _____    ______ ____
ROOT
ATOM      1  N   UNL     1       2.366   1.217  -0.014  0.00  0.00    -0.234 N 
ATOM      2  C   UNL     1       3.524   1.907  -0.021  0.00  0.00    +0.230 C 
ATOM      3  O   UNL     1       3.508   3.120  -0.015  0.00  0.00    -0.274 OA
ATOM      4  H   UNL     1       2.379   0.247  -0.019  0.00  0.00    +0.173 HD
ENDROOT
BRANCH   1   7
ATOM      5  C   UNL     1      -0.014   1.211   0.009  0.00  0.00    +0.260 C 
ATOM      6  O   UNL     1       0.002  -0.004   0.002  0.00  0.00    -0.269 OA
ATOM      7  N   UNL     1       1.143   1.901   0.001  0.00  0.00    -0.230 N 
ATOM      8  H   UNL     1       1.130   2.871   0.007  0.00  0.00    +0.173 HD
BRANCH   5  14
ATOM      9  C   UNL     1      -1.326   3.329   0.032  0.00  0.00    +0.014 A 
ATOM     10  C   UNL     1      -2.533   3.996   0.036  0.00  0.00    +0.021 A 
ATOM     11  C   UNL     1      -3.721   3.285   0.038  0.00  0.00    +0.041 A 
ATOM     12  C   UNL     1      -3.706   1.900   0.030  0.00  0.00    +0.021 A 
ATOM     13  C   UNL     1      -2.505   1.221   0.021  0.00  0.00    +0.014 A 
ATOM     14  C   UNL     1      -1.304   1.933   0.019  0.00  0.00    +0.038 A 
ATOM     15 CL   UNL     1      -5.236   4.132   0.049  0.00  0.00    -0.084 Cl
ENDBRANCH   5  14
ENDBRANCH   1   7
BRANCH   2  16
ATOM     16  C   UNL     1       4.839   1.171  -0.038  0.00  0.00    +0.104 C 
BRANCH  16  17
ATOM     17  C   UNL     1       5.988   2.181  -0.043  0.00  0.00    -0.020 C 
ATOM     18  C   UNL     1       5.883   3.066  -1.287  0.00  0.00    +0.011 C 
ATOM     19  C   UNL     1       7.033   4.076  -1.292  0.00  0.00    -0.010 C 
ATOM     20  C   UNL     1       8.368   3.329  -1.309  0.00  0.00    +0.007 C 
ATOM     21  C   UNL     1       8.473   2.444  -0.066  0.00  0.00    -0.010 C 
ATOM     22  C   UNL     1       7.324   1.434  -0.060  0.00  0.00    +0.011 C 
ATOM     23  C   UNL     1       8.392   3.316   1.189  0.00  0.00    +0.007 C 
ATOM     24  C   UNL     1       7.057   4.063   1.206  0.00  0.00    -0.010 C 
ATOM     25  C   UNL     1       6.952   4.948  -0.038  0.00  0.00    +0.007 C 
ATOM     26  C   UNL     1       5.907   3.053   1.211  0.00  0.00    +0.011 C 
ENDBRANCH  16  17
ENDBRANCH   2  16
TORSDOF 4
