REMARK  Name = ZINC38038981
REMARK  7 active torsions:
REMARK  status: ('A' for Active; 'I' for Inactive)
REMARK    1  A    between atoms: C_1  and  C_2
REMARK    2  A    between atoms: C_2  and  C_4
REMARK    3  A    between atoms: C_2  and  N_12
REMARK    4  A    between atoms: C_7  and  O_11
REMARK    5  A    between atoms: C_9  and  O_10
REMARK    6  A    between atoms: N_12  and  C_13
REMARK    7  A    between atoms: C_13  and  C_14
REMARK                            x       y       z     vdW  Elec       q    Type
REMARK                         _______ _______ _______ _____ _____    ______ ____
ROOT
ATOM      1  C   UNL     1      -0.019   1.526   0.010  0.00  0.00    -0.009 C 
ATOM      2  C   UNL     1       0.002  -0.004   0.002  0.00  0.00    -0.040 C 
ENDROOT
BRANCH   2   3
ATOM      3  C   UNL     1       0.731  -0.503   1.223  0.00  0.00    -0.020 A 
ATOM      4  C   UNL     1       0.017  -0.951   2.318  0.00  0.00    +0.009 A 
ATOM      5  C   UNL     1       0.682  -1.409   3.439  0.00  0.00    +0.046 A 
ATOM      6  C   UNL     1       2.070  -1.421   3.467  0.00  0.00    +0.120 A 
ATOM      7  C   UNL     1       2.788  -0.973   2.370  0.00  0.00    +0.091 A 
ATOM      8  C   UNL     1       2.118  -0.519   1.244  0.00  0.00    +0.122 A 
BRANCH   8   9
ATOM      9  O   UNL     1       2.820  -0.085   0.164  0.00  0.00    -0.506 OA
ATOM     10  H   UNL     1       3.027   0.860   0.183  0.00  0.00    +0.292 HD
ENDBRANCH   8   9
BRANCH   6  11
ATOM     11  O   UNL     1       2.724  -1.871   4.570  0.00  0.00    -0.507 OA
ATOM     12  H   UNL     1       2.913  -2.820   4.556  0.00  0.00    +0.292 HD
ENDBRANCH   6  11
ENDBRANCH   2   3
BRANCH   2  13
ATOM     13  N   UNL     1      -1.376  -0.512   0.012  0.00  0.00    +0.386 N 
ATOM     14  H   UNL     1      -1.363  -1.518   0.090  0.00  0.00    -0.085 HD
ATOM     15  H   UNL     1      -1.873  -0.121   0.799  0.00  0.00    -0.085 HD
BRANCH  13  16
ATOM     16  C   UNL     1      -2.050  -0.126  -1.234  0.00  0.00    -0.045 C 
BRANCH  16  17
ATOM     17  C   UNL     1      -3.464  -0.648  -1.224  0.00  0.00    -0.048 A 
ATOM     18  C   UNL     1      -3.778  -1.806  -1.909  0.00  0.00    +0.041 A 
ATOM     19  C   UNL     1      -5.077  -2.285  -1.899  0.00  0.00    +0.124 A 
ATOM     20  C   UNL     1      -6.060  -1.603  -1.202  0.00  0.00    +0.039 A 
ATOM     21  C   UNL     1      -5.745  -0.445  -0.518  0.00  0.00    +0.018 A 
ATOM     22  C   UNL     1      -4.446   0.030  -0.523  0.00  0.00    +0.019 A 
ATOM     23 BR   UNL     1      -4.013   1.610   0.420  0.00  0.00    -0.050 Br
ATOM     24  F   UNL     1      -5.385  -3.417  -2.569  0.00  0.00    -0.205 F 
ENDBRANCH  16  17
ENDBRANCH  13  16
ENDBRANCH   2  13
TORSDOF 6
