REMARK  Name = ZINC00661739
REMARK  7 active torsions:
REMARK  status: ('A' for Active; 'I' for Inactive)
REMARK    1  A    between atoms: C_1  and  C_2
REMARK    2  A    between atoms: C_2  and  C_3
REMARK    3  A    between atoms: C_11  and  N_27
REMARK    4  A    between atoms: C_12  and  C_16
REMARK    5  A    between atoms: N_18  and  C_19
REMARK    6  A    between atoms: C_19  and  C_20
REMARK    7  A    between atoms: C_20  and  C_21
REMARK                            x       y       z     vdW  Elec       q    Type
REMARK                         _______ _______ _______ _____ _____    ______ ____
ROOT
ATOM      1  C   UNL     1      -0.765   1.599  -1.226  0.00  0.00    -0.007 C 
ATOM      2  C   UNL     1      -0.013   1.086   0.008  0.00  0.00    +0.010 C 
ATOM      3  C   UNL     1      -0.738   1.584   1.256  0.00  0.00    +0.056 C 
ATOM      4  C   UNL     1      -0.965   3.071   1.179  0.00  0.00    +0.046 A 
ATOM      5  C   UNL     1      -0.891   3.773  -0.010  0.00  0.00    -0.025 A 
ATOM      6  C   UNL     1      -1.122   5.136  -0.023  0.00  0.00    +0.017 A 
ATOM      7  C   UNL     1      -1.430   5.805   1.184  0.00  0.00    +0.029 A 
ATOM      8  C   UNL     1      -1.706   7.216   1.401  0.00  0.00    +0.053 A 
ATOM      9  C   UNL     1      -1.982   7.639   2.683  0.00  0.00    +0.097 A 
ATOM     10  S   UNL     1      -1.879   6.141   3.642  0.00  0.00    -0.062 S 
ATOM     11  C   UNL     1      -1.478   4.998   2.344  0.00  0.00    +0.111 A 
ATOM     12  N   UNL     1      -1.253   3.706   2.307  0.00  0.00    -0.244 NA
ATOM     13  C   UNL     1      -0.560   3.109  -1.322  0.00  0.00    +0.040 C 
ENDROOT
BRANCH   9  14
ATOM     14  C   UNL     1      -2.277   8.951   3.131  0.00  0.00    +0.253 C 
ATOM     15  O   UNL     1      -2.309   9.873   2.336  0.00  0.00    -0.270 OA
ATOM     16  N   UNL     1      -2.523   9.178   4.437  0.00  0.00    -0.311 N 
ATOM     17  H   UNL     1      -2.498   8.443   5.070  0.00  0.00    +0.149 HD
BRANCH  16  18
ATOM     18  C   UNL     1      -2.828  10.534   4.900  0.00  0.00    +0.109 C 
BRANCH  18  19
ATOM     19  C   UNL     1      -3.064  10.515   6.412  0.00  0.00    +0.054 C 
BRANCH  19  20
ATOM     20  C   UNL     1      -3.378  11.910   6.888  0.00  0.00    -0.046 A 
ATOM     21  C   UNL     1      -2.356  12.747   7.297  0.00  0.00    +0.004 A 
ATOM     22  C   UNL     1      -2.644  14.028   7.729  0.00  0.00    +0.000 A 
ATOM     23  C   UNL     1      -3.954  14.469   7.763  0.00  0.00    +0.000 A 
ATOM     24  C   UNL     1      -4.976  13.630   7.359  0.00  0.00    +0.000 A 
ATOM     25  C   UNL     1      -4.688  12.350   6.922  0.00  0.00    +0.004 A 
ENDBRANCH  19  20
ENDBRANCH  18  19
ENDBRANCH  16  18
ENDBRANCH   9  14
BRANCH   8  26
ATOM     26  N   UNL     1      -1.692   8.115   0.344  0.00  0.00    -0.356 N 
ATOM     27  H   UNL     1      -1.496   7.804  -0.554  0.00  0.00    +0.142 HD
ATOM     28  H   UNL     1      -1.878   9.054   0.502  0.00  0.00    +0.142 HD
ENDBRANCH   8  26
BRANCH   1  30
ATOM     29  C   UNL     1      -1.047   1.343  -3.695  0.00  0.00    +0.004 C 
ATOM     30  C   UNL     1      -0.213   0.923  -2.483  0.00  0.00    +0.000 C 
ENDBRANCH   1  30
TORSDOF 6
