REMARK  Name = ZINC49060808
REMARK  4 active torsions:
REMARK  status: ('A' for Active; 'I' for Inactive)
REMARK    1  A    between atoms: C_4  and  S_7
REMARK    2  A    between atoms: S_7  and  N_10
REMARK    3  A    between atoms: C_13  and  C_16
REMARK    4  A    between atoms: C_16  and  C_17
REMARK                            x       y       z     vdW  Elec       q    Type
REMARK                         _______ _______ _______ _____ _____    ______ ____
ROOT
ATOM      1  N   UNL     1       3.173  -2.560  -0.043  0.00  0.00    -0.103 NA
ATOM      2  C   UNL     1       3.698  -3.760  -0.056  0.00  0.00    +0.192 A 
ATOM      3  N   UNL     1       5.024  -4.133  -0.065  0.00  0.00    -0.336 N 
ATOM      4  C   UNL     1       5.326  -5.464  -0.077  0.00  0.00    +0.035 A 
ATOM      5  C   UNL     1       4.351  -6.372  -0.081  0.00  0.00    +0.070 A 
ATOM      6  S   UNL     1       2.886  -5.351  -0.057  0.00  0.00    -0.057 S 
ATOM      7  H   UNL     1       5.728  -3.466  -0.064  0.00  0.00    +0.168 HD
ENDROOT
BRANCH   1   8
ATOM      8  S   UNL     1       1.527  -2.376  -0.026  0.00  0.00    +0.108 S 
ATOM      9  O   UNL     1       1.075  -2.885   1.220  0.00  0.00    -0.146 OA
ATOM     10  O   UNL     1       1.050  -2.870  -1.270  0.00  0.00    -0.146 OA
BRANCH   8  14
ATOM     11  C   UNL     1      -0.017   1.379   0.010  0.00  0.00    +0.025 A 
ATOM     12  C   UNL     1       1.160   2.052   0.002  0.00  0.00    +0.048 A 
ATOM     13  S   UNL     1       2.348   0.720  -0.017  0.00  0.00    -0.075 S 
ATOM     14  C   UNL     1       1.197  -0.645  -0.013  0.00  0.00    +0.164 A 
ATOM     15  C   UNL     1       0.002  -0.004   0.002  0.00  0.00    +0.052 A 
ATOM     16 BR   UNL     1      -1.614  -0.986   0.013  0.00  0.00    -0.048 Br
ENDBRANCH   8  14
ENDBRANCH   1   8
BRANCH   4  17
ATOM     17  C   UNL     1       6.766  -5.908  -0.088  0.00  0.00    +0.178 C 
BRANCH  17  18
ATOM     18  C   UNL     1       7.276  -5.926  -1.506  0.00  0.00    +0.362 C 
ATOM     19  O   UNL     1       6.538  -5.608  -2.423  0.00  0.00    -0.246 OA
ATOM     20  O   UNL     1       8.426  -6.259  -1.736  0.00  0.00    -0.246 OA
ENDBRANCH  17  18
ENDBRANCH   4  17
TORSDOF 4
