REMARK  Name = ZINC12635521
REMARK  13 active torsions:
REMARK  status: ('A' for Active; 'I' for Inactive)
REMARK    1  A    between atoms: C_1  and  C_2
REMARK    2  A    between atoms: C_2  and  N_3
REMARK    3  A    between atoms: C_7  and  C_9
REMARK    4  A    between atoms: C_9  and  N_10
REMARK    5  A    between atoms: N_10  and  C_11
REMARK    6  A    between atoms: N_10  and  C_25
REMARK    7  A    between atoms: C_11  and  C_12
REMARK    8  A    between atoms: C_17  and  C_24
REMARK    9  A    between atoms: C_25  and  N_27
REMARK   10  A    between atoms: N_27  and  C_28
REMARK   11  A    between atoms: C_33  and  C_34
REMARK   12  A    between atoms: C_34  and  O_36
REMARK   13  A    between atoms: O_36  and  C_37
REMARK                            x       y       z     vdW  Elec       q    Type
REMARK                         _______ _______ _______ _____ _____    ______ ____
ROOT
ATOM      1  N   UNL     1       3.293  -1.687  -0.347  0.00  0.00    -0.309 N 
ENDROOT
BRANCH   1   2
ATOM      2  C   UNL     1       3.732  -0.451  -0.655  0.00  0.00    +0.137 C 
ATOM      3  S   UNL     1       5.015   0.248   0.237  0.00  0.00    -0.018 S 
BRANCH   2   4
ATOM      4  N   UNL     1       3.161   0.236  -1.664  0.00  0.00    -0.296 N 
ATOM      5  H   UNL     1       2.477  -0.183  -2.210  0.00  0.00    +0.154 HD
BRANCH   4   6
ATOM      6  C   UNL     1       3.552   1.546  -1.924  0.00  0.00    +0.047 A 
ATOM      7  C   UNL     1       3.763   2.432  -0.876  0.00  0.00    +0.024 A 
ATOM      8  C   UNL     1       4.151   3.731  -1.136  0.00  0.00    +0.002 A 
ATOM      9  C   UNL     1       4.334   4.161  -2.441  0.00  0.00    +0.001 A 
ATOM     10  C   UNL     1       4.130   3.296  -3.493  0.00  0.00    +0.017 A 
ATOM     11  C   UNL     1       3.742   1.976  -3.246  0.00  0.00    +0.080 A 
BRANCH  11  12
ATOM     12  C   UNL     1       3.527   1.044  -4.367  0.00  0.00    +0.341 C 
ATOM     13  O   UNL     1       3.107  -0.076  -4.154  0.00  0.00    -0.245 OA
BRANCH  12  14
ATOM     14  O   UNL     1       3.798   1.434  -5.629  0.00  0.00    -0.464 OA
ATOM     15  C   UNL     1       3.567   0.479  -6.666  0.00  0.00    +0.280 C 
ENDBRANCH  12  14
ENDBRANCH  11  12
ENDBRANCH   4   6
ENDBRANCH   2   4
ENDBRANCH   1   2
BRANCH   1  16
ATOM     16  C   UNL     1       2.266  -2.327  -1.174  0.00  0.00    +0.092 C 
BRANCH  16  21
ATOM     17  N   UNL     1       0.655  -0.629  -0.419  0.00  0.00    +0.382 N 
ATOM     18  C   UNL     1      -0.547  -0.268  -1.201  0.00  0.00    -0.078 C 
ATOM     19  C   UNL     1      -0.663  -1.373  -2.280  0.00  0.00    -0.020 C 
ATOM     20  C   UNL     1      -0.211  -2.630  -1.492  0.00  0.00    -0.016 C 
ATOM     21  C   UNL     1       0.888  -2.078  -0.559  0.00  0.00    -0.051 C 
ATOM     22  H   UNL     1       1.452  -0.121  -0.771  0.00  0.00    -0.081 HD
BRANCH  17  24
ATOM     23  C   UNL     1       0.325   1.220   1.152  0.00  0.00    -0.017 C 
ATOM     24  C   UNL     1       0.442  -0.297   0.996  0.00  0.00    -0.082 C 
ENDBRANCH  17  24
ENDBRANCH  16  21
ENDBRANCH   1  16
BRANCH   1  25
ATOM     25  C   UNL     1       3.841  -2.392   0.814  0.00  0.00    +0.147 C 
BRANCH  25  26
ATOM     26  C   UNL     1       5.043  -3.197   0.391  0.00  0.00    +0.035 A 
ATOM     27  C   UNL     1       6.287  -2.678   0.531  0.00  0.00    +0.020 A 
ATOM     28  C   UNL     1       7.434  -3.486   0.111  0.00  0.00    -0.001 A 
ATOM     29  C   UNL     1       8.742  -3.005   0.231  0.00  0.00    +0.010 A 
ATOM     30  C   UNL     1       9.790  -3.784  -0.170  0.00  0.00    +0.004 A 
ATOM     31  C   UNL     1       9.568  -5.050  -0.695  0.00  0.00    -0.048 A 
ATOM     32  C   UNL     1       8.288  -5.545  -0.823  0.00  0.00    +0.029 A 
ATOM     33  C   UNL     1       7.205  -4.769  -0.421  0.00  0.00    +0.049 A 
ATOM     34  N   UNL     1       5.915  -5.239  -0.536  0.00  0.00    -0.322 N 
ATOM     35  H   UNL     1       5.759  -6.124  -0.903  0.00  0.00    +0.169 HD
ATOM     36  C   UNL     1       4.869  -4.492  -0.143  0.00  0.00    +0.254 A 
ATOM     37  O   UNL     1       3.741  -4.942  -0.255  0.00  0.00    -0.268 OA
ATOM     38  C   UNL     1      10.740  -5.892  -1.131  0.00  0.00    +0.044 C 
ENDBRANCH  25  26
ENDBRANCH   1  25
TORSDOF 10
