REMARK  Name = ZINC39634794
REMARK  13 active torsions:
REMARK  status: ('A' for Active; 'I' for Inactive)
REMARK    1  A    between atoms: C_1  and  C_2
REMARK    2  A    between atoms: C_2  and  C_3
REMARK    3  A    between atoms: C_2  and  N_4
REMARK    4  A    between atoms: N_4  and  C_5
REMARK    5  A    between atoms: N_4  and  C_32
REMARK    6  A    between atoms: C_5  and  C_6
REMARK    7  A    between atoms: C_6  and  N_7
REMARK    8  A    between atoms: C_8  and  C_10
REMARK    9  A    between atoms: C_21  and  C_23
REMARK   10  A    between atoms: C_23  and  O_24
REMARK   11  A    between atoms: O_24  and  C_25
REMARK   12  A    between atoms: C_32  and  C_33
REMARK   13  A    between atoms: C_32  and  C_34
REMARK                            x       y       z     vdW  Elec       q    Type
REMARK                         _______ _______ _______ _____ _____    ______ ____
ROOT
ATOM      1  C   UNL     1      -7.767  -0.309  -3.045  0.00  0.00    +0.100 C 
ATOM      2  C   UNL     1      -8.178  -1.627  -3.738  0.00  0.00    +0.121 C 
ATOM      3  N   UNL     1      -9.574  -1.863  -3.297  0.00  0.00    -0.297 N 
ATOM      4  C   UNL     1     -10.194  -0.516  -3.301  0.00  0.00    +0.115 C 
ATOM      5  C   UNL     1      -9.092   0.419  -2.763  0.00  0.00    -0.004 C 
ATOM      6  C   UNL     1      -9.128   1.755  -3.498  0.00  0.00    -0.010 C 
ATOM      7  C   UNL     1     -10.429   2.486  -3.157  0.00  0.00    -0.082 C 
ATOM      8  N   UNL     1     -10.505   2.701  -1.706  0.00  0.00    +0.379 N 
ATOM      9  C   UNL     1     -10.565   1.409  -1.012  0.00  0.00    -0.082 C 
ATOM     10  C   UNL     1      -9.269   0.632  -1.263  0.00  0.00    -0.010 C 
ATOM     11  C   UNL     1     -10.149  -3.036  -2.968  0.00  0.00    +0.253 C 
ATOM     12  O   UNL     1     -11.312  -3.066  -2.624  0.00  0.00    -0.272 OA
ATOM     13  H   UNL     1      -9.690   3.209  -1.400  0.00  0.00    -0.086 HD
ATOM     14  H   UNL     1     -11.333   3.236  -1.490  0.00  0.00    -0.086 HD
ENDROOT
BRANCH   1  16
ATOM     15  N   UNL     1      -6.188   0.309  -1.245  0.00  0.00    -0.317 N 
ATOM     16  C   UNL     1      -7.043  -0.598  -1.755  0.00  0.00    +0.218 C 
ATOM     17  O   UNL     1      -7.230  -1.648  -1.177  0.00  0.00    -0.275 OA
ATOM     18  H   UNL     1      -6.038   1.149  -1.707  0.00  0.00    +0.149 HD
BRANCH  15  19
ATOM     19  C   UNL     1      -5.484   0.028   0.009  0.00  0.00    +0.085 C 
BRANCH  19  20
ATOM     20  C   UNL     1      -4.582   1.212   0.364  0.00  0.00    -0.059 C 
BRANCH  20  21
ATOM     21  N   UNL     1      -3.858   0.921   1.609  0.00  0.00    +0.384 N 
ATOM     22  H   UNL     1      -4.520   0.692   2.336  0.00  0.00    -0.081 HD
BRANCH  21  24
ATOM     23  C   UNL     1      -4.019   3.291   2.205  0.00  0.00    -0.014 C 
ATOM     24  C   UNL     1      -3.079   2.100   2.010  0.00  0.00    -0.074 C 
ATOM     25  C   UNL     1      -2.348   1.806   3.321  0.00  0.00    -0.014 C 
ENDBRANCH  21  24
BRANCH  21  26
ATOM     26  C   UNL     1      -2.953  -0.216   1.395  0.00  0.00    -0.074 C 
ATOM     27  C   UNL     1      -1.641   0.284   0.787  0.00  0.00    -0.014 C 
ATOM     28  C   UNL     1      -2.667  -0.899   2.734  0.00  0.00    -0.014 C 
ENDBRANCH  21  26
ENDBRANCH  20  21
ENDBRANCH  19  20
ENDBRANCH  15  19
ENDBRANCH   1  16
BRANCH  11  29
ATOM     29  C   UNL     1      -9.348  -4.311  -3.027  0.00  0.00    +0.324 C 
BRANCH  29  30
ATOM     30  O   UNL     1     -10.172  -5.411  -2.635  0.00  0.00    -0.483 OA
BRANCH  30  31
ATOM     31  C   UNL     1      -9.598  -6.643  -2.634  0.00  0.00    +0.123 A 
ATOM     32  C   UNL     1      -8.267  -6.789  -2.997  0.00  0.00    +0.046 A 
ATOM     33  C   UNL     1      -7.685  -8.042  -2.994  0.00  0.00    +0.005 A 
ATOM     34  C   UNL     1      -8.428  -9.150  -2.631  0.00  0.00    +0.020 A 
ATOM     35  C   UNL     1      -9.756  -9.007  -2.269  0.00  0.00    +0.044 A 
ATOM     36  C   UNL     1     -10.341  -7.754  -2.264  0.00  0.00    +0.065 A 
ATOM     37 CL   UNL     1     -10.686 -10.400  -1.813  0.00  0.00    -0.083 Cl
ENDBRANCH  30  31
ENDBRANCH  29  30
ENDBRANCH  11  29
TORSDOF 9
