REMARK  Name = ZINC52569910
REMARK  9 active torsions:
REMARK  status: ('A' for Active; 'I' for Inactive)
REMARK    1  A    between atoms: C_1  and  C_2
REMARK    2  A    between atoms: C_5  and  C_12
REMARK    3  A    between atoms: C_14  and  O_23
REMARK    4  A    between atoms: C_17  and  C_18
REMARK    5  A    between atoms: O_23  and  C_24
REMARK    6  A    between atoms: C_24  and  C_25
REMARK    7  A    between atoms: C_25  and  C_27
REMARK    8  A    between atoms: C_25  and  N_38
REMARK    9  A    between atoms: C_27  and  C_28
REMARK                            x       y       z     vdW  Elec       q    Type
REMARK                         _______ _______ _______ _____ _____    ______ ____
ROOT
ATOM      1  C   UNL     1      -5.658   1.993   0.106  0.00  0.00    +0.012 A 
ATOM      2  C   UNL     1      -5.867   0.827   0.843  0.00  0.00    +0.057 A 
ATOM      3  C   UNL     1      -6.950   0.780   1.713  0.00  0.00    +0.139 A 
ATOM      4  C   UNL     1      -7.784   1.885   1.821  0.00  0.00    +0.157 A 
ATOM      5  N   UNL     1      -7.566   2.974   1.114  0.00  0.00    -0.251 NA
ATOM      6  C   UNL     1      -6.543   3.070   0.275  0.00  0.00    +0.082 A 
ENDROOT
BRANCH   1  11
ATOM      7  C   UNL     1      -0.013   1.086   0.008  0.00  0.00    +0.068 C 
ATOM      8  C   UNL     1      -0.742   1.585  -1.213  0.00  0.00    +0.067 A 
ATOM      9  C   UNL     1      -2.173   1.853  -1.311  0.00  0.00    +0.023 A 
ATOM     10  C   UNL     1      -3.241   1.753  -0.415  0.00  0.00    +0.020 A 
ATOM     11  C   UNL     1      -4.518   2.095  -0.835  0.00  0.00    -0.015 A 
ATOM     12  C   UNL     1      -4.732   2.538  -2.147  0.00  0.00    +0.010 A 
ATOM     13  C   UNL     1      -3.695   2.638  -3.026  0.00  0.00    +0.028 A 
ATOM     14  C   UNL     1      -2.404   2.300  -2.627  0.00  0.00    +0.066 A 
ATOM     15  N   UNL     1      -1.189   2.296  -3.262  0.00  0.00    -0.277 N 
ATOM     16  N   UNL     1      -0.206   1.860  -2.368  0.00  0.00    -0.178 NA
ATOM     17  H   UNL     1      -1.035   2.556  -4.184  0.00  0.00    +0.189 HD
ENDBRANCH   1  11
BRANCH   6  18
ATOM     18  C   UNL     1      -6.337   4.319  -0.493  0.00  0.00    +0.039 A 
ATOM     19  C   UNL     1      -7.372   5.214  -1.025  0.00  0.00    +0.051 A 
ATOM     20  C   UNL     1      -6.718   6.210  -1.645  0.00  0.00    +0.195 A 
ATOM     21  O   UNL     1      -5.397   6.000  -1.537  0.00  0.00    -0.470 OA
ATOM     22  C   UNL     1      -5.149   4.878  -0.848  0.00  0.00    +0.204 A 
ENDBRANCH   6  18
BRANCH   3  23
ATOM     23  O   UNL     1      -7.190  -0.336   2.450  0.00  0.00    -0.492 OA
BRANCH  23  24
ATOM     24  C   UNL     1      -8.322  -0.307   3.321  0.00  0.00    +0.213 C 
BRANCH  24  25
ATOM     25  C   UNL     1      -8.430  -1.641   4.062  0.00  0.00    -0.033 C 
BRANCH  25  26
ATOM     26  N   UNL     1      -7.266  -1.808   4.943  0.00  0.00    +0.382 N 
ATOM     27  H   UNL     1      -7.338  -2.688   5.432  0.00  0.00    -0.089 HD
ATOM     28  H   UNL     1      -6.422  -1.797   4.391  0.00  0.00    -0.089 HD
ATOM     29  H   UNL     1      -7.240  -1.053   5.612  0.00  0.00    -0.089 HD
ENDBRANCH  25  26
BRANCH  25  30
ATOM     30  C   UNL     1      -9.710  -1.658   4.900  0.00  0.00    +0.020 C 
BRANCH  30  31
ATOM     31  C   UNL     1      -9.880  -3.015   5.532  0.00  0.00    -0.043 C 
ATOM     32  C   UNL     1      -9.498  -3.386   6.775  0.00  0.00    -0.001 A 
ATOM     33  C   UNL     1      -8.835  -2.663   7.867  0.00  0.00    +0.013 A 
ATOM     34  C   UNL     1      -8.575  -3.315   9.022  0.00  0.00    +0.039 A 
ATOM     35  C   UNL     1      -8.924  -4.664   9.203  0.00  0.00    +0.125 A 
ATOM     36  C   UNL     1      -9.536  -5.394   8.242  0.00  0.00    +0.064 A 
ATOM     37  C   UNL     1      -9.855  -4.807   6.989  0.00  0.00    +0.046 A 
ATOM     38  N   UNL     1     -10.436  -5.295   5.919  0.00  0.00    -0.380 N 
ATOM     39  C   UNL     1     -10.517  -4.236   4.907  0.00  0.00    +0.144 C 
ATOM     40  F   UNL     1      -8.636  -5.256  10.382  0.00  0.00    -0.205 F 
ATOM     41  H   UNL     1     -10.761  -6.203   5.815  0.00  0.00    +0.160 HD
ENDBRANCH  30  31
ENDBRANCH  25  30
ENDBRANCH  24  25
ENDBRANCH  23  24
ENDBRANCH   3  23
TORSDOF 8
