REMARK  Name = ZINC33612073
REMARK  9 active torsions:
REMARK  status: ('A' for Active; 'I' for Inactive)
REMARK    1  A    between atoms: C_1  and  C_2
REMARK    2  A    between atoms: C_2  and  C_3
REMARK    3  A    between atoms: C_6  and  N_9
REMARK    4  A    between atoms: C_14  and  C_33
REMARK    5  A    between atoms: C_17  and  C_22
REMARK    6  A    between atoms: C_17  and  C_30
REMARK    7  A    between atoms: C_22  and  C_23
REMARK    8  A    between atoms: C_26  and  O_29
REMARK    9  A    between atoms: C_34  and  C_35
REMARK                            x       y       z     vdW  Elec       q    Type
REMARK                         _______ _______ _______ _____ _____    ______ ____
ROOT
ATOM      1  N   UNL     1       2.666  -1.821  -4.673  0.00  0.00    -0.210 N 
ATOM      2  C   UNL     1       4.017  -2.052  -4.740  0.00  0.00    +0.229 C 
ATOM      3  O   UNL     1       4.802  -2.103  -3.817  0.00  0.00    -0.275 OA
ATOM      4  C   UNL     1       4.304  -2.222  -6.138  0.00  0.00    +0.077 C 
ATOM      5  C   UNL     1       5.321  -2.732  -7.072  0.00  0.00    -0.034 C 
ATOM      6  N   UNL     1       4.635  -2.636  -8.406  0.00  0.00    +0.395 N 
ATOM      7  C   UNL     1       3.162  -2.612  -8.163  0.00  0.00    +0.052 C 
ATOM      8  C   UNL     1       2.982  -2.880  -6.679  0.00  0.00    +0.086 C 
ATOM      9  C   UNL     1       2.026  -2.082  -5.852  0.00  0.00    +0.229 C 
ATOM     10  O   UNL     1       0.906  -1.736  -6.164  0.00  0.00    -0.275 OA
ATOM     11  H   UNL     1       4.952  -1.715  -8.917  0.00  0.00    -0.083 HD
ATOM     12  H   UNL     1       4.905  -3.508  -9.021  0.00  0.00    -0.083 HD
ENDROOT
BRANCH   1  16
ATOM     13  C   UNL     1       0.724  -0.455  -1.246  0.00  0.00    -0.048 A 
ATOM     14  C   UNL     1       0.000  -0.700  -2.398  0.00  0.00    +0.005 A 
ATOM     15  C   UNL     1       0.641  -1.147  -3.537  0.00  0.00    +0.024 A 
ATOM     16  C   UNL     1       2.013  -1.361  -3.521  0.00  0.00    +0.044 A 
ATOM     17  C   UNL     1       2.737  -1.120  -2.361  0.00  0.00    +0.024 A 
ATOM     18  C   UNL     1       2.091  -0.667  -1.227  0.00  0.00    +0.005 A 
BRANCH  13  20
ATOM     19  C   UNL     1       0.003   1.569  -0.008  0.00  0.00    +0.009 C 
ATOM     20  C   UNL     1       0.023   0.039  -0.007  0.00  0.00    +0.032 C 
ENDBRANCH  13  20
ENDBRANCH   1  16
BRANCH   7  21
ATOM     21  C   UNL     1       2.482  -3.687  -8.971  0.00  0.00    +0.347 C 
ATOM     22  O   UNL     1       1.560  -4.307  -8.497  0.00  0.00    -0.248 OA
ATOM     23  O   UNL     1       2.901  -3.956 -10.218  0.00  0.00    -0.248 OA
ENDBRANCH   7  21
BRANCH   5  24
ATOM     24  C   UNL     1       5.656  -4.164  -6.745  0.00  0.00    -0.041 C 
ATOM     25  C   UNL     1       6.922  -4.543  -6.646  0.00  0.00    +0.002 C 
BRANCH  25  26
ATOM     26  C   UNL     1       7.253  -5.969  -6.441  0.00  0.00    -0.025 A 
ATOM     27  C   UNL     1       6.235  -6.918  -6.346  0.00  0.00    +0.008 A 
ATOM     28  C   UNL     1       6.551  -8.249  -6.162  0.00  0.00    +0.001 A 
ATOM     29  C   UNL     1       7.874  -8.641  -6.059  0.00  0.00    +0.000 A 
ATOM     30  C   UNL     1       8.888  -7.704  -6.147  0.00  0.00    +0.001 A 
ATOM     31  C   UNL     1       8.585  -6.371  -6.337  0.00  0.00    +0.008 A 
ENDBRANCH  25  26
ENDBRANCH   5  24
BRANCH   7  32
ATOM     32  C   UNL     1       2.590  -1.240  -8.524  0.00  0.00    +0.035 C 
BRANCH  32  33
ATOM     33  C   UNL     1       2.776  -0.990  -9.999  0.00  0.00    -0.048 A 
ATOM     34  C   UNL     1       3.925  -0.369 -10.454  0.00  0.00    +0.007 A 
ATOM     35  C   UNL     1       4.100  -0.145 -11.806  0.00  0.00    +0.045 A 
ATOM     36  C   UNL     1       3.118  -0.533 -12.706  0.00  0.00    +0.117 A 
ATOM     37  C   UNL     1       1.964  -1.151 -12.246  0.00  0.00    +0.045 A 
ATOM     38  C   UNL     1       1.796  -1.378 -10.894  0.00  0.00    +0.007 A 
BRANCH  36  39
ATOM     39  O   UNL     1       3.287  -0.308 -14.036  0.00  0.00    -0.507 OA
ATOM     40  H   UNL     1       2.508  -0.616 -14.748  0.00  0.00    +0.292 HD
ENDBRANCH  36  39
ENDBRANCH  32  33
ENDBRANCH   7  32
TORSDOF 8
