REMARK  Name = ZINC36490620
REMARK  10 active torsions:
REMARK  status: ('A' for Active; 'I' for Inactive)
REMARK    1  A    between atoms: C_1  and  C_2
REMARK    2  A    between atoms: C_5  and  S_8
REMARK    3  A    between atoms: S_8  and  C_11
REMARK    4  A    between atoms: C_11  and  N_12
REMARK    5  A    between atoms: C_13  and  C_15
REMARK    6  A    between atoms: C_15  and  C_17
REMARK    7  A    between atoms: C_15  and  N_24
REMARK    8  A    between atoms: C_21  and  O_23
REMARK    9  A    between atoms: N_24  and  C_25
REMARK   10  A    between atoms: C_31  and  C_33
REMARK                            x       y       z     vdW  Elec       q    Type
REMARK                         _______ _______ _______ _____ _____    ______ ____
ROOT
ATOM      1  C   UNL     1       3.184  -4.664   3.278  0.00  0.00    +0.193 C 
ENDROOT
BRANCH   1   2
ATOM      2  C   UNL     1       4.635  -4.268   3.185  0.00  0.00    -0.015 A 
ATOM      3  C   UNL     1       5.476  -4.926   2.305  0.00  0.00    +0.006 A 
ATOM      4  C   UNL     1       6.808  -4.565   2.218  0.00  0.00    +0.004 A 
ATOM      5  C   UNL     1       7.302  -3.546   3.009  0.00  0.00    +0.045 A 
ATOM      6  C   UNL     1       6.461  -2.885   3.892  0.00  0.00    +0.117 A 
ATOM      7  C   UNL     1       5.123  -3.245   3.974  0.00  0.00    +0.051 A 
BRANCH   6   8
ATOM      8  O   UNL     1       6.945  -1.883   4.672  0.00  0.00    -0.507 OA
ATOM      9  H   UNL     1       6.885  -1.006   4.268  0.00  0.00    +0.292 HD
ENDBRANCH   6   8
ENDBRANCH   1   2
BRANCH   1  11
ATOM     10  N   UNL     1       2.602  -3.721   1.067  0.00  0.00    -0.294 N 
ATOM     11  C   UNL     1       2.607  -4.787   1.891  0.00  0.00    +0.239 C 
ATOM     12  O   UNL     1       2.148  -5.845   1.517  0.00  0.00    -0.273 OA
ATOM     13  H   UNL     1       2.969  -2.874   1.366  0.00  0.00    +0.150 HD
BRANCH  10  14
ATOM     14  C   UNL     1       2.041  -3.840  -0.281  0.00  0.00    +0.278 C 
BRANCH  14  15
ATOM     15  S   UNL     1       0.311  -3.293  -0.268  0.00  0.00    +0.013 S 
ATOM     16  O   UNL     1      -0.381  -3.885   0.823  0.00  0.00    -0.168 OA
ATOM     17  O   UNL     1      -0.229  -3.343  -1.581  0.00  0.00    -0.168 OA
BRANCH  15  22
ATOM     18  C   UNL     1       0.552   2.585   1.074  0.00  0.00    +0.044 C 
ATOM     19  C   UNL     1       0.492   1.117   0.739  0.00  0.00    -0.050 A 
ATOM     20  C   UNL     1       0.539   0.706  -0.580  0.00  0.00    +0.005 A 
ATOM     21  C   UNL     1       0.484  -0.640  -0.888  0.00  0.00    +0.027 A 
ATOM     22  C   UNL     1       0.383  -1.577   0.124  0.00  0.00    +0.090 A 
ATOM     23  C   UNL     1       0.336  -1.166   1.444  0.00  0.00    +0.027 A 
ATOM     24  C   UNL     1       0.396   0.180   1.751  0.00  0.00    +0.005 A 
ENDBRANCH  15  22
ENDBRANCH  14  15
ENDBRANCH  10  14
ENDBRANCH   1  11
BRANCH   1  25
ATOM     25  N   UNL     1       3.072  -5.951   3.969  0.00  0.00    -0.281 N 
ATOM     26  C   UNL     1       2.297  -6.062   5.066  0.00  0.00    +0.237 C 
ATOM     27  O   UNL     1       2.136  -7.145   5.588  0.00  0.00    -0.274 OA
BRANCH  26  28
ATOM     28  C   UNL     1       1.630  -4.840   5.644  0.00  0.00    +0.159 C 
ATOM     29  C   UNL     1       2.613  -4.078   6.560  0.00  0.00    +0.041 C 
ATOM     30  C   UNL     1       2.277  -4.674   7.947  0.00  0.00    +0.098 C 
ATOM     31  C   UNL     1       0.850  -5.155   7.808  0.00  0.00    +0.214 C 
ATOM     32  O   UNL     1       0.116  -5.429   8.734  0.00  0.00    -0.276 OA
ATOM     33  N   UNL     1       0.511  -5.234   6.508  0.00  0.00    -0.304 N 
ATOM     34  H   UNL     1      -0.359  -5.513   6.183  0.00  0.00    +0.149 HD
ENDBRANCH  26  28
BRANCH  25  35
ATOM     35  C   UNL     1       3.803  -7.118   3.467  0.00  0.00    +0.077 C 
ATOM     36  C   UNL     1       2.823  -8.266   3.221  0.00  0.00    +0.022 C 
ATOM     37  C   UNL     1       3.587  -9.485   2.697  0.00  0.00    +0.002 C 
ATOM     38  C   UNL     1       4.629  -9.916   3.731  0.00  0.00    +0.000 C 
ATOM     39  C   UNL     1       5.609  -8.768   3.978  0.00  0.00    +0.002 C 
ATOM     40  C   UNL     1       4.845  -7.550   4.501  0.00  0.00    +0.022 C 
ENDBRANCH  25  35
ENDBRANCH   1  25
TORSDOF 9
