REMARK  Name = ZINC08923747
REMARK  4 active torsions:
REMARK  status: ('A' for Active; 'I' for Inactive)
REMARK    1  A    between atoms: C_7  and  C_11
REMARK    2  A    between atoms: C_11  and  O_30
REMARK    3  A    between atoms: N_18  and  C_21
REMARK    4  A    between atoms: C_21  and  C_22
REMARK                            x       y       z     vdW  Elec       q    Type
REMARK                         _______ _______ _______ _____ _____    ______ ____
ROOT
ATOM      1  C   UNL     1      -1.241   2.341   0.021  0.00  0.00    +0.196 C 
ATOM      2  C   UNL     1      -2.126   2.002   1.199  0.00  0.00    +0.020 A 
ATOM      3  C   UNL     1      -1.929   2.045   2.561  0.00  0.00    +0.024 A 
ATOM      4  C   UNL     1      -2.948   1.666   3.418  0.00  0.00    +0.018 A 
ATOM      5  C   UNL     1      -4.161   1.246   2.901  0.00  0.00    +0.017 A 
ATOM      6  C   UNL     1      -4.360   1.202   1.537  0.00  0.00    +0.025 A 
ATOM      7  C   UNL     1      -3.339   1.582   0.668  0.00  0.00    +0.043 A 
ATOM      8  N   UNL     1      -3.297   1.625  -0.726  0.00  0.00    -0.264 N 
ATOM      9  C   UNL     1      -2.110   2.056  -1.186  0.00  0.00    +0.261 C 
ATOM     10  O   UNL     1      -1.794   2.191  -2.349  0.00  0.00    -0.271 OA
ATOM     11 BR   UNL     1      -2.683   1.721   5.289  0.00  0.00    -0.050 Br
ENDROOT
BRANCH   1  18
ATOM     12  C   UNL     1      -0.634  -2.308  -0.005  0.00  0.00    +0.001 A 
ATOM     13  C   UNL     1       0.704  -2.678  -0.020  0.00  0.00    +0.002 A 
ATOM     14  C   UNL     1       1.697  -1.724  -0.024  0.00  0.00    +0.026 A 
ATOM     15  C   UNL     1       1.359  -0.374  -0.013  0.00  0.00    +0.047 A 
ATOM     16  C   UNL     1       0.002  -0.004   0.002  0.00  0.00    +0.006 A 
ATOM     17  C   UNL     1      -0.989  -0.988   0.006  0.00  0.00    +0.010 A 
ATOM     18  C   UNL     1      -0.018   1.461   0.010  0.00  0.00    +0.022 A 
ATOM     19  C   UNL     1       1.260   1.871   0.000  0.00  0.00    +0.091 A 
ATOM     20  N   UNL     1       2.097   0.788  -0.014  0.00  0.00    -0.360 N 
ATOM     21  H   UNL     1       3.066   0.833  -0.023  0.00  0.00    +0.165 HD
ENDBRANCH   1  18
BRANCH   1  22
ATOM     22  O   UNL     1      -0.865   3.719   0.053  0.00  0.00    -0.371 OA
ATOM     23  H   UNL     1      -0.321   3.996  -0.697  0.00  0.00    +0.212 HD
ENDBRANCH   1  22
BRANCH   8  24
ATOM     24  C   UNL     1      -4.417   1.244  -1.590  0.00  0.00    +0.149 C 
BRANCH  24  25
ATOM     25  C   UNL     1      -4.325  -0.225  -1.912  0.00  0.00    -0.030 A 
ATOM     26  C   UNL     1      -3.629  -0.645  -3.031  0.00  0.00    +0.006 A 
ATOM     27  C   UNL     1      -3.540  -1.992  -3.324  0.00  0.00    +0.020 A 
ATOM     28  C   UNL     1      -4.157  -2.921  -2.505  0.00  0.00    +0.041 A 
ATOM     29  C   UNL     1      -4.858  -2.500  -1.389  0.00  0.00    +0.020 A 
ATOM     30  C   UNL     1      -4.942  -1.153  -1.093  0.00  0.00    +0.006 A 
ATOM     31 CL   UNL     1      -4.050  -4.613  -2.877  0.00  0.00    -0.084 Cl
ENDBRANCH  24  25
ENDBRANCH   8  24
TORSDOF 4
