REMARK  Name = ZINC39874774
REMARK  7 active torsions:
REMARK  status: ('A' for Active; 'I' for Inactive)
REMARK    1  A    between atoms: C_1  and  C_2
REMARK    2  A    between atoms: C_2  and  C_4
REMARK    3  A    between atoms: C_2  and  O_17
REMARK    4  A    between atoms: O_17  and  C_18
REMARK    5  A    between atoms: C_21  and  C_24
REMARK    6  A    between atoms: C_24  and  C_25
REMARK    7  A    between atoms: C_24  and  C_26
REMARK                            x       y       z     vdW  Elec       q    Type
REMARK                         _______ _______ _______ _____ _____    ______ ____
ROOT
ATOM      1  C   UNL     1      -1.469  -0.320   0.135  0.00  0.00    +0.259 C 
ATOM      2  O   UNL     1      -1.896  -0.799   1.164  0.00  0.00    -0.271 OA
ATOM      3  N   UNL     1      -2.308  -0.061  -0.887  0.00  0.00    -0.262 N 
ATOM      4  C   UNL     1      -3.659  -0.344  -0.762  0.00  0.00    +0.166 A 
ATOM      5  N   UNL     1      -4.302  -0.854   0.262  0.00  0.00    -0.225 NA
ATOM      6  C   UNL     1      -5.635  -1.078   0.244  0.00  0.00    +0.080 A 
ATOM      7  C   UNL     1      -6.443  -1.618   1.271  0.00  0.00    +0.032 A 
ATOM      8  C   UNL     1      -7.791  -1.782   1.090  0.00  0.00    +0.040 A 
ATOM      9  C   UNL     1      -8.411  -1.427  -0.102  0.00  0.00    +0.125 A 
ATOM     10  C   UNL     1      -7.650  -0.896  -1.129  0.00  0.00    +0.055 A 
ATOM     11  C   UNL     1      -6.298  -0.729  -0.954  0.00  0.00    +0.043 A 
ATOM     12  S   UNL     1      -4.970  -0.101  -1.953  0.00  0.00    -0.052 S 
ATOM     13  F   UNL     1      -9.742  -1.600  -0.257  0.00  0.00    -0.205 F 
ATOM     14  H   UNL     1      -1.967   0.323  -1.710  0.00  0.00    +0.157 HD
ENDROOT
BRANCH   1  16
ATOM     15  C   UNL     1       0.194   1.500  -0.137  0.00  0.00    +0.062 C 
ATOM     16  C   UNL     1       0.000  -0.012   0.000  0.00  0.00    +0.256 C 
BRANCH  16  17
ATOM     17  O   UNL     1       0.693  -0.477   1.160  0.00  0.00    -0.480 OA
BRANCH  17  18
ATOM     18  C   UNL     1       2.014  -0.764   1.016  0.00  0.00    +0.122 A 
ATOM     19  C   UNL     1       2.721  -1.330   2.067  0.00  0.00    +0.046 A 
ATOM     20  C   UNL     1       4.063  -1.621   1.917  0.00  0.00    +0.007 A 
ATOM     21  C   UNL     1       4.702  -1.348   0.722  0.00  0.00    -0.045 A 
ATOM     22  C   UNL     1       4.000  -0.783  -0.326  0.00  0.00    +0.007 A 
ATOM     23  C   UNL     1       2.656  -0.496  -0.184  0.00  0.00    +0.046 A 
BRANCH  21  24
ATOM     24  C   UNL     1       6.167  -1.665   0.563  0.00  0.00    +0.013 C 
ATOM     25  C   UNL     1       6.350  -2.661  -0.584  0.00  0.00    +0.012 C 
ATOM     26  C   UNL     1       6.936  -0.380   0.251  0.00  0.00    +0.012 C 
ENDBRANCH  21  24
ENDBRANCH  17  18
ENDBRANCH  16  17
ENDBRANCH   1  16
TORSDOF 4
