REMARK  Name = ZINC39710897
REMARK  12 active torsions:
REMARK  status: ('A' for Active; 'I' for Inactive)
REMARK    1  A    between atoms: C_1  and  C_2
REMARK    2  A    between atoms: C_8  and  C_14
REMARK    3  A    between atoms: C_14  and  C_16
REMARK    4  A    between atoms: C_14  and  N_26
REMARK    5  A    between atoms: N_21  and  C_22
REMARK    6  A    between atoms: C_22  and  C_23
REMARK    7  A    between atoms: C_22  and  C_24
REMARK    8  A    between atoms: C_22  and  C_25
REMARK    9  A    between atoms: N_26  and  C_27
REMARK   10  A    between atoms: N_26  and  C_34
REMARK   11  A    between atoms: C_27  and  C_28
REMARK   12  A    between atoms: C_34  and  C_35
REMARK                            x       y       z     vdW  Elec       q    Type
REMARK                         _______ _______ _______ _____ _____    ______ ____
ROOT
ATOM      1  C   UNL     1       1.823  -1.550   3.735  0.00  0.00    -0.008 C 
ENDROOT
BRANCH   1   9
ATOM      2  C   UNL     1       1.211   3.302   0.026  0.00  0.00    +0.045 C 
ATOM      3  C   UNL     1       1.011   1.829  -0.218  0.00  0.00    -0.029 A 
ATOM      4  C   UNL     1       0.941   1.360  -1.491  0.00  0.00    +0.005 A 
ATOM      5  C   UNL     1       0.758   0.009  -1.787  0.00  0.00    +0.001 A 
ATOM      6  C   UNL     1       0.638  -0.920  -0.804  0.00  0.00    +0.009 A 
ATOM      7  C   UNL     1       0.704  -0.484   0.591  0.00  0.00    -0.007 A 
ATOM      8  C   UNL     1       0.589  -1.381   1.611  0.00  0.00    -0.006 C 
ATOM      9  C   UNL     1       0.668  -0.840   3.025  0.00  0.00    +0.088 C 
ATOM     10  C   UNL     1       0.870   0.650   3.189  0.00  0.00    +0.223 C 
ATOM     11  O   UNL     1       0.941   1.137   4.301  0.00  0.00    -0.275 OA
ATOM     12  N   UNL     1       0.968   1.420   2.119  0.00  0.00    -0.284 N 
ATOM     13  C   UNL     1       0.904   0.948   0.874  0.00  0.00    +0.043 A 
ATOM     14  H   UNL     1       1.097   2.373   2.246  0.00  0.00    +0.155 HD
ENDBRANCH   1   9
BRANCH   1  15
ATOM     15  C   UNL     1       3.147  -1.155   3.076  0.00  0.00    +0.205 C 
ATOM     16  N   UNL     1       3.316   0.304   3.100  0.00  0.00    -0.152 NA
ATOM     17  N   UNL     1       3.385   0.717   1.941  0.00  0.00    -0.070 NA
ATOM     18  N   UNL     1       3.282  -0.302   0.995  0.00  0.00    -0.179 N 
ATOM     19  N   UNL     1       3.132  -1.505   1.640  0.00  0.00    -0.183 NA
ATOM     20  H   UNL     1       3.313  -0.181   0.033  0.00  0.00    +0.191 HD
BRANCH  19  21
ATOM     21  C   UNL     1       4.232  -2.422   1.311  0.00  0.00    +0.035 C 
ATOM     22  C   UNL     1       4.088  -3.706   2.131  0.00  0.00    +0.029 C 
ATOM     23  C   UNL     1       4.184  -2.761  -0.180  0.00  0.00    +0.029 C 
ATOM     24  C   UNL     1       5.569  -1.755   1.640  0.00  0.00    +0.029 C 
ENDBRANCH  19  21
ENDBRANCH   1  15
BRANCH   1  25
ATOM     25  N   UNL     1       1.845  -1.156   5.150  0.00  0.00    +0.392 N 
ATOM     26  H   UNL     1       2.004  -0.162   5.221  0.00  0.00    -0.080 HD
BRANCH  25  27
ATOM     27  C   UNL     1       2.922  -1.875   5.842  0.00  0.00    -0.042 C 
BRANCH  27  28
ATOM     28  C   UNL     1       3.110  -1.294   7.220  0.00  0.00    -0.064 A 
ATOM     29  C   UNL     1       3.208   0.075   7.385  0.00  0.00    +0.002 A 
ATOM     30  C   UNL     1       3.380   0.609   8.649  0.00  0.00    +0.000 A 
ATOM     31  C   UNL     1       3.454  -0.227   9.747  0.00  0.00    +0.000 A 
ATOM     32  C   UNL     1       3.356  -1.596   9.582  0.00  0.00    +0.000 A 
ATOM     33  C   UNL     1       3.179  -2.129   8.319  0.00  0.00    +0.002 A 
ENDBRANCH  27  28
ENDBRANCH  25  27
BRANCH  25  34
ATOM     34  C   UNL     1       0.556  -1.491   5.771  0.00  0.00    -0.002 C 
BRANCH  34  35
ATOM     35  C   UNL     1       0.506  -0.920   7.165  0.00  0.00    +0.089 A 
ATOM     36  C   UNL     1       0.216   0.354   7.483  0.00  0.00    +0.042 A 
ATOM     37  C   UNL     1       0.283   0.449   8.892  0.00  0.00    +0.041 A 
ATOM     38  C   UNL     1       0.611  -0.772   9.350  0.00  0.00    +0.195 A 
ATOM     39  O   UNL     1       0.739  -1.599   8.300  0.00  0.00    -0.470 OA
ENDBRANCH  34  35
ENDBRANCH  25  34
ENDBRANCH   1  25
TORSDOF 8
