REMARK  Name = ZINC05276338
REMARK  6 active torsions:
REMARK  status: ('A' for Active; 'I' for Inactive)
REMARK    1  A    between atoms: C_1  and  C_2
REMARK    2  A    between atoms: C_2  and  N_53
REMARK    3  A    between atoms: C_4  and  C_16
REMARK    4  A    between atoms: C_20  and  O_23
REMARK    5  A    between atoms: C_21  and  O_22
REMARK    6  A    between atoms: O_23  and  C_24
REMARK                            x       y       z     vdW  Elec       q    Type
REMARK                         _______ _______ _______ _____ _____    ______ ____
ROOT
ATOM      1  C   UNL     1      -3.600   2.848  -1.817  0.00  0.00    +0.034 C 
ATOM      2  C   UNL     1      -3.611   3.140  -0.315  0.00  0.00    +0.081 C 
ATOM      3  C   UNL     1      -3.667   1.821   0.467  0.00  0.00    +0.041 C 
ATOM      4  C   UNL     1      -2.499   0.942   0.012  0.00  0.00    +0.058 C 
ATOM      5  C   UNL     1      -1.225   1.748   0.017  0.00  0.00    +0.005 A 
ATOM      6  C   UNL     1      -0.013   1.076   0.008  0.00  0.00    +0.057 A 
ATOM      7  C   UNL     1       1.178   1.780   0.000  0.00  0.00    +0.167 A 
ATOM      8  C   UNL     1       1.159   3.172   0.007  0.00  0.00    +0.170 A 
ATOM      9  C   UNL     1      -0.051   3.842   0.023  0.00  0.00    +0.095 A 
ATOM     10  C   UNL     1      -1.247   3.131   0.034  0.00  0.00    +0.126 A 
ATOM     11  O   UNL     1      -2.414   3.829   0.061  0.00  0.00    -0.503 OA
ATOM     12  O   UNL     1       2.446   3.626  -0.004  0.00  0.00    -0.452 OA
ATOM     13  C   UNL     1       3.254   2.503   0.396  0.00  0.00    +0.466 C 
ATOM     14  O   UNL     1       2.479   1.361  -0.014  0.00  0.00    -0.453 OA
ENDROOT
BRANCH   4  15
ATOM     15  C   UNL     1      -2.357  -0.228   0.950  0.00  0.00    +0.005 A 
ATOM     16  C   UNL     1      -2.098  -0.011   2.291  0.00  0.00    +0.008 A 
ATOM     17  C   UNL     1      -1.973  -1.082   3.156  0.00  0.00    +0.004 A 
ATOM     18  C   UNL     1      -2.093  -2.376   2.681  0.00  0.00    +0.049 A 
ATOM     19  C   UNL     1      -2.346  -2.600   1.338  0.00  0.00    +0.162 A 
ATOM     20  C   UNL     1      -2.479  -1.521   0.468  0.00  0.00    +0.162 A 
BRANCH  20  21
ATOM     21  O   UNL     1      -2.728  -1.736  -0.851  0.00  0.00    -0.503 OA
ATOM     22  H   UNL     1      -1.931  -1.820  -1.393  0.00  0.00    +0.292 HD
ENDBRANCH  20  21
BRANCH  19  23
ATOM     23  O   UNL     1      -2.466  -3.871   0.870  0.00  0.00    -0.491 OA
ATOM     24  C   UNL     1      -2.318  -4.929   1.820  0.00  0.00    +0.277 C 
ENDBRANCH  19  23
ENDBRANCH   4  15
BRANCH   2  29
ATOM     25  C   UNL     1      -4.716   4.428   1.431  0.00  0.00    -0.073 C 
ATOM     26  C   UNL     1      -5.671   5.648   1.446  0.00  0.00    -0.020 C 
ATOM     27  C   UNL     1      -5.409   6.309   0.073  0.00  0.00    -0.020 C 
ATOM     28  C   UNL     1      -4.817   5.191  -0.805  0.00  0.00    -0.073 C 
ATOM     29  N   UNL     1      -4.791   3.988   0.029  0.00  0.00    +0.406 N 
ATOM     30  H   UNL     1      -5.650   3.445  -0.119  0.00  0.00    -0.076 HD
ENDBRANCH   2  29
TORSDOF 4
