REMARK  Name = ZINC04957725
REMARK  6 active torsions:
REMARK  status: ('A' for Active; 'I' for Inactive)
REMARK    1  A    between atoms: C_1  and  C_2
REMARK    2  A    between atoms: C_4  and  N_15
REMARK    3  A    between atoms: C_6  and  C_8
REMARK    4  A    between atoms: C_13  and  O_14
REMARK    5  A    between atoms: N_15  and  N_16
REMARK    6  A    between atoms: C_17  and  C_18
REMARK                            x       y       z     vdW  Elec       q    Type
REMARK                         _______ _______ _______ _____ _____    ______ ____
ROOT
ATOM      1  C   UNL     1       4.910   1.069  -0.040  0.00  0.00    +0.066 C 
ATOM      2  C   UNL     1       3.567   1.751  -0.022  0.00  0.00    +0.044 A 
ATOM      3  C   UNL     1       2.404   1.003  -0.015  0.00  0.00    +0.068 A 
ATOM      4  C   UNL     1       1.179   1.675  -0.000  0.00  0.00    +0.142 A 
ATOM      5  N   UNL     1       1.172   3.004   0.002  0.00  0.00    -0.211 NA
ATOM      6  C   UNL     1       2.310   3.684  -0.000  0.00  0.00    +0.166 A 
ATOM      7  N   UNL     1       3.487   3.072  -0.015  0.00  0.00    -0.232 NA
ENDROOT
BRANCH   6   8
ATOM      8  C   UNL     1       2.266   5.165   0.008  0.00  0.00    +0.061 A 
ATOM      9  C   UNL     1       3.450   5.901   0.006  0.00  0.00    +0.015 A 
ATOM     10  C   UNL     1       3.403   7.280   0.009  0.00  0.00    +0.001 A 
ATOM     11  C   UNL     1       2.185   7.937   0.024  0.00  0.00    +0.004 A 
ATOM     12  C   UNL     1       1.005   7.218   0.031  0.00  0.00    +0.046 A 
ATOM     13  C   UNL     1       1.036   5.832   0.023  0.00  0.00    +0.128 A 
BRANCH  13  14
ATOM     14  O   UNL     1      -0.122   5.124   0.031  0.00  0.00    -0.506 OA
ATOM     15  H   UNL     1      -0.449   4.915   0.916  0.00  0.00    +0.292 HD
ENDBRANCH  13  14
ENDBRANCH   6   8
BRANCH   4  16
ATOM     16  N   UNL     1      -0.011   0.966   0.007  0.00  0.00    -0.221 N 
ATOM     17  H   UNL     1       0.002  -0.004   0.002  0.00  0.00    +0.176 HD
BRANCH  16  18
ATOM     18  N   UNL     1      -1.234   1.650   0.017  0.00  0.00    -0.189 NA
ATOM     19  C   UNL     1      -2.349   0.986   0.018  0.00  0.00    +0.144 C 
BRANCH  19  20
ATOM     20  C   UNL     1      -3.635   1.705   0.029  0.00  0.00    +0.071 A 
ATOM     21  C   UNL     1      -3.658   3.104   0.042  0.00  0.00    +0.173 A 
ATOM     22  C   UNL     1      -4.868   3.773   0.045  0.00  0.00    +0.197 A 
ATOM     23  C   UNL     1      -6.058   3.060   0.047  0.00  0.00    +0.199 A 
ATOM     24  C   UNL     1      -6.043   1.673   0.040  0.00  0.00    +0.197 A 
ATOM     25  C   UNL     1      -4.839   0.992   0.030  0.00  0.00    +0.173 A 
ATOM     26  F   UNL     1      -4.825  -0.359   0.024  0.00  0.00    -0.202 F 
ATOM     27  F   UNL     1      -7.206   0.986   0.042  0.00  0.00    -0.199 F 
ATOM     28  F   UNL     1      -7.237   3.720   0.056  0.00  0.00    -0.199 F 
ATOM     29  F   UNL     1      -4.891   5.124   0.052  0.00  0.00    -0.199 F 
ATOM     30  F   UNL     1      -2.499   3.799   0.046  0.00  0.00    -0.202 F 
ENDBRANCH  19  20
ENDBRANCH  16  18
ENDBRANCH   4  16
TORSDOF 5
