REMARK  Name = ZINC14423051
REMARK  5 active torsions:
REMARK  status: ('A' for Active; 'I' for Inactive)
REMARK    1  A    between atoms: C_3  and  C_6
REMARK    2  A    between atoms: C_6  and  C_8
REMARK    3  A    between atoms: C_6  and  N_25
REMARK    4  A    between atoms: C_8  and  C_9
REMARK    5  A    between atoms: N_11  and  C_12
REMARK                            x       y       z     vdW  Elec       q    Type
REMARK                         _______ _______ _______ _____ _____    ______ ____
ROOT
ATOM      1  C   UNL     1       5.523   2.679  -3.675  0.00  0.00    +0.219 C 
ATOM      2  O   UNL     1       5.868   3.364  -4.614  0.00  0.00    -0.275 OA
ATOM      3  N   UNL     1       6.367   2.474  -2.644  0.00  0.00    -0.285 N 
ATOM      4  H   UNL     1       6.066   1.991  -1.859  0.00  0.00    +0.155 HD
ENDROOT
BRANCH   3   5
ATOM      5  C   UNL     1       7.680   2.959  -2.707  0.00  0.00    +0.037 A 
ATOM      6  C   UNL     1       8.319   3.385  -1.550  0.00  0.00    +0.027 A 
ATOM      7  C   UNL     1       9.614   3.864  -1.610  0.00  0.00    +0.051 A 
ATOM      8  C   UNL     1      10.277   3.919  -2.823  0.00  0.00    +0.167 A 
ATOM      9  C   UNL     1       9.638   3.492  -3.987  0.00  0.00    +0.169 A 
ATOM     10  C   UNL     1       8.344   3.009  -3.926  0.00  0.00    +0.072 A 
ATOM     11  O   UNL     1      10.506   3.647  -5.036  0.00  0.00    -0.447 OA
ATOM     12  C   UNL     1      11.452   4.616  -4.561  0.00  0.00    +0.254 C 
ATOM     13  O   UNL     1      11.539   4.341  -3.155  0.00  0.00    -0.448 OA
ATOM     14  C   UNL     1      10.963   6.045  -4.820  0.00  0.00    +0.093 C 
ATOM     15  C   UNL     1      12.262   6.835  -5.125  0.00  0.00    +0.008 C 
ATOM     16  C   UNL     1      13.109   5.813  -5.926  0.00  0.00    +0.008 C 
ATOM     17  C   UNL     1      12.808   4.457  -5.247  0.00  0.00    +0.093 C 
ENDBRANCH   3   5
BRANCH   1  18
ATOM     18  C   UNL     1       4.150   2.057  -3.659  0.00  0.00    +0.123 C 
BRANCH  18  19
ATOM     19  C   UNL     1       3.401   2.444  -4.936  0.00  0.00    +0.120 C 
BRANCH  19  20
ATOM     20  N   UNL     1       3.171   3.890  -4.948  0.00  0.00    -0.292 N 
ATOM     21  C   UNL     1       3.004   4.536  -6.119  0.00  0.00    +0.298 C 
ATOM     22  O   UNL     1       3.045   3.919  -7.165  0.00  0.00    -0.253 OA
ATOM     23  N   UNL     1       2.792   5.867  -6.130  0.00  0.00    -0.313 N 
ATOM     24  H   UNL     1       3.138   4.383  -4.113  0.00  0.00    +0.151 HD
ATOM     25  H   UNL     1       2.759   6.360  -5.295  0.00  0.00    +0.146 HD
ATOM     26  H   UNL     1       2.672   6.332  -6.973  0.00  0.00    +0.146 HD
ENDBRANCH  19  20
BRANCH  19  29
ATOM     27  C   UNL     1       0.448   0.118  -5.552  0.00  0.00    +0.008 A 
ATOM     28  C   UNL     1       1.736   0.606  -5.665  0.00  0.00    +0.013 A 
ATOM     29  C   UNL     1       2.078   1.724  -4.979  0.00  0.00    +0.010 A 
ATOM     30  S   UNL     1       0.553   2.123  -4.140  0.00  0.00    -0.100 S 
ATOM     31  C   UNL     1      -0.436   0.772  -4.760  0.00  0.00    +0.045 A 
ENDBRANCH  19  29
ENDBRANCH  18  19
ENDBRANCH   1  18
TORSDOF 5
