REMARK  Name = ZINC15767446
REMARK  7 active torsions:
REMARK  status: ('A' for Active; 'I' for Inactive)
REMARK    1  A    between atoms: C_4  and  C_7
REMARK    2  A    between atoms: C_8  and  C_9
REMARK    3  A    between atoms: C_10  and  C_11
REMARK    4  A    between atoms: C_10  and  N_20
REMARK    5  A    between atoms: N_13  and  C_14
REMARK    6  A    between atoms: C_14  and  C_15
REMARK    7  A    between atoms: C_21  and  C_23
REMARK                            x       y       z     vdW  Elec       q    Type
REMARK                         _______ _______ _______ _____ _____    ______ ____
ROOT
ATOM      1  C   UNL     1       4.862  -2.668  -0.053  0.00  0.00    +0.028 C 
ATOM      2  C   UNL     1       4.941  -4.024   0.032  0.00  0.00    +0.096 C 
ENDROOT
BRANCH   2   3
ATOM      3  C   UNL     1       3.716  -4.831   0.037  0.00  0.00    +0.259 C 
ATOM      4  O   UNL     1       3.292  -5.303  -1.002  0.00  0.00    -0.269 OA
ATOM      5  N   UNL     1       3.059  -5.051   1.194  0.00  0.00    -0.303 N 
ATOM      6  H   UNL     1       3.354  -4.616   2.009  0.00  0.00    +0.149 HD
BRANCH   5   7
ATOM      7  C   UNL     1       1.899  -5.946   1.219  0.00  0.00    +0.179 C 
BRANCH   7   8
ATOM      8  C   UNL     1       1.351  -6.018   2.621  0.00  0.00    +0.122 A 
ATOM      9  C   UNL     1       0.405  -5.215   3.139  0.00  0.00    +0.046 A 
ATOM     10  C   UNL     1       0.197  -5.634   4.473  0.00  0.00    +0.041 A 
ATOM     11  C   UNL     1       1.029  -6.668   4.691  0.00  0.00    +0.195 A 
ATOM     12  O   UNL     1       1.721  -6.901   3.564  0.00  0.00    -0.466 OA
ENDBRANCH   7   8
ENDBRANCH   5   7
ENDBRANCH   2   3
BRANCH   2  13
ATOM     13  N   UNL     1       6.189  -4.648   0.112  0.00  0.00    -0.277 N 
ATOM     14  C   UNL     1       6.265  -5.979   0.305  0.00  0.00    +0.248 C 
ATOM     15  O   UNL     1       5.252  -6.652   0.313  0.00  0.00    -0.270 OA
ATOM     16  H   UNL     1       7.000  -4.122   0.030  0.00  0.00    +0.155 HD
BRANCH  14  17
ATOM     17  C   UNL     1       7.580  -6.622   0.505  0.00  0.00    +0.037 A 
ATOM     18  C   UNL     1       8.745  -5.852   0.501  0.00  0.00    +0.014 A 
ATOM     19  C   UNL     1       9.969  -6.458   0.689  0.00  0.00    +0.016 A 
ATOM     20  C   UNL     1      10.045  -7.828   0.881  0.00  0.00    +0.018 A 
ATOM     21  C   UNL     1       8.894  -8.597   0.886  0.00  0.00    +0.016 A 
ATOM     22  C   UNL     1       7.663  -8.002   0.705  0.00  0.00    +0.014 A 
ATOM     23 BR   UNL     1      11.728  -8.651   1.138  0.00  0.00    -0.050 Br
ENDBRANCH  14  17
ENDBRANCH   2  13
BRANCH   1  25
ATOM     24  C   UNL     1       3.528  -0.681  -0.008  0.00  0.00    +0.008 C 
ATOM     25  C   UNL     1       3.603  -2.032  -0.027  0.00  0.00    +0.003 C 
BRANCH  24  29
ATOM     26  C   UNL     1      -0.256   1.232   0.068  0.00  0.00    +0.000 A 
ATOM     27  C   UNL     1       0.900   1.993   0.063  0.00  0.00    +0.001 A 
ATOM     28  C   UNL     1       2.134   1.379   0.038  0.00  0.00    +0.008 A 
ATOM     29  C   UNL     1       2.216  -0.018   0.019  0.00  0.00    -0.025 A 
ATOM     30  C   UNL     1       1.042  -0.780   0.024  0.00  0.00    +0.008 A 
ATOM     31  C   UNL     1      -0.184  -0.151   0.048  0.00  0.00    +0.001 A 
ENDBRANCH  24  29
ENDBRANCH   1  25
TORSDOF 7
