REMARK  Name = ZINC04622824
REMARK  7 active torsions:
REMARK  status: ('A' for Active; 'I' for Inactive)
REMARK    1  A    between atoms: C_1  and  O_2
REMARK    2  A    between atoms: O_2  and  C_3
REMARK    3  A    between atoms: C_6  and  C_13
REMARK    4  A    between atoms: C_7  and  O_11
REMARK    5  A    between atoms: C_8  and  O_9
REMARK    6  A    between atoms: O_9  and  C_10
REMARK    7  A    between atoms: O_11  and  C_12
REMARK                            x       y       z     vdW  Elec       q    Type
REMARK                         _______ _______ _______ _____ _____    ______ ____
ROOT
ATOM      1  C   UNL     1      -2.556   0.973   0.285  0.00  0.00    +0.221 C 
ATOM      2  C   UNL     1      -3.343  -0.132  -1.742  0.00  0.00    +0.159 C 
ATOM      3  N   UNL     1      -2.846  -1.365  -1.360  0.00  0.00    -0.259 N 
ATOM      4  C   UNL     1      -2.443  -1.496  -0.038  0.00  0.00    +0.205 A 
ATOM      5  N   UNL     1      -2.306  -0.385   0.767  0.00  0.00    -0.286 N 
ATOM      6  C   UNL     1      -1.916  -0.827   1.998  0.00  0.00    +0.072 A 
ATOM      7  C   UNL     1      -1.633  -0.173   3.192  0.00  0.00    +0.028 A 
ATOM      8  C   UNL     1      -1.258  -0.960   4.268  0.00  0.00    +0.002 A 
ATOM      9  C   UNL     1      -1.163  -2.338   4.173  0.00  0.00    +0.002 A 
ATOM     10  C   UNL     1      -1.439  -3.012   2.997  0.00  0.00    +0.030 A 
ATOM     11  C   UNL     1      -1.821  -2.238   1.896  0.00  0.00    +0.091 A 
ATOM     12  N   UNL     1      -2.153  -2.574   0.633  0.00  0.00    -0.214 NA
ATOM     13  N   UNL     1      -3.988  -0.029  -2.951  0.00  0.00    -0.332 N 
ATOM     14  H   UNL     1      -2.782  -2.103  -1.986  0.00  0.00    +0.158 HD
ATOM     15  H   UNL     1      -4.086  -0.810  -3.517  0.00  0.00    +0.145 HD
ATOM     16  H   UNL     1      -4.344   0.826  -3.240  0.00  0.00    +0.145 HD
ATOM     17  N   UNL     1      -3.269   1.013  -1.050  0.00  0.00    -0.337 N 
ATOM     18  H   UNL     1      -3.680   1.882  -1.410  0.00  0.00    +0.164 HD
ENDROOT
BRANCH   1  22
ATOM     19  C   UNL     1       1.168   3.042  -0.121  0.00  0.00    +0.165 A 
ATOM     20  C   UNL     1       1.146   1.660  -0.001  0.00  0.00    +0.050 A 
ATOM     21  C   UNL     1      -0.058   0.996   0.135  0.00  0.00    +0.015 A 
ATOM     22  C   UNL     1      -1.246   1.704   0.144  0.00  0.00    +0.041 A 
ATOM     23  C   UNL     1      -1.232   3.085   0.030  0.00  0.00    +0.172 A 
ATOM     24  C   UNL     1      -0.023   3.757  -0.106  0.00  0.00    +0.204 A 
BRANCH  19  26
ATOM     25  C   UNL     1       3.538   2.894  -0.262  0.00  0.00    +0.277 C 
ATOM     26  O   UNL     1       2.354   3.695  -0.254  0.00  0.00    -0.491 OA
ENDBRANCH  19  26
BRANCH  24  27
ATOM     27  O   UNL     1      -0.005   5.113  -0.224  0.00  0.00    -0.488 OA
ATOM     28  C   UNL     1       0.123   5.868   0.983  0.00  0.00    +0.277 C 
ENDBRANCH  24  27
BRANCH  23  29
ATOM     29  O   UNL     1      -2.400   3.782   0.045  0.00  0.00    -0.491 OA
ATOM     30  C   UNL     1      -2.973   4.115  -1.220  0.00  0.00    +0.277 C 
ENDBRANCH  23  29
ENDBRANCH   1  22
TORSDOF 4
