REMARK  Name = ZINC59018483
REMARK  8 active torsions:
REMARK  status: ('A' for Active; 'I' for Inactive)
REMARK    1  A    between atoms: C_1  and  C_2
REMARK    2  A    between atoms: C_5  and  N_8
REMARK    3  A    between atoms: C_9  and  C_11
REMARK    4  A    between atoms: C_11  and  S_12
REMARK    5  A    between atoms: S_12  and  C_13
REMARK    6  A    between atoms: N_18  and  N_19
REMARK    7  A    between atoms: C_20  and  C_21
REMARK    8  A    between atoms: C_26  and  O_27
REMARK                            x       y       z     vdW  Elec       q    Type
REMARK                         _______ _______ _______ _____ _____    ______ ____
ROOT
ATOM      1  C   UNL     1       0.593  -8.709   2.636  0.00  0.00    +0.211 A 
ATOM      2  N   UNL     1       0.715  -9.589   3.635  0.00  0.00    -0.186 NA
ATOM      3  C   UNL     1       0.802 -10.808   3.143  0.00  0.00    +0.232 A 
ATOM      4  N   UNL     1       0.735 -10.720   1.798  0.00  0.00    -0.245 N 
ATOM      5  N   UNL     1       0.595  -9.356   1.495  0.00  0.00    -0.144 NA
ATOM      6  N   UNL     1       0.937 -11.972   3.876  0.00  0.00    -0.205 N 
ATOM      7  H   UNL     1       0.994 -12.828   3.421  0.00  0.00    +0.177 HD
ATOM      8  H   UNL     1       0.773 -11.454   1.165  0.00  0.00    +0.192 HD
ENDROOT
BRANCH   6   9
ATOM      9  N   UNL     1       0.993 -11.917   5.275  0.00  0.00    -0.187 NA
ATOM     10  C   UNL     1       1.121 -13.011   5.963  0.00  0.00    +0.142 C 
BRANCH  10  11
ATOM     11  C   UNL     1       1.180 -12.953   7.434  0.00  0.00    +0.037 A 
ATOM     12  C   UNL     1       1.323 -14.127   8.178  0.00  0.00    +0.033 A 
ATOM     13  C   UNL     1       1.378 -14.066   9.556  0.00  0.00    +0.042 A 
ATOM     14  C   UNL     1       1.292 -12.844  10.204  0.00  0.00    +0.023 A 
ATOM     15  C   UNL     1       1.150 -11.676   9.478  0.00  0.00    +0.047 A 
ATOM     16  C   UNL     1       1.099 -11.720   8.095  0.00  0.00    +0.126 A 
ATOM     17 CL   UNL     1       1.555 -15.524  10.480  0.00  0.00    -0.084 Cl
BRANCH  16  18
ATOM     18  O   UNL     1       0.965 -10.572   7.381  0.00  0.00    -0.506 OA
ATOM     19  H   UNL     1       0.047 -10.318   7.213  0.00  0.00    +0.292 HD
ENDBRANCH  16  18
ENDBRANCH  10  11
ENDBRANCH   6   9
BRANCH   1  20
ATOM     20  S   UNL     1       0.446  -6.963   2.823  0.00  0.00    -0.075 S 
BRANCH  20  21
ATOM     21  C   UNL     1       0.309  -6.349   1.121  0.00  0.00    +0.173 C 
BRANCH  21  23
ATOM     22  N   UNL     1       0.059  -4.170  -0.021  0.00  0.00    -0.285 N 
ATOM     23  C   UNL     1       0.175  -4.848   1.138  0.00  0.00    +0.227 C 
ATOM     24  O   UNL     1       0.173  -4.251   2.193  0.00  0.00    -0.275 OA
ATOM     25  H   UNL     1      -0.017  -4.651  -0.860  0.00  0.00    +0.155 HD
BRANCH  22  30
ATOM     26  C   UNL     1       0.008   1.503   0.007  0.00  0.00    +0.044 C 
ATOM     27  C   UNL     1       0.022  -0.004  -0.001  0.00  0.00    -0.050 A 
ATOM     28  C   UNL     1       0.777  -0.692   0.931  0.00  0.00    +0.005 A 
ATOM     29  C   UNL     1       0.791  -2.073   0.927  0.00  0.00    +0.023 A 
ATOM     30  C   UNL     1       0.046  -2.771  -0.014  0.00  0.00    +0.033 A 
ATOM     31  C   UNL     1      -0.712  -2.077  -0.948  0.00  0.00    +0.023 A 
ATOM     32  C   UNL     1      -0.726  -0.696  -0.936  0.00  0.00    +0.005 A 
ENDBRANCH  22  30
ENDBRANCH  21  23
ENDBRANCH  20  21
ENDBRANCH   1  20
TORSDOF 7
