REMARK  Name = ZINC39355013
REMARK  8 active torsions:
REMARK  status: ('A' for Active; 'I' for Inactive)
REMARK    1  A    between atoms: C_1  and  O_2
REMARK    2  A    between atoms: O_2  and  C_3
REMARK    3  A    between atoms: C_8  and  C_9
REMARK    4  A    between atoms: N_12  and  C_21
REMARK    5  A    between atoms: C_21  and  C_22
REMARK    6  A    between atoms: N_24  and  C_25
REMARK    7  A    between atoms: C_25  and  C_26
REMARK    8  A    between atoms: C_26  and  C_27
REMARK                            x       y       z     vdW  Elec       q    Type
REMARK                         _______ _______ _______ _____ _____    ______ ____
ROOT
ATOM      1  C   UNL     1       0.018  -2.829  -0.013  0.00  0.00    +0.221 C 
ATOM      2  C   UNL     1       0.527  -2.985   1.404  0.00  0.00    +0.134 C 
ATOM      3  N   UNL     1       1.828  -3.643   1.490  0.00  0.00    -0.286 NA
ATOM      4  C   UNL     1       1.767  -5.061   1.116  0.00  0.00    +0.124 C 
ATOM      5  C   UNL     1       1.872  -5.173  -0.393  0.00  0.00    +0.008 A 
ATOM      6  C   UNL     1       2.993  -5.734  -0.970  0.00  0.00    +0.008 A 
ATOM      7  C   UNL     1       3.070  -5.847  -2.347  0.00  0.00    +0.001 A 
ATOM      8  C   UNL     1       2.027  -5.402  -3.139  0.00  0.00    +0.004 A 
ATOM      9  C   UNL     1       0.908  -4.833  -2.561  0.00  0.00    +0.046 A 
ATOM     10  C   UNL     1       0.835  -4.712  -1.180  0.00  0.00    +0.126 A 
ATOM     11  O   UNL     1      -0.240  -4.109  -0.602  0.00  0.00    -0.483 OA
ENDROOT
BRANCH   1  17
ATOM     12  C   UNL     1      -1.200  -0.637   0.010  0.00  0.00    +0.127 A 
ATOM     13  C   UNL     1      -2.375   0.101   0.019  0.00  0.00    +0.046 A 
ATOM     14  C   UNL     1      -3.596  -0.545   0.027  0.00  0.00    +0.004 A 
ATOM     15  C   UNL     1      -3.648  -1.927   0.026  0.00  0.00    +0.001 A 
ATOM     16  C   UNL     1      -2.479  -2.665   0.017  0.00  0.00    +0.011 A 
ATOM     17  C   UNL     1      -1.255  -2.023   0.003  0.00  0.00    +0.036 A 
BRANCH  12  19
ATOM     18  C   UNL     1      -0.017   1.425   0.010  0.00  0.00    +0.277 C 
ATOM     19  O   UNL     1       0.002  -0.004   0.002  0.00  0.00    -0.495 OA
ENDBRANCH  12  19
ENDBRANCH   1  17
BRANCH   3  20
ATOM     20  C   UNL     1       2.416  -3.475   2.825  0.00  0.00    +0.180 C 
BRANCH  20  21
ATOM     21  C   UNL     1       3.847  -3.947   2.807  0.00  0.00    +0.227 C 
ATOM     22  O   UNL     1       4.330  -4.380   1.782  0.00  0.00    -0.274 OA
ATOM     23  N   UNL     1       4.591  -3.888   3.929  0.00  0.00    -0.314 N 
ATOM     24  H   UNL     1       4.205  -3.541   4.749  0.00  0.00    +0.149 HD
BRANCH  23  25
ATOM     25  C   UNL     1       5.982  -4.346   3.912  0.00  0.00    +0.112 C 
BRANCH  25  26
ATOM     26  C   UNL     1       6.594  -4.172   5.303  0.00  0.00    +0.093 C 
BRANCH  26  27
ATOM     27  C   UNL     1       8.025  -4.644   5.284  0.00  0.00    +0.112 A 
ATOM     28  N   UNL     1       8.742  -4.573   6.436  0.00  0.00    -0.310 N 
ATOM     29  H   UNL     1       8.326  -4.225   7.241  0.00  0.00    +0.170 HD
ATOM     30  C   UNL     1      10.031  -4.985   6.472  0.00  0.00    +0.259 A 
ATOM     31  O   UNL     1      10.684  -4.928   7.498  0.00  0.00    -0.267 OA
ATOM     32  C   UNL     1      10.611  -5.503   5.225  0.00  0.00    +0.065 A 
ATOM     33  C   UNL     1      11.928  -5.952   5.155  0.00  0.00    +0.015 A 
ATOM     34  C   UNL     1      12.421  -6.428   3.959  0.00  0.00    +0.001 A 
ATOM     35  C   UNL     1      11.616  -6.463   2.828  0.00  0.00    +0.002 A 
ATOM     36  C   UNL     1      10.312  -6.024   2.876  0.00  0.00    +0.028 A 
ATOM     37  C   UNL     1       9.790  -5.538   4.076  0.00  0.00    +0.078 A 
ATOM     38  N   UNL     1       8.509  -5.101   4.170  0.00  0.00    -0.234 NA
ENDBRANCH  26  27
ENDBRANCH  25  26
ENDBRANCH  23  25
ENDBRANCH  20  21
ENDBRANCH   3  20
TORSDOF 7
