REMARK  Name = ZINC32753094
REMARK  6 active torsions:
REMARK  status: ('A' for Active; 'I' for Inactive)
REMARK    1  A    between atoms: C_1  and  C_2
REMARK    2  A    between atoms: C_8  and  N_10
REMARK    3  A    between atoms: C_11  and  C_13
REMARK    4  A    between atoms: C_13  and  N_14
REMARK    5  A    between atoms: N_17  and  C_20
REMARK    6  A    between atoms: C_20  and  C_21
REMARK                            x       y       z     vdW  Elec       q    Type
REMARK                         _______ _______ _______ _____ _____    ______ ____
ROOT
ATOM      1  N   UNL     1       1.273   0.600   5.823  0.00  0.00    -0.292 NA
ATOM      2  C   UNL     1       1.765  -0.728   6.214  0.00  0.00    +0.100 C 
ATOM      3  C   UNL     1       2.715  -0.588   7.405  0.00  0.00    +0.100 C 
ATOM      4  N   UNL     1       2.007   0.057   8.520  0.00  0.00    -0.294 NA
ATOM      5  C   UNL     1       1.515   1.385   8.129  0.00  0.00    +0.100 C 
ATOM      6  C   UNL     1       0.565   1.245   6.938  0.00  0.00    +0.100 C 
ENDROOT
BRANCH   1   7
ATOM      7  C   UNL     1       0.416   0.515   4.633  0.00  0.00    +0.180 C 
BRANCH   7   9
ATOM      8  N   UNL     1       0.662  -0.067   2.242  0.00  0.00    -0.311 N 
ATOM      9  C   UNL     1       1.241   0.080   3.450  0.00  0.00    +0.227 C 
ATOM     10  O   UNL     1       2.426  -0.138   3.584  0.00  0.00    -0.274 OA
ATOM     11  H   UNL     1      -0.286   0.108   2.134  0.00  0.00    +0.149 HD
BRANCH   8  18
ATOM     12  C   UNL     1       0.709   1.527  -0.176  0.00  0.00    +0.009 C 
ATOM     13  C   UNL     1       0.803  -0.000  -0.199  0.00  0.00    +0.006 C 
ATOM     14  C   UNL     1       1.640  -0.442  -1.401  0.00  0.00    +0.005 C 
ATOM     15  C   UNL     1       1.734  -1.969  -1.423  0.00  0.00    +0.000 C 
ATOM     16  C   UNL     1       2.396  -2.458  -0.133  0.00  0.00    +0.002 C 
ATOM     17  C   UNL     1       1.558  -2.017   1.069  0.00  0.00    +0.022 C 
ATOM     18  C   UNL     1       1.464  -0.490   1.091  0.00  0.00    +0.076 C 
ENDBRANCH   8  18
ENDBRANCH   7   9
ENDBRANCH   1   7
BRANCH   4  19
ATOM     19  C   UNL     1       2.864   0.142   9.710  0.00  0.00    +0.137 C 
BRANCH  19  20
ATOM     20  C   UNL     1       2.960  -1.216  10.358  0.00  0.00    +0.037 A 
ATOM     21  C   UNL     1       4.173  -1.874  10.405  0.00  0.00    +0.093 A 
ATOM     22  C   UNL     1       4.237  -3.133  11.012  0.00  0.00    +0.258 A 
ATOM     23  O   UNL     1       5.294  -3.740  11.071  0.00  0.00    -0.267 OA
ATOM     24  N   UNL     1       3.111  -3.666  11.533  0.00  0.00    -0.270 N 
ATOM     25  C   UNL     1       3.156  -4.890  12.127  0.00  0.00    +0.096 A 
ATOM     26  C   UNL     1       2.042  -5.444  12.655  0.00  0.00    +0.018 A 
ATOM     27  C   UNL     1       0.820  -4.760  12.596  0.00  0.00    +0.005 A 
ATOM     28  C   UNL     1       0.763  -3.534  12.004  0.00  0.00    +0.045 A 
ATOM     29  C   UNL     1       1.934  -2.974  11.461  0.00  0.00    +0.118 A 
ATOM     30  N   UNL     1       1.882  -1.774  10.886  0.00  0.00    -0.343 N 
ATOM     31  H   UNL     1       1.036  -1.300  10.850  0.00  0.00    +0.167 HD
ENDBRANCH  19  20
ENDBRANCH   4  19
TORSDOF 5
