REMARK  Name = ZINC19110546
REMARK  5 active torsions:
REMARK  status: ('A' for Active; 'I' for Inactive)
REMARK    1  A    between atoms: C_8  and  N_65
REMARK    2  A    between atoms: C_15  and  C_17
REMARK    3  A    between atoms: C_17  and  C_18
REMARK    4  A    between atoms: C_23  and  C_26
REMARK    5  A    between atoms: C_26  and  C_27
REMARK                            x       y       z     vdW  Elec       q    Type
REMARK                         _______ _______ _______ _____ _____    ______ ____
ROOT
ATOM      1  C   UNL     1      -0.563   1.550  -2.557  0.00  0.00    -0.058 C 
ATOM      2  C   UNL     1      -1.125   0.128  -2.564  0.00  0.00    +0.085 C 
ATOM      3  N   UNL     1      -0.481  -0.670  -1.524  0.00  0.00    -0.318 N 
ATOM      4  C   UNL     1       0.180  -0.127  -0.496  0.00  0.00    +0.200 C 
ATOM      5  O   UNL     1       0.659  -0.863   0.341  0.00  0.00    -0.278 OA
ATOM      6  C   UNL     1       0.354   1.357  -0.335  0.00  0.00    +0.028 C 
ATOM      7  H   UNL     1      -0.536  -1.637  -1.581  0.00  0.00    +0.149 HD
ATOM      8  N   UNL     1      -0.632   2.062  -1.173  0.00  0.00    +0.391 N 
ATOM      9  H   UNL     1      -1.573   1.892  -0.800  0.00  0.00    -0.080 HD
ENDROOT
BRANCH   8  17
ATOM     10  C   UNL     1      -2.315   7.831  -1.608  0.00  0.00    +0.000 A 
ATOM     11  C   UNL     1      -2.229   7.793  -0.229  0.00  0.00    +0.000 A 
ATOM     12  C   UNL     1      -1.805   6.641   0.403  0.00  0.00    +0.004 A 
ATOM     13  C   UNL     1      -1.465   5.522  -0.340  0.00  0.00    -0.046 A 
ATOM     14  C   UNL     1      -1.551   5.560  -1.719  0.00  0.00    -0.046 A 
ATOM     15  C   UNL     1      -1.977   6.716  -2.351  0.00  0.00    +0.004 A 
ATOM     16  C   UNL     1      -1.129   4.226  -2.295  0.00  0.00    +0.020 C 
ATOM     17  C   UNL     1      -0.363   3.518  -1.156  0.00  0.00    -0.059 C 
ATOM     18  C   UNL     1      -0.974   4.159   0.108  0.00  0.00    +0.020 C 
ENDBRANCH   8  17
BRANCH   6  19
ATOM     19  C   UNL     1       0.127   1.739   1.129  0.00  0.00    +0.090 C 
BRANCH  19  20
ATOM     20  C   UNL     1      -1.297   1.428   1.514  0.00  0.00    +0.214 C 
ATOM     21  O   UNL     1      -2.029   0.867   0.727  0.00  0.00    -0.276 OA
ATOM     22  N   UNL     1      -1.756   1.774   2.732  0.00  0.00    -0.301 N 
ATOM     23  C   UNL     1      -0.852   2.347   3.739  0.00  0.00    +0.108 C 
ATOM     24  C   UNL     1      -0.960   1.532   5.026  0.00  0.00    +0.023 C 
ATOM     25  C   UNL     1      -2.425   1.464   5.463  0.00  0.00    -0.004 C 
ATOM     26  C   UNL     1      -3.251   0.769   4.379  0.00  0.00    +0.023 C 
ATOM     27  C   UNL     1      -3.170   1.581   3.082  0.00  0.00    +0.108 C 
BRANCH  25  28
ATOM     28  C   UNL     1      -2.531   0.674   6.769  0.00  0.00    +0.041 C 
BRANCH  28  29
ATOM     29  C   UNL     1      -1.819   1.421   7.868  0.00  0.00    -0.012 A 
ATOM     30  C   UNL     1      -2.543   2.181   8.768  0.00  0.00    +0.006 A 
ATOM     31  C   UNL     1      -1.891   2.866   9.775  0.00  0.00    +0.000 A 
ATOM     32  C   UNL     1      -0.514   2.792   9.885  0.00  0.00    +0.003 A 
ATOM     33  C   UNL     1       0.211   2.033   8.986  0.00  0.00    +0.038 A 
ATOM     34  C   UNL     1      -0.442   1.343   7.979  0.00  0.00    +0.127 A 
ATOM     35  F   UNL     1       0.266   0.596   7.103  0.00  0.00    -0.205 F 
ENDBRANCH  28  29
ENDBRANCH  25  28
ENDBRANCH  19  20
ENDBRANCH   6  19
TORSDOF 5
