REMARK  Name = ZINC21150649
REMARK  4 active torsions:
REMARK  status: ('A' for Active; 'I' for Inactive)
REMARK    1  A    between atoms: C_3  and  N_6
REMARK    2  A    between atoms: N_12  and  C_15
REMARK    3  A    between atoms: C_15  and  C_16
REMARK    4  A    between atoms: N_20  and  C_21
REMARK                            x       y       z     vdW  Elec       q    Type
REMARK                         _______ _______ _______ _____ _____    ______ ____
ROOT
ATOM      1  N   UNL     1      -2.444   6.130  -1.468  0.00  0.00    -0.264 N 
ATOM      2  C   UNL     1      -2.133   4.859  -1.791  0.00  0.00    +0.307 C 
ATOM      3  O   UNL     1      -1.784   4.588  -2.924  0.00  0.00    -0.252 OA
ATOM      4  N   UNL     1      -2.210   3.889  -0.859  0.00  0.00    -0.283 N 
ATOM      5  C   UNL     1      -1.984   2.480  -1.216  0.00  0.00    +0.124 C 
ATOM      6  C   UNL     1      -0.948   1.894  -0.250  0.00  0.00    +0.104 C 
ATOM      7  N   UNL     1      -1.388   2.122   1.133  0.00  0.00    -0.292 NA
ATOM      8  C   UNL     1      -1.464   3.557   1.438  0.00  0.00    +0.104 C 
ATOM      9  C   UNL     1      -2.521   4.211   0.542  0.00  0.00    +0.124 C 
ATOM     10  H   UNL     1      -2.841   6.363  -0.469  0.00  0.00    +0.157 HD
ENDROOT
BRANCH   1  13
ATOM     11  C   UNL     1      -2.250   9.319  -3.349  0.00  0.00    +0.009 A 
ATOM     12  C   UNL     1      -2.516   8.486  -2.277  0.00  0.00    +0.031 A 
ATOM     13  C   UNL     1      -2.261   7.154  -2.403  0.00  0.00    +0.073 A 
ATOM     14  S   UNL     1      -1.641   7.053  -4.074  0.00  0.00    -0.082 S 
ATOM     15  C   UNL     1      -1.755   8.785  -4.491  0.00  0.00    +0.047 A 
ENDBRANCH   1  13
BRANCH   7  16
ATOM     16  C   UNL     1      -0.512   1.426   2.085  0.00  0.00    +0.162 C 
BRANCH  16  17
ATOM     17  C   UNL     1      -0.837   1.875   3.486  0.00  0.00    +0.170 A 
ATOM     18  N   UNL     1      -1.787   1.403   4.251  0.00  0.00    -0.112 NA
ATOM     19  N   UNL     1      -1.794   2.003   5.386  0.00  0.00    -0.023 NA
ATOM     20  N   UNL     1      -0.859   2.890   5.427  0.00  0.00    -0.039 NA
ATOM     21  N   UNL     1      -0.197   2.835   4.189  0.00  0.00    -0.196 N 
BRANCH  21  22
ATOM     22  C   UNL     1       0.895   3.611   3.771  0.00  0.00    +0.069 A 
ATOM     23  C   UNL     1       1.967   3.012   3.123  0.00  0.00    +0.031 A 
ATOM     24  C   UNL     1       3.038   3.779   2.708  0.00  0.00    +0.040 A 
ATOM     25  C   UNL     1       3.047   5.143   2.947  0.00  0.00    +0.124 A 
ATOM     26  C   UNL     1       1.981   5.742   3.597  0.00  0.00    +0.040 A 
ATOM     27  C   UNL     1       0.906   4.979   4.009  0.00  0.00    +0.031 A 
ATOM     28  F   UNL     1       4.099   5.891   2.545  0.00  0.00    -0.205 F 
ENDBRANCH  21  22
ENDBRANCH  16  17
ENDBRANCH   7  16
TORSDOF 4
