REMARK  Name = ZINC17157169
REMARK  7 active torsions:
REMARK  status: ('A' for Active; 'I' for Inactive)
REMARK    1  A    between atoms: C_1  and  C_2
REMARK    2  A    between atoms: C_5  and  O_8
REMARK    3  A    between atoms: O_8  and  C_9
REMARK    4  A    between atoms: C_9  and  C_11
REMARK    5  A    between atoms: C_9  and  C_12
REMARK    6  A    between atoms: N_14  and  N_15
REMARK    7  A    between atoms: C_16  and  C_18
REMARK                            x       y       z     vdW  Elec       q    Type
REMARK                         _______ _______ _______ _____ _____    ______ ____
ROOT
ATOM      1  C   UNL     1      -0.901   3.173   1.429  0.00  0.00    +0.270 C 
ATOM      2  O   UNL     1      -1.965   3.688   1.156  0.00  0.00    -0.270 OA
ATOM      3  N   UNL     1       0.173   3.943   1.691  0.00  0.00    -0.231 N 
ATOM      4  H   UNL     1       1.138   3.476   1.938  0.00  0.00    +0.173 HD
ENDROOT
BRANCH   3   5
ATOM      5  N   UNL     1       0.061   5.339   1.649  0.00  0.00    -0.234 N 
ATOM      6  C   UNL     1       1.136   6.109   1.911  0.00  0.00    +0.235 C 
ATOM      7  O   UNL     1       2.200   5.594   2.183  0.00  0.00    -0.274 OA
ATOM      8  H   UNL     1      -0.903   5.807   1.402  0.00  0.00    +0.173 HD
BRANCH   6   9
ATOM      9  C   UNL     1       1.016   7.611   1.866  0.00  0.00    +0.049 C 
ATOM     10  C   UNL     1       0.582   8.046   0.465  0.00  0.00    +0.019 C 
ATOM     11  C   UNL     1       0.461   9.570   0.419  0.00  0.00    -0.009 C 
ATOM     12  C   UNL     1       1.814  10.200   0.753  0.00  0.00    +0.007 C 
ATOM     13  C   UNL     1       2.248   9.765   2.154  0.00  0.00    -0.009 C 
ATOM     14  C   UNL     1       2.370   8.241   2.200  0.00  0.00    +0.019 C 
ATOM     15  C   UNL     1       1.206  10.224   3.176  0.00  0.00    +0.007 C 
ATOM     16  C   UNL     1      -0.148   9.594   2.842  0.00  0.00    -0.009 C 
ATOM     17  C   UNL     1      -0.582  10.030   1.441  0.00  0.00    +0.007 C 
ATOM     18  C   UNL     1      -0.026   8.070   2.888  0.00  0.00    +0.019 C 
ENDBRANCH   6   9
ENDBRANCH   3   5
BRANCH   1  19
ATOM     19  C   UNL     1      -0.781   1.671   1.474  0.00  0.00    +0.257 C 
ATOM     20  C   UNL     1       0.167   1.202   0.368  0.00  0.00    +0.062 C 
BRANCH  19  21
ATOM     21  O   UNL     1      -2.070   1.085   1.277  0.00  0.00    -0.480 OA
BRANCH  21  26
ATOM     22  C   UNL     1      -2.874  -4.079   3.378  0.00  0.00    +0.044 C 
ATOM     23  C   UNL     1      -2.659  -2.697   2.816  0.00  0.00    -0.050 A 
ATOM     24  C   UNL     1      -1.405  -2.118   2.871  0.00  0.00    +0.007 A 
ATOM     25  C   UNL     1      -1.205  -0.851   2.356  0.00  0.00    +0.046 A 
ATOM     26  C   UNL     1      -2.264  -0.161   1.784  0.00  0.00    +0.122 A 
ATOM     27  C   UNL     1      -3.522  -0.743   1.735  0.00  0.00    +0.046 A 
ATOM     28  C   UNL     1      -3.716  -2.012   2.246  0.00  0.00    +0.007 A 
ENDBRANCH  21  26
ENDBRANCH  19  21
ENDBRANCH   1  19
TORSDOF 5
