REMARK  Name = ZINC63270102
REMARK  5 active torsions:
REMARK  status: ('A' for Active; 'I' for Inactive)
REMARK    1  A    between atoms: C_1  and  C_2
REMARK    2  A    between atoms: C_3  and  C_32
REMARK    3  A    between atoms: C_14  and  C_19
REMARK    4  A    between atoms: C_16  and  C_18
REMARK    5  A    between atoms: C_19  and  C_20
REMARK                            x       y       z     vdW  Elec       q    Type
REMARK                         _______ _______ _______ _____ _____    ______ ____
ROOT
ATOM      1  C   UNL     1      -0.018   1.503   0.010  0.00  0.00    +0.048 C 
ATOM      2  C   UNL     1       0.002  -0.004   0.002  0.00  0.00    -0.002 A 
ATOM      3  C   UNL     1       0.009  -0.802  -1.074  0.00  0.00    +0.106 A 
ATOM      4  O   UNL     1       0.028  -2.092  -0.694  0.00  0.00    -0.460 OA
ATOM      5  C   UNL     1       0.033  -2.197   0.651  0.00  0.00    +0.139 A 
ATOM      6  C   UNL     1       0.025  -0.892   1.171  0.00  0.00    +0.024 A 
ATOM      7  C   UNL     1       0.039  -0.690   2.549  0.00  0.00    +0.019 A 
ATOM      8  C   UNL     1       0.059  -1.762   3.403  0.00  0.00    -0.001 A 
ATOM      9  C   UNL     1       0.064  -3.056   2.897  0.00  0.00    +0.139 A 
ATOM     10  C   UNL     1       0.048  -3.273   1.526  0.00  0.00    +0.093 A 
ATOM     11  O   UNL     1       0.063  -4.144   3.715  0.00  0.00    -0.425 OA
ATOM     12  C   UNL     1       0.281  -3.937   5.029  0.00  0.00    +0.316 C 
ATOM     13  O   UNL     1       0.978  -4.678   5.680  0.00  0.00    -0.250 OA
ATOM     14  C   UNL     1      -0.391  -2.729   5.652  0.00  0.00    +0.114 C 
ATOM     15  C   UNL     1       0.084  -1.490   4.887  0.00  0.00    +0.034 C 
ATOM     16  C   UNL     1       1.510  -1.142   5.316  0.00  0.00    +0.013 C 
ATOM     17  C   UNL     1      -0.004  -0.325  -2.503  0.00  0.00    +0.086 C 
ENDROOT
BRANCH  14  18
ATOM     18  C   UNL     1      -1.911  -2.862   5.535  0.00  0.00    +0.111 C 
BRANCH  18  19
ATOM     19  C   UNL     1      -2.376  -4.038   6.354  0.00  0.00    +0.217 C 
ATOM     20  O   UNL     1      -1.571  -4.704   6.971  0.00  0.00    -0.276 OA
ATOM     21  N   UNL     1      -3.686  -4.350   6.402  0.00  0.00    -0.295 N 
ATOM     22  C   UNL     1      -4.162  -5.490   7.200  0.00  0.00    +0.114 C 
ATOM     23  C   UNL     1      -5.064  -4.974   8.328  0.00  0.00    +0.074 C 
ATOM     24  C   UNL     1      -6.023  -3.958   7.758  0.00  0.00    +0.039 A 
ATOM     25  H   UNL     1      -7.068  -1.901   5.655  0.00  0.00    +0.166 HD
ATOM     26  C   UNL     1      -5.852  -3.327   6.577  0.00  0.00    +0.054 A 
ATOM     27  N   UNL     1      -6.911  -2.491   6.409  0.00  0.00    -0.348 N 
ATOM     28  C   UNL     1      -7.705  -2.637   7.495  0.00  0.00    +0.171 A 
ATOM     29  N   UNL     1      -7.165  -3.518   8.296  0.00  0.00    -0.349 N 
ATOM     30  C   UNL     1      -4.681  -3.553   5.660  0.00  0.00    +0.162 C 
ATOM     31  H   UNL     1      -7.534  -3.806   9.145  0.00  0.00    +0.166 HD
ENDBRANCH  18  19
ENDBRANCH  14  18
TORSDOF 2
