REMARK  Name = ZINC34698773
REMARK  13 active torsions:
REMARK  status: ('A' for Active; 'I' for Inactive)
REMARK    1  A    between atoms: C_1  and  C_2
REMARK    2  A    between atoms: C_7  and  C_8
REMARK    3  A    between atoms: N_11  and  C_29
REMARK    4  A    between atoms: C_13  and  C_15
REMARK    5  A    between atoms: C_15  and  N_16
REMARK    6  A    between atoms: N_16  and  C_17
REMARK    7  A    between atoms: C_17  and  C_18
REMARK    8  A    between atoms: C_17  and  C_19
REMARK    9  A    between atoms: C_20  and  C_22
REMARK   10  A    between atoms: C_29  and  C_30
REMARK   11  A    between atoms: C_33  and  O_37
REMARK   12  A    between atoms: C_35  and  O_36
REMARK   13  A    between atoms: O_37  and  C_38
REMARK                            x       y       z     vdW  Elec       q    Type
REMARK                         _______ _______ _______ _____ _____    ______ ____
ROOT
ATOM      1  C   UNL     1       1.312  -2.379   5.867  0.00  0.00    +0.005 C 
ATOM      2  C   UNL     1       1.331  -3.498   6.939  0.00  0.00    -0.070 C 
ATOM      3  N   UNL     1       2.347  -3.020   7.911  0.00  0.00    +0.383 N 
ATOM      4  C   UNL     1       3.428  -2.418   7.102  0.00  0.00    -0.073 C 
ATOM      5  C   UNL     1       2.797  -1.963   5.769  0.00  0.00    -0.005 C 
ATOM      6  H   UNL     1       1.943  -2.327   8.523  0.00  0.00    -0.081 HD
ENDROOT
BRANCH   1  13
ATOM      7  C   UNL     1      -0.958  -1.151   4.568  0.00  0.00    +0.044 C 
ATOM      8  C   UNL     1      -0.267  -2.326   3.925  0.00  0.00    -0.047 A 
ATOM      9  C   UNL     1      -0.715  -2.812   2.711  0.00  0.00    +0.003 A 
ATOM     10  C   UNL     1      -0.081  -3.890   2.122  0.00  0.00    +0.000 A 
ATOM     11  C   UNL     1       1.002  -4.481   2.747  0.00  0.00    +0.000 A 
ATOM     12  C   UNL     1       1.450  -3.994   3.960  0.00  0.00    +0.004 A 
ATOM     13  C   UNL     1       0.819  -2.914   4.547  0.00  0.00    -0.043 A 
ENDBRANCH   1  13
BRANCH   5  14
ATOM     14  C   UNL     1       2.914  -0.445   5.612  0.00  0.00    +0.110 C 
BRANCH  14  15
ATOM     15  N   UNL     1       4.255  -0.106   5.131  0.00  0.00    -0.295 N 
ATOM     16  C   UNL     1       5.252   0.113   6.012  0.00  0.00    +0.247 C 
ATOM     17  O   UNL     1       5.002   0.564   7.113  0.00  0.00    -0.270 OA
BRANCH  16  18
ATOM     18  C   UNL     1       6.647  -0.196   5.640  0.00  0.00    +0.037 A 
ATOM     19  C   UNL     1       6.963  -0.535   4.322  0.00  0.00    +0.016 A 
ATOM     20  C   UNL     1       8.267  -0.822   3.980  0.00  0.00    +0.039 A 
ATOM     21  C   UNL     1       9.264  -0.776   4.941  0.00  0.00    +0.123 A 
ATOM     22  C   UNL     1       8.957  -0.440   6.251  0.00  0.00    +0.039 A 
ATOM     23  C   UNL     1       7.657  -0.145   6.603  0.00  0.00    +0.016 A 
ATOM     24  F   UNL     1      10.541  -1.059   4.601  0.00  0.00    -0.205 F 
ENDBRANCH  16  18
BRANCH  15  25
ATOM     25  C   UNL     1       4.513  -0.004   3.693  0.00  0.00    +0.070 C 
ATOM     26  C   UNL     1       5.682   0.954   3.451  0.00  0.00    +0.028 C 
ATOM     27  C   UNL     1       4.864  -1.386   3.138  0.00  0.00    +0.028 C 
ENDBRANCH  15  25
ENDBRANCH  14  15
ENDBRANCH   5  14
BRANCH   3  28
ATOM     28  C   UNL     1       2.869  -4.148   8.694  0.00  0.00    -0.039 C 
BRANCH  28  29
ATOM     29  C   UNL     1       1.772  -4.706   9.564  0.00  0.00    -0.022 A 
ATOM     30  C   UNL     1       1.705  -4.357  10.900  0.00  0.00    +0.009 A 
ATOM     31  C   UNL     1       0.701  -4.867  11.700  0.00  0.00    +0.046 A 
ATOM     32  C   UNL     1      -0.244  -5.731  11.163  0.00  0.00    +0.124 A 
ATOM     33  C   UNL     1      -0.179  -6.082   9.824  0.00  0.00    +0.091 A 
ATOM     34  C   UNL     1       0.826  -5.565   9.022  0.00  0.00    +0.122 A 
BRANCH  34  35
ATOM     35  O   UNL     1       0.889  -5.902   7.707  0.00  0.00    -0.506 OA
ATOM     36  H   UNL     1       1.419  -6.691   7.528  0.00  0.00    +0.292 HD
ENDBRANCH  34  35
BRANCH  32  37
ATOM     37  O   UNL     1      -1.232  -6.232  11.951  0.00  0.00    -0.495 OA
ATOM     38  C   UNL     1      -1.237  -5.828  13.321  0.00  0.00    +0.277 C 
ENDBRANCH  32  37
ENDBRANCH  28  29
ENDBRANCH   3  28
TORSDOF 9
