REMARK  Name = ZINC40988877
REMARK  5 active torsions:
REMARK  status: ('A' for Active; 'I' for Inactive)
REMARK    1  A    between atoms: C_1  and  C_2
REMARK    2  A    between atoms: C_2  and  S_3
REMARK    3  A    between atoms: S_3  and  C_4
REMARK    4  A    between atoms: C_10  and  C_12
REMARK    5  A    between atoms: N_15  and  C_17
REMARK                            x       y       z     vdW  Elec       q    Type
REMARK                         _______ _______ _______ _____ _____    ______ ____
ROOT
ATOM      1  C   UNL     1       2.052  -7.804  -3.455  0.00  0.00    +0.151 A 
ATOM      2  C   UNL     1       1.936  -9.187  -3.236  0.00  0.00    +0.006 A 
ATOM      3  C   UNL     1       2.547  -9.784  -4.289  0.00  0.00    +0.044 A 
ATOM      4  N   UNL     1       2.999  -8.806  -5.092  0.00  0.00    -0.263 N 
ATOM      5  N   UNL     1       2.701  -7.655  -4.598  0.00  0.00    -0.166 NA
ATOM      6  C   UNL     1       2.661 -11.277  -4.458  0.00  0.00    +0.055 C 
ATOM      7  C   UNL     1       2.371 -11.940  -3.106  0.00  0.00    +0.006 C 
ATOM      8  C   UNL     1       1.069 -11.380  -2.526  0.00  0.00    +0.005 C 
ATOM      9  C   UNL     1       1.283  -9.922  -2.098  0.00  0.00    +0.039 C 
ENDROOT
BRANCH   1  16
ATOM     10  C   UNL     1       0.792  -2.345  -1.354  0.00  0.00    +0.198 A 
ATOM     11  N   UNL     1       1.329  -3.116  -2.279  0.00  0.00    -0.198 NA
ATOM     12  C   UNL     1       1.247  -4.425  -2.110  0.00  0.00    +0.185 A 
ATOM     13  S   UNL     1       0.418  -4.556  -0.654  0.00  0.00    +0.050 S 
ATOM     14  N   UNL     1       0.217  -2.925  -0.323  0.00  0.00    -0.181 NA
ATOM     15  N   UNL     1       1.725  -5.437  -2.929  0.00  0.00    -0.258 N 
ATOM     16  C   UNL     1       1.543  -6.727  -2.583  0.00  0.00    +0.270 C 
ATOM     17  O   UNL     1       0.959  -7.003  -1.553  0.00  0.00    -0.268 OA
ATOM     18  H   UNL     1       2.191  -5.216  -3.750  0.00  0.00    +0.157 HD
BRANCH  10  19
ATOM     19  S   UNL     1       0.851  -0.589  -1.490  0.00  0.00    -0.086 S 
BRANCH  19  21
ATOM     20  C   UNL     1      -0.019   1.526   0.010  0.00  0.00    +0.016 C 
ATOM     21  C   UNL     1       0.002  -0.004   0.002  0.00  0.00    +0.074 C 
ENDBRANCH  19  21
ENDBRANCH  10  19
ENDBRANCH   1  16
BRANCH   4  22
ATOM     22  C   UNL     1       3.722  -9.019  -6.348  0.00  0.00    +0.130 C 
ATOM     23  C   UNL     1       2.938  -8.374  -7.504  0.00  0.00    +0.051 C 
ATOM     24  C   UNL     1       3.862  -8.337  -8.754  0.00  0.00    +0.168 C 
ATOM     25  S   UNL     1       5.463  -7.859  -7.977  0.00  0.00    -0.029 S 
ATOM     26  O   UNL     1       6.498  -8.671  -8.515  0.00  0.00    -0.174 OA
ATOM     27  O   UNL     1       5.591  -6.445  -8.016  0.00  0.00    -0.174 OA
ATOM     28  C   UNL     1       5.128  -8.382  -6.247  0.00  0.00    +0.192 C 
ENDBRANCH   4  22
TORSDOF 4
