REMARK  Name = ZINC09130389
REMARK  6 active torsions:
REMARK  status: ('A' for Active; 'I' for Inactive)
REMARK    1  A    between atoms: C_4  and  C_7
REMARK    2  A    between atoms: C_7  and  C_8
REMARK    3  A    between atoms: C_8  and  C_10
REMARK    4  A    between atoms: C_8  and  N_19
REMARK    5  A    between atoms: N_12  and  C_13
REMARK    6  A    between atoms: C_13  and  C_14
REMARK                            x       y       z     vdW  Elec       q    Type
REMARK                         _______ _______ _______ _____ _____    ______ ____
ROOT
ATOM      1  C   UNL     1      -2.945   0.711   1.462  0.00  0.00    +0.165 C 
ENDROOT
BRANCH   1   2
ATOM      2  N   UNL     1      -1.968  -0.170   2.108  0.00  0.00    -0.287 N 
ATOM      3  C   UNL     1      -0.861   0.351   2.672  0.00  0.00    +0.309 C 
ATOM      4  O   UNL     1      -0.672   1.552   2.646  0.00  0.00    -0.252 OA
ATOM      5  N   UNL     1       0.037  -0.459   3.266  0.00  0.00    -0.224 N 
ATOM      6  C   UNL     1       1.278  -0.022   3.915  0.00  0.00    +0.140 C 
ATOM      7  C   UNL     1       1.926  -1.321   4.422  0.00  0.00    +0.144 C 
ATOM      8  N   UNL     1       0.996  -2.384   4.017  0.00  0.00    -0.310 N 
ATOM      9  C   UNL     1      -0.067  -1.839   3.367  0.00  0.00    +0.207 A 
ATOM     10  N   UNL     1      -0.893  -2.802   3.002  0.00  0.00    -0.214 NA
ATOM     11  C   UNL     1      -0.409  -4.003   3.407  0.00  0.00    +0.091 A 
ATOM     12  C   UNL     1       0.808  -3.756   4.063  0.00  0.00    +0.070 A 
ATOM     13  C   UNL     1       1.538  -4.810   4.590  0.00  0.00    +0.028 A 
ATOM     14  C   UNL     1       1.067  -6.101   4.467  0.00  0.00    +0.002 A 
ATOM     15  C   UNL     1      -0.135  -6.351   3.821  0.00  0.00    +0.002 A 
ATOM     16  C   UNL     1      -0.873  -5.316   3.291  0.00  0.00    +0.030 A 
ATOM     17  H   UNL     1      -2.119  -1.128   2.129  0.00  0.00    +0.151 HD
ENDBRANCH   1   2
BRANCH   1  18
ATOM     18  C   UNL     1      -4.299   0.049   1.467  0.00  0.00    +0.234 C 
ATOM     19  O   UNL     1      -4.434  -1.051   1.961  0.00  0.00    -0.274 OA
ATOM     20  N   UNL     1      -5.359   0.678   0.922  0.00  0.00    -0.307 N 
ATOM     21  H   UNL     1      -5.250   1.557   0.527  0.00  0.00    +0.149 HD
BRANCH  20  22
ATOM     22  C   UNL     1      -6.675   0.034   0.927  0.00  0.00    +0.178 C 
BRANCH  22  23
ATOM     23  C   UNL     1      -7.679   0.940   0.263  0.00  0.00    +0.122 A 
ATOM     24  C   UNL     1      -7.982   0.953  -1.048  0.00  0.00    +0.046 A 
ATOM     25  C   UNL     1      -8.967   1.950  -1.232  0.00  0.00    +0.041 A 
ATOM     26  C   UNL     1      -9.207   2.488  -0.022  0.00  0.00    +0.195 A 
ATOM     27  O   UNL     1      -8.429   1.868   0.880  0.00  0.00    -0.466 OA
ENDBRANCH  22  23
ENDBRANCH  20  22
ENDBRANCH   1  18
BRANCH   1  28
ATOM     28  C   UNL     1      -2.514   0.980   0.019  0.00  0.00    +0.067 C 
BRANCH  28  32
ATOM     29  C   UNL     1       1.156   3.165   0.008  0.00  0.00    +0.000 A 
ATOM     30  C   UNL     1       1.175   1.783   0.000  0.00  0.00    +0.000 A 
ATOM     31  C   UNL     1      -0.013   1.076   0.008  0.00  0.00    +0.004 A 
ATOM     32  C   UNL     1      -1.219   1.751   0.017  0.00  0.00    -0.045 A 
ATOM     33  C   UNL     1      -1.238   3.133   0.030  0.00  0.00    +0.004 A 
ATOM     34  C   UNL     1      -0.050   3.840   0.022  0.00  0.00    +0.000 A 
ENDBRANCH  28  32
ENDBRANCH   1  28
TORSDOF 6
