REMARK  Name = ZINC01080472
REMARK  13 active torsions:
REMARK  status: ('A' for Active; 'I' for Inactive)
REMARK    1  A    between atoms: C_1  and  C_2
REMARK    2  A    between atoms: C_2  and  C_3
REMARK    3  A    between atoms: C_5  and  C_11
REMARK    4  A    between atoms: C_6  and  S_8
REMARK    5  A    between atoms: S_8  and  C_9
REMARK    6  A    between atoms: C_9  and  C_10
REMARK    7  A    between atoms: C_13  and  C_29
REMARK    8  A    between atoms: C_14  and  N_28
REMARK    9  A    between atoms: N_15  and  N_25
REMARK   10  A    between atoms: C_21  and  C_23
REMARK   11  A    between atoms: C_21  and  C_24
REMARK   12  A    between atoms: N_25  and  C_26
REMARK   13  A    between atoms: N_25  and  C_27
REMARK                            x       y       z     vdW  Elec       q    Type
REMARK                         _______ _______ _______ _____ _____    ______ ____
ROOT
ATOM      1  C   UNL     1       2.360   1.508  -0.720  0.00  0.00    +0.099 C 
ATOM      2  C   UNL     1       3.568   2.206  -0.169  0.00  0.00    +0.078 C 
ATOM      3  C   UNL     1       3.449   3.358   0.540  0.00  0.00    +0.117 C 
ATOM      4  N   UNL     1       2.208   3.903   0.770  0.00  0.00    -0.223 N 
ATOM      5  C   UNL     1       1.080   3.137   0.657  0.00  0.00    +0.037 C 
ATOM      6  C   UNL     1       1.101   1.978  -0.036  0.00  0.00    +0.026 C 
ATOM      7  C   UNL     1      -0.049   1.177  -0.144  0.00  0.00    +0.162 C 
ATOM      8  O   UNL     1       0.001   0.145  -0.783  0.00  0.00    -0.292 OA
ATOM      9  C   UNL     1      -1.343   1.577   0.510  0.00  0.00    +0.086 C 
ATOM     10  C   UNL     1      -1.030   2.421   1.754  0.00  0.00    -0.023 C 
ATOM     11  C   UNL     1      -0.185   3.621   1.321  0.00  0.00    +0.059 C 
ATOM     12  C   UNL     1      -0.250   1.581   2.768  0.00  0.00    +0.011 C 
ATOM     13  C   UNL     1      -2.333   2.911   2.388  0.00  0.00    +0.011 C 
ENDROOT
BRANCH   1  16
ATOM     14  C   UNL     1       2.005   3.306  -3.988  0.00  0.00    -0.009 A 
ATOM     15  C   UNL     1       2.095   3.087  -2.655  0.00  0.00    +0.017 A 
ATOM     16  C   UNL     1       2.256   1.791  -2.196  0.00  0.00    -0.014 A 
ATOM     17  C   UNL     1       2.325   0.777  -3.105  0.00  0.00    +0.049 A 
ATOM     18  S   UNL     1       2.148   1.655  -4.650  0.00  0.00    -0.087 S 
BRANCH  14  20
ATOM     19  C   UNL     1       3.202   5.203  -5.045  0.00  0.00    +0.009 C 
ATOM     20  C   UNL     1       1.829   4.610  -4.724  0.00  0.00    +0.039 C 
ENDBRANCH  14  20
BRANCH  17  21
ATOM     21  S   UNL     1       2.533  -0.950  -2.826  0.00  0.00    -0.118 S 
BRANCH  21  22
ATOM     22  C   UNL     1       2.531  -1.666  -4.493  0.00  0.00    +0.071 C 
ATOM     23  C   UNL     1       2.706  -3.183  -4.396  0.00  0.00    +0.015 C 
ENDBRANCH  21  22
ENDBRANCH  17  21
ENDBRANCH   1  16
BRANCH   4  24
ATOM     24  N   UNL     1       2.100   5.220   1.115  0.00  0.00    -0.227 NA
ATOM     25  C   UNL     1       2.686   5.467   2.440  0.00  0.00    +0.128 C 
ATOM     26  C   UNL     1       2.716   6.083   0.098  0.00  0.00    +0.128 C 
ENDBRANCH   4  24
BRANCH   3  27
ATOM     27  N   UNL     1       4.572   3.982   1.028  0.00  0.00    -0.344 N 
ATOM     28  H   UNL     1       4.590   4.947   1.121  0.00  0.00    +0.144 HD
ATOM     29  H   UNL     1       5.348   3.457   1.280  0.00  0.00    +0.144 HD
ENDBRANCH   3  27
BRANCH   2  30
ATOM     30  C   UNL     1       4.868   1.647  -0.393  0.00  0.00    +0.099 C 
ATOM     31  N   UNL     1       5.899   1.204  -0.571  0.00  0.00    -0.191 NA
ENDBRANCH   2  30
TORSDOF 7
