REMARK  Name = ZINC47118083
REMARK  6 active torsions:
REMARK  status: ('A' for Active; 'I' for Inactive)
REMARK    1  A    between atoms: C_1  and  C_2
REMARK    2  A    between atoms: C_2  and  N_9
REMARK    3  A    between atoms: N_9  and  N_10
REMARK    4  A    between atoms: N_13  and  C_14
REMARK    5  A    between atoms: C_14  and  C_16
REMARK    6  A    between atoms: C_14  and  C_22
REMARK                            x       y       z     vdW  Elec       q    Type
REMARK                         _______ _______ _______ _____ _____    ______ ____
ROOT
ATOM      1  N   UNL     1      -2.107  -0.036  -1.006  0.00  0.00    -0.234 N 
ATOM      2  C   UNL     1      -3.404  -0.376  -1.133  0.00  0.00    +0.314 C 
ATOM      3  O   UNL     1      -4.049   0.031  -2.081  0.00  0.00    -0.252 OA
ATOM      4  N   UNL     1      -3.988  -1.167  -0.211  0.00  0.00    -0.288 N 
ATOM      5  H   UNL     1      -1.687   0.533  -1.669  0.00  0.00    +0.171 HD
ATOM      6  H   UNL     1      -3.473  -1.491   0.545  0.00  0.00    +0.151 HD
ENDROOT
BRANCH   1   7
ATOM      7  N   UNL     1      -1.382  -0.492   0.059  0.00  0.00    -0.232 NA
ATOM      8  H   UNL     1      -1.408  -1.500   0.108  0.00  0.00    +0.145 HD
BRANCH   7  10
ATOM      9  C   UNL     1      -0.019   1.526   0.010  0.00  0.00    +0.031 C 
ATOM     10  C   UNL     1       0.002  -0.004   0.002  0.00  0.00    +0.054 C 
ATOM     11  C   UNL     1       0.632  -0.478  -1.307  0.00  0.00    +0.047 C 
ATOM     12  C   UNL     1       2.169  -0.637  -1.140  0.00  0.00    +0.168 C 
ATOM     13  S   UNL     1       2.220  -1.358   0.560  0.00  0.00    -0.029 S 
ATOM     14  O   UNL     1       3.389  -0.902   1.226  0.00  0.00    -0.174 OA
ATOM     15  O   UNL     1       1.952  -2.752   0.484  0.00  0.00    -0.174 OA
ATOM     16  C   UNL     1       0.751  -0.495   1.257  0.00  0.00    +0.189 C 
ENDBRANCH   7  10
ENDBRANCH   1   7
BRANCH   4  17
ATOM     17  C   UNL     1      -5.398  -1.536  -0.349  0.00  0.00    +0.135 C 
BRANCH  17  18
ATOM     18  C   UNL     1      -5.968  -1.863   1.007  0.00  0.00    -0.023 A 
ATOM     19  C   UNL     1      -5.210  -2.569   1.923  0.00  0.00    +0.008 A 
ATOM     20  C   UNL     1      -5.731  -2.868   3.167  0.00  0.00    +0.038 A 
ATOM     21  C   UNL     1      -7.013  -2.460   3.497  0.00  0.00    +0.123 A 
ATOM     22  C   UNL     1      -7.771  -1.753   2.579  0.00  0.00    +0.038 A 
ATOM     23  C   UNL     1      -7.246  -1.450   1.337  0.00  0.00    +0.008 A 
ATOM     24  F   UNL     1      -7.524  -2.753   4.713  0.00  0.00    -0.205 F 
ENDBRANCH  17  18
BRANCH  17  25
ATOM     25  C   UNL     1      -5.516  -2.742  -1.247  0.00  0.00    -0.023 A 
ATOM     26  C   UNL     1      -4.601  -3.773  -1.143  0.00  0.00    +0.006 A 
ATOM     27  C   UNL     1      -4.709  -4.878  -1.966  0.00  0.00    +0.000 A 
ATOM     28  C   UNL     1      -5.732  -4.953  -2.892  0.00  0.00    +0.000 A 
ATOM     29  C   UNL     1      -6.647  -3.922  -2.996  0.00  0.00    +0.000 A 
ATOM     30  C   UNL     1      -6.542  -2.819  -2.170  0.00  0.00    +0.006 A 
ENDBRANCH  17  25
ENDBRANCH   4  17
TORSDOF 5
