REMARK  Name = ZINC15073790
REMARK  7 active torsions:
REMARK  status: ('A' for Active; 'I' for Inactive)
REMARK    1  A    between atoms: C_1  and  C_2
REMARK    2  A    between atoms: C_6  and  C_10
REMARK    3  A    between atoms: C_10  and  N_11
REMARK    4  A    between atoms: C_12  and  C_14
REMARK    5  A    between atoms: C_14  and  C_15
REMARK    6  A    between atoms: C_22  and  C_23
REMARK    7  A    between atoms: C_22  and  N_56
REMARK                            x       y       z     vdW  Elec       q    Type
REMARK                         _______ _______ _______ _____ _____    ______ ____
ROOT
ATOM      1  C   UNL     1      -0.014   1.358   2.391  0.00  0.00    +0.028 C 
ATOM      2  C   UNL     1      -0.668   1.430   3.743  0.00  0.00    +0.200 C 
ATOM      3  O   UNL     1       0.036   1.560   4.722  0.00  0.00    -0.278 OA
ATOM      4  N   UNL     1      -1.992   1.356   3.910  0.00  0.00    -0.318 N 
ATOM      5  C   UNL     1      -2.928   1.235   2.796  0.00  0.00    +0.085 C 
ATOM      6  C   UNL     1      -2.191   0.762   1.542  0.00  0.00    -0.059 C 
ATOM      7  H   UNL     1      -2.347   1.384   4.813  0.00  0.00    +0.149 HD
ATOM      8  N   UNL     1      -1.016   1.635   1.345  0.00  0.00    +0.389 N 
ATOM      9  H   UNL     1      -1.312   2.616   1.414  0.00  0.00    -0.081 HD
ENDROOT
BRANCH   1  10
ATOM     10  C   UNL     1       1.095   2.408   2.307  0.00  0.00    +0.089 C 
BRANCH  10  12
ATOM     11  N   UNL     1       1.300   4.864   2.518  0.00  0.00    -0.310 N 
ATOM     12  C   UNL     1       0.497   3.784   2.450  0.00  0.00    +0.212 C 
ATOM     13  O   UNL     1      -0.707   3.919   2.503  0.00  0.00    -0.276 OA
ATOM     14  H   UNL     1       2.263   4.756   2.475  0.00  0.00    +0.149 HD
BRANCH  11  15
ATOM     15  C   UNL     1       0.718   6.202   2.656  0.00  0.00    +0.161 C 
BRANCH  15  21
ATOM     16  C   UNL     1       6.062  11.364   2.066  0.00  0.00    +0.075 C 
ATOM     17  C   UNL     1       5.037  10.317   2.417  0.00  0.00    +0.099 A 
ATOM     18  N   UNL     1       4.191   9.710   1.641  0.00  0.00    -0.163 NA
ATOM     19  N   UNL     1       3.305   8.759   2.135  0.00  0.00    -0.213 N 
ATOM     20  C   UNL     1       2.300   7.923   1.663  0.00  0.00    +0.140 A 
ATOM     21  C   UNL     1       1.822   7.226   2.709  0.00  0.00    +0.079 A 
ATOM     22  N   UNL     1       2.499   7.595   3.807  0.00  0.00    -0.223 NA
ATOM     23  C   UNL     1       3.376   8.499   3.478  0.00  0.00    +0.196 A 
ATOM     24  S   UNL     1       4.675   9.590   4.008  0.00  0.00    -0.033 S 
ENDBRANCH  15  21
ENDBRANCH  11  15
ENDBRANCH  10  12
ENDBRANCH   1  10
BRANCH   8  25
ATOM     25  C   UNL     1      -0.428   1.401   0.006  0.00  0.00    -0.074 C 
BRANCH  25  26
ATOM     26  C   UNL     1      -1.046   2.393  -0.982  0.00  0.00    -0.028 C 
ATOM     27  C   UNL     1      -2.539   2.097  -1.136  0.00  0.00    +0.002 C 
ATOM     28  C   UNL     1      -3.156   3.089  -2.124  0.00  0.00    +0.000 C 
ATOM     29  C   UNL     1      -2.466   2.952  -3.483  0.00  0.00    +0.000 C 
ATOM     30  C   UNL     1      -0.973   3.249  -3.328  0.00  0.00    +0.000 C 
ATOM     31  C   UNL     1      -0.355   2.257  -2.340  0.00  0.00    +0.002 C 
ENDBRANCH  25  26
ENDBRANCH   8  25
TORSDOF 6
