REMARK  Name = ZINC15629187
REMARK  8 active torsions:
REMARK  status: ('A' for Active; 'I' for Inactive)
REMARK    1  A    between atoms: C_1  and  C_2
REMARK    2  A    between atoms: C_5  and  N_9
REMARK    3  A    between atoms: C_6  and  C_8
REMARK    4  A    between atoms: C_10  and  C_12
REMARK    5  A    between atoms: C_12  and  C_13
REMARK    6  A    between atoms: C_13  and  S_14
REMARK    7  A    between atoms: S_14  and  C_15
REMARK    8  A    between atoms: C_15  and  C_16
REMARK                            x       y       z     vdW  Elec       q    Type
REMARK                         _______ _______ _______ _____ _____    ______ ____
ROOT
ATOM      1  C   UNL     1      -1.751  -0.468  -0.015  0.00  0.00    +0.143 C 
ENDROOT
BRANCH   1   2
ATOM      2  C   UNL     1      -1.874  -1.969  -0.033  0.00  0.00    +0.121 A 
ATOM      3  N   UNL     1      -3.107  -2.537  -0.027  0.00  0.00    -0.310 N 
ATOM      4  H   UNL     1      -3.893  -1.968  -0.010  0.00  0.00    +0.170 HD
ATOM      5  C   UNL     1      -3.263  -3.874  -0.043  0.00  0.00    +0.260 A 
ATOM      6  O   UNL     1      -4.377  -4.369  -0.036  0.00  0.00    -0.267 OA
ATOM      7  C   UNL     1      -2.096  -4.707  -0.067  0.00  0.00    +0.075 A 
ATOM      8  C   UNL     1      -2.022  -6.167  -0.087  0.00  0.00    -0.023 A 
ATOM      9  C   UNL     1      -0.790  -6.718  -0.108  0.00  0.00    -0.004 A 
ATOM     10  S   UNL     1       0.328  -5.342  -0.104  0.00  0.00    -0.073 S 
ATOM     11  C   UNL     1      -0.866  -4.029  -0.073  0.00  0.00    +0.116 A 
ATOM     12  N   UNL     1      -0.793  -2.701  -0.061  0.00  0.00    -0.226 NA
ATOM     13  C   UNL     1      -0.449  -8.176  -0.131  0.00  0.00    +0.043 C 
ATOM     14  C   UNL     1      -1.705  -8.974   0.248  0.00  0.00    +0.005 C 
ATOM     15  C   UNL     1      -2.887  -8.446  -0.569  0.00  0.00    +0.005 C 
ATOM     16  C   UNL     1      -3.270  -7.047  -0.084  0.00  0.00    +0.037 C 
ENDBRANCH   1   2
BRANCH   1  17
ATOM     17  S   UNL     1       0.003  -0.004  -0.029  0.00  0.00    -0.153 S 
BRANCH  17  18
ATOM     18  C   UNL     1      -0.022   1.809  -0.005  0.00  0.00    +0.079 C 
BRANCH  18  19
ATOM     19  C   UNL     1       1.413   2.339  -0.014  0.00  0.00    +0.107 C 
BRANCH  19  21
ATOM     20  N   UNL     1       2.550   4.536   0.002  0.00  0.00    -0.285 N 
ATOM     21  C   UNL     1       1.393   3.846   0.006  0.00  0.00    +0.218 C 
ATOM     22  O   UNL     1       0.334   4.438   0.026  0.00  0.00    -0.275 OA
ATOM     23  H   UNL     1       3.396   4.065   0.067  0.00  0.00    +0.155 HD
BRANCH  20  28
ATOM     24  C   UNL     1       2.479  10.195  -0.395  0.00  0.00    +0.044 C 
ATOM     25  C   UNL     1       2.498   8.691  -0.290  0.00  0.00    -0.050 A 
ATOM     26  C   UNL     1       1.439   7.952  -0.783  0.00  0.00    +0.005 A 
ATOM     27  C   UNL     1       1.453   6.574  -0.688  0.00  0.00    +0.024 A 
ATOM     28  C   UNL     1       2.533   5.932  -0.096  0.00  0.00    +0.036 A 
ATOM     29  C   UNL     1       3.592   6.678   0.404  0.00  0.00    -0.029 A 
ATOM     30  C   UNL     1       3.574   8.055   0.301  0.00  0.00    +0.008 A 
ATOM     31  C   UNL     1       4.762   5.985   1.053  0.00  0.00    +0.045 C 
ENDBRANCH  20  28
ENDBRANCH  19  21
ENDBRANCH  18  19
ENDBRANCH  17  18
ENDBRANCH   1  17
TORSDOF 6
