REMARK  Name = ZINC39675605
REMARK  9 active torsions:
REMARK  status: ('A' for Active; 'I' for Inactive)
REMARK    1  A    between atoms: C_1  and  N_2
REMARK    2  A    between atoms: N_2  and  C_3
REMARK    3  A    between atoms: N_2  and  C_4
REMARK    4  A    between atoms: C_4  and  C_6
REMARK    5  A    between atoms: C_4  and  C_33
REMARK    6  A    between atoms: C_6  and  N_7
REMARK    7  A    between atoms: C_8  and  C_10
REMARK    8  A    between atoms: C_21  and  C_23
REMARK    9  A    between atoms: C_28  and  C_29
REMARK                            x       y       z     vdW  Elec       q    Type
REMARK                         _______ _______ _______ _____ _____    ______ ____
ROOT
ATOM      1  C   UNL     1      -0.137  -4.184   1.595  0.00  0.00    +0.100 C 
ATOM      2  C   UNL     1      -0.629  -3.600   2.938  0.00  0.00    +0.121 C 
ATOM      3  N   UNL     1      -1.288  -4.738   3.621  0.00  0.00    -0.296 N 
ATOM      4  C   UNL     1      -0.424  -5.903   3.314  0.00  0.00    +0.115 C 
ATOM      5  C   UNL     1       0.000  -5.695   1.847  0.00  0.00    -0.004 C 
ATOM      6  C   UNL     1       1.447  -6.135   1.648  0.00  0.00    -0.010 C 
ATOM      7  C   UNL     1       1.547  -7.650   1.847  0.00  0.00    -0.082 C 
ATOM      8  N   UNL     1       0.671  -8.331   0.885  0.00  0.00    +0.379 N 
ATOM      9  C   UNL     1      -0.729  -7.973   1.144  0.00  0.00    -0.082 C 
ATOM     10  C   UNL     1      -0.925  -6.472   0.915  0.00  0.00    -0.010 C 
ATOM     11  C   UNL     1      -2.418  -4.718   4.356  0.00  0.00    +0.247 C 
ATOM     12  O   UNL     1      -2.777  -5.719   4.946  0.00  0.00    -0.270 OA
ATOM     13  H   UNL     1       0.921  -8.051  -0.051  0.00  0.00    -0.086 HD
ATOM     14  H   UNL     1       0.785  -9.329   0.977  0.00  0.00    -0.086 HD
ENDROOT
BRANCH  11  15
ATOM     15  C   UNL     1      -3.221  -3.480   4.445  0.00  0.00    +0.049 A 
ATOM     16  C   UNL     1      -2.587  -2.238   4.516  0.00  0.00    +0.013 A 
ATOM     17  C   UNL     1      -3.342  -1.086   4.598  0.00  0.00    +0.001 A 
ATOM     18  C   UNL     1      -4.724  -1.160   4.611  0.00  0.00    +0.001 A 
ATOM     19  C   UNL     1      -5.357  -2.388   4.541  0.00  0.00    +0.013 A 
ATOM     20  C   UNL     1      -4.614  -3.547   4.452  0.00  0.00    +0.067 A 
BRANCH  20  21
ATOM     21  C   UNL     1      -5.307  -4.883   4.370  0.00  0.00    +0.418 C 
ATOM     22  F   UNL     1      -6.692  -4.692   4.395  0.00  0.00    -0.166 F 
ATOM     23  F   UNL     1      -4.945  -5.523   3.180  0.00  0.00    -0.166 F 
ATOM     24  F   UNL     1      -4.925  -5.673   5.460  0.00  0.00    -0.166 F 
ENDBRANCH  20  21
ENDBRANCH  11  15
BRANCH   1  26
ATOM     25  N   UNL     1      -0.765  -3.939  -0.785  0.00  0.00    -0.316 N 
ATOM     26  C   UNL     1      -1.147  -3.923   0.507  0.00  0.00    +0.218 C 
ATOM     27  O   UNL     1      -2.303  -3.698   0.795  0.00  0.00    -0.275 OA
ATOM     28  H   UNL     1       0.160  -4.119  -1.015  0.00  0.00    +0.149 HD
BRANCH  25  29
ATOM     29  C   UNL     1      -1.747  -3.685  -1.842  0.00  0.00    +0.093 C 
BRANCH  29  30
ATOM     30  C   UNL     1      -1.038  -3.648  -3.198  0.00  0.00    -0.021 C 
BRANCH  30  31
ATOM     31  C   UNL     1      -0.496  -5.016  -3.519  0.00  0.00    -0.059 A 
ATOM     32  C   UNL     1       0.687  -5.443  -2.946  0.00  0.00    +0.002 A 
ATOM     33  C   UNL     1       1.185  -6.699  -3.240  0.00  0.00    +0.000 A 
ATOM     34  C   UNL     1       0.499  -7.528  -4.108  0.00  0.00    +0.000 A 
ATOM     35  C   UNL     1      -0.684  -7.101  -4.681  0.00  0.00    +0.000 A 
ATOM     36  C   UNL     1      -1.184  -5.848  -4.383  0.00  0.00    +0.002 A 
ENDBRANCH  30  31
BRANCH  30  38
ATOM     37  C   UNL     1       0.695  -2.584  -4.471  0.00  0.00    -0.096 C 
ATOM     38  N   UNL     1       0.068  -2.682  -3.146  0.00  0.00    +0.382 N 
ATOM     39  C   UNL     1      -0.450  -1.365  -2.751  0.00  0.00    -0.096 C 
ATOM     40  H   UNL     1       0.752  -2.991  -2.472  0.00  0.00    -0.082 HD
ENDBRANCH  30  38
ENDBRANCH  29  30
ENDBRANCH  25  29
ENDBRANCH   1  26
TORSDOF 7
