REMARK  Name = ZINC64591871
REMARK  10 active torsions:
REMARK  status: ('A' for Active; 'I' for Inactive)
REMARK    1  A    between atoms: C_1  and  C_2
REMARK    2  A    between atoms: C_4  and  C_27
REMARK    3  A    between atoms: C_5  and  C_26
REMARK    4  A    between atoms: C_6  and  S_9
REMARK    5  A    between atoms: C_7  and  C_8
REMARK    6  A    between atoms: S_9  and  N_12
REMARK    7  A    between atoms: N_12  and  C_13
REMARK    8  A    between atoms: C_18  and  C_19
REMARK    9  A    between atoms: N_20  and  C_25
REMARK   10  A    between atoms: N_23  and  C_24
REMARK                            x       y       z     vdW  Elec       q    Type
REMARK                         _______ _______ _______ _____ _____    ______ ____
ROOT
ATOM      1  N   UNL     1       1.859  -3.047   3.005  0.00  0.00    -0.216 N 
ATOM      2  H   UNL     1       2.307  -3.902   2.904  0.00  0.00    +0.174 HD
ENDROOT
BRANCH   1   3
ATOM      3  C   UNL     1       2.610  -1.885   3.212  0.00  0.00    +0.053 A 
ATOM      4  C   UNL     1       2.057  -0.817   3.904  0.00  0.00    +0.052 A 
ATOM      5  C   UNL     1       2.804   0.332   4.107  0.00  0.00    +0.071 A 
ATOM      6  C   UNL     1       4.109   0.412   3.615  0.00  0.00    +0.070 A 
ATOM      7  C   UNL     1       4.655  -0.658   2.924  0.00  0.00    +0.033 A 
ATOM      8  C   UNL     1       3.911  -1.805   2.728  0.00  0.00    -0.026 A 
ATOM      9  C   UNL     1       4.509  -2.970   1.983  0.00  0.00    +0.046 C 
ATOM     10  N   UNL     1       4.596   1.670   3.970  0.00  0.00    -0.295 N 
ATOM     11  C   UNL     1       3.632   2.323   4.646  0.00  0.00    +0.330 A 
ATOM     12  O   UNL     1       3.732   3.448   5.099  0.00  0.00    -0.246 OA
ATOM     13  N   UNL     1       2.539   1.542   4.745  0.00  0.00    -0.295 N 
ATOM     14  C   UNL     1       1.285   1.903   5.410  0.00  0.00    +0.154 C 
ATOM     15  C   UNL     1       5.930   2.192   3.661  0.00  0.00    +0.154 C 
ENDBRANCH   1   3
BRANCH   1  16
ATOM     16  S   UNL     1       0.207  -2.963   2.933  0.00  0.00    +0.073 S 
ATOM     17  O   UNL     1      -0.256  -4.284   2.687  0.00  0.00    -0.150 OA
ATOM     18  O   UNL     1      -0.107  -1.874   2.076  0.00  0.00    -0.150 OA
BRANCH  16  24
ATOM     19  C   UNL     1      -2.089   0.382   6.228  0.00  0.00    +0.044 C 
ATOM     20  C   UNL     1      -1.421  -0.951   6.006  0.00  0.00    -0.045 A 
ATOM     21  C   UNL     1      -1.256  -1.826   7.063  0.00  0.00    +0.007 A 
ATOM     22  C   UNL     1      -0.643  -3.048   6.859  0.00  0.00    -0.045 A 
ATOM     23  C   UNL     1      -0.197  -3.396   5.598  0.00  0.00    -0.021 A 
ATOM     24  C   UNL     1      -0.363  -2.521   4.540  0.00  0.00    +0.115 A 
ATOM     25  C   UNL     1      -0.979  -1.300   4.743  0.00  0.00    -0.021 A 
ATOM     26  C   UNL     1      -1.165  -0.349   3.590  0.00  0.00    +0.046 C 
ATOM     27  C   UNL     1       0.472  -4.728   5.376  0.00  0.00    +0.046 C 
ATOM     28  C   UNL     1      -0.462  -4.002   8.012  0.00  0.00    +0.044 C 
ENDBRANCH  16  24
ENDBRANCH   1  16
TORSDOF 3
