REMARK  Name = ZINC26433449
REMARK  3 active torsions:
REMARK  status: ('A' for Active; 'I' for Inactive)
REMARK    1  A    between atoms: C_1  and  O_2
REMARK    2  A    between atoms: O_2  and  C_3
REMARK    3  A    between atoms: C_7  and  C_9
REMARK                            x       y       z     vdW  Elec       q    Type
REMARK                         _______ _______ _______ _____ _____    ______ ____
ROOT
ATOM      1  C   UNL     1       1.333  -4.072  -2.305  0.00  0.00    +0.015 C 
ATOM      2  C   UNL     1       1.843  -4.664  -3.405  0.00  0.00    +0.001 C 
ATOM      3  C   UNL     1       2.477  -3.866  -4.526  0.00  0.00    +0.045 C 
ATOM      4  C   UNL     1       3.916  -4.336  -4.749  0.00  0.00    +0.058 C 
ATOM      5  C   UNL     1       3.971  -5.842  -4.815  0.00  0.00    +0.028 A 
ATOM      6  C   UNL     1       3.012  -6.669  -4.277  0.00  0.00    +0.050 A 
ATOM      7  C   UNL     1       3.426  -8.034  -4.536  0.00  0.00    +0.013 A 
ATOM      8  C   UNL     1       2.866  -9.275  -4.229  0.00  0.00    +0.049 A 
ATOM      9  C   UNL     1       3.563 -10.397  -4.648  0.00  0.00    +0.124 A 
ATOM     10  C   UNL     1       4.760 -10.298  -5.341  0.00  0.00    +0.040 A 
ATOM     11  C   UNL     1       5.330  -9.077  -5.655  0.00  0.00    +0.029 A 
ATOM     12  C   UNL     1       4.649  -7.933  -5.245  0.00  0.00    +0.048 A 
ATOM     13  N   UNL     1       4.936  -6.601  -5.392  0.00  0.00    -0.357 N 
ATOM     14  H   UNL     1       5.719  -6.250  -5.845  0.00  0.00    +0.166 HD
ATOM     15  F   UNL     1       3.062 -11.622  -4.374  0.00  0.00    -0.205 F 
ATOM     16  C   UNL     1       1.823  -6.139  -3.587  0.00  0.00    +0.192 C 
ATOM     17  O   UNL     1       0.907  -6.846  -3.204  0.00  0.00    -0.287 OA
ENDROOT
BRANCH   1  22
ATOM     18  C   UNL     1       0.764  -0.509  -3.341  0.00  0.00    +0.121 A 
ATOM     19  C   UNL     1       0.972   0.155  -2.138  0.00  0.00    +0.045 A 
ATOM     20  C   UNL     1       1.296  -0.556  -0.997  0.00  0.00    +0.004 A 
ATOM     21  C   UNL     1       1.415  -1.929  -1.044  0.00  0.00    +0.008 A 
ATOM     22  C   UNL     1       1.207  -2.607  -2.249  0.00  0.00    -0.021 A 
ATOM     23  C   UNL     1       0.874  -1.887  -3.401  0.00  0.00    +0.053 A 
BRANCH  18  25
ATOM     24  C   UNL     1       0.349   1.616  -4.325  0.00  0.00    +0.277 C 
ATOM     25  O   UNL     1       0.447   0.196  -4.459  0.00  0.00    -0.495 OA
ENDBRANCH  18  25
ENDBRANCH   1  22
TORSDOF 2
