REMARK  Name = ZINC63302970
REMARK  7 active torsions:
REMARK  status: ('A' for Active; 'I' for Inactive)
REMARK    1  A    between atoms: C_1  and  C_2
REMARK    2  A    between atoms: C_2  and  C_4
REMARK    3  A    between atoms: C_8  and  N_10
REMARK    4  A    between atoms: C_11  and  C_13
REMARK    5  A    between atoms: C_13  and  C_14
REMARK    6  A    between atoms: C_14  and  C_15
REMARK    7  A    between atoms: C_15  and  N_16
REMARK                            x       y       z     vdW  Elec       q    Type
REMARK                         _______ _______ _______ _____ _____    ______ ____
ROOT
ATOM      1  N   UNL     1      -0.493  -8.867  -6.529  0.00  0.00    -0.299 N 
ATOM      2  C   UNL     1      -0.597 -10.187  -6.783  0.00  0.00    +0.302 C 
ATOM      3  O   UNL     1      -0.696 -10.977  -5.865  0.00  0.00    -0.253 OA
ATOM      4  N   UNL     1      -0.590 -10.630  -8.056  0.00  0.00    -0.283 N 
ATOM      5  C   UNL     1      -0.578  -9.665  -9.160  0.00  0.00    +0.114 C 
ATOM      6  C   UNL     1       0.653  -9.919 -10.049  0.00  0.00    +0.052 C 
ATOM      7  C   UNL     1       0.724 -11.409 -10.274  0.00  0.00    -0.035 C 
ATOM      8  C   UNL     1       0.823 -12.125 -11.387  0.00  0.00    +0.001 A 
ATOM      9  C   UNL     1       1.008 -11.729 -12.793  0.00  0.00    +0.030 A 
ATOM     10  C   UNL     1       1.048 -12.742 -13.701  0.00  0.00    +0.042 A 
ATOM     11  C   UNL     1       0.922 -14.092 -13.353  0.00  0.00    +0.022 A 
ATOM     12  C   UNL     1       0.757 -14.545 -12.085  0.00  0.00    +0.027 A 
ATOM     13  C   UNL     1       0.709 -13.575 -11.042  0.00  0.00    +0.043 A 
ATOM     14  N   UNL     1       0.585 -13.727  -9.757  0.00  0.00    -0.376 N 
ATOM     15  C   UNL     1       0.666 -12.410  -9.126  0.00  0.00    +0.124 C 
ATOM     16  C   UNL     1      -0.590 -12.077  -8.323  0.00  0.00    +0.138 C 
ATOM     17 CL   UNL     1       1.264 -12.339 -15.375  0.00  0.00    -0.084 Cl
ATOM     18  H   UNL     1      -0.488  -8.231  -7.261  0.00  0.00    +0.150 HD
ATOM     19  H   UNL     1       0.460 -14.571  -9.295  0.00  0.00    +0.160 HD
ENDROOT
BRANCH   1  20
ATOM     20  C   UNL     1      -0.389  -8.394  -5.146  0.00  0.00    +0.106 C 
BRANCH  20  21
ATOM     21  C   UNL     1      -0.284  -6.868  -5.136  0.00  0.00    +0.028 C 
BRANCH  21  22
ATOM     22  C   UNL     1      -0.175  -6.373  -3.692  0.00  0.00    +0.097 C 
BRANCH  22  24
ATOM     23  N   UNL     1       0.035  -4.210  -2.512  0.00  0.00    -0.285 N 
ATOM     24  C   UNL     1      -0.071  -4.870  -3.682  0.00  0.00    +0.217 C 
ATOM     25  O   UNL     1      -0.084  -4.254  -4.727  0.00  0.00    -0.275 OA
ATOM     26  H   UNL     1       0.120  -4.704  -1.682  0.00  0.00    +0.155 HD
BRANCH  23  31
ATOM     27  C   UNL     1      -0.740  -0.715  -3.403  0.00  0.00    +0.019 A 
ATOM     28  C   UNL     1       0.015  -0.032  -2.444  0.00  0.00    +0.011 A 
ATOM     29  C   UNL     1       0.762  -0.738  -1.524  0.00  0.00    +0.002 A 
ATOM     30  C   UNL     1       0.769  -2.120  -1.546  0.00  0.00    +0.023 A 
ATOM     31  C   UNL     1       0.023  -2.810  -2.495  0.00  0.00    +0.034 A 
ATOM     32  C   UNL     1      -0.737  -2.113  -3.421  0.00  0.00    +0.034 A 
BRANCH  27  34
ATOM     33  C   UNL     1      -1.540   1.541  -4.365  0.00  0.00    +0.091 C 
ATOM     34  C   UNL     1      -1.538   0.034  -4.387  0.00  0.00    +0.160 C 
ATOM     35  O   UNL     1      -2.196  -0.561  -5.214  0.00  0.00    -0.292 OA
ENDBRANCH  27  34
ENDBRANCH  23  31
ENDBRANCH  22  24
ENDBRANCH  21  22
ENDBRANCH  20  21
ENDBRANCH   1  20
TORSDOF 6
