REMARK  Name = ZINC02725863
REMARK  13 active torsions:
REMARK  status: ('A' for Active; 'I' for Inactive)
REMARK    1  A    between atoms: C_1  and  C_2
REMARK    2  A    between atoms: C_2  and  C_3
REMARK    3  A    between atoms: C_3  and  C_5
REMARK    4  A    between atoms: C_3  and  N_64
REMARK    5  A    between atoms: C_8  and  S_17
REMARK    6  A    between atoms: N_9  and  C_10
REMARK    7  A    between atoms: C_10  and  C_11
REMARK    8  A    between atoms: S_17  and  C_18
REMARK    9  A    between atoms: C_18  and  C_19
REMARK   10  A    between atoms: N_21  and  C_22
REMARK   11  A    between atoms: C_23  and  C_30
REMARK   12  A    between atoms: C_33  and  N_64
REMARK   13  A    between atoms: C_34  and  N_64
REMARK                            x       y       z     vdW  Elec       q    Type
REMARK                         _______ _______ _______ _____ _____    ______ ____
ROOT
ATOM      1  C   UNL     1      -4.419   5.808   0.198  0.00  0.00    +0.121 A 
ATOM      2  N   UNL     1      -4.765   4.553   0.268  0.00  0.00    -0.135 NA
ATOM      3  N   UNL     1      -3.719   3.810   0.342  0.00  0.00    -0.123 NA
ATOM      4  C   UNL     1      -2.640   4.557   0.331  0.00  0.00    +0.192 A 
ATOM      5  N   UNL     1      -3.052   5.855   0.236  0.00  0.00    -0.303 N 
ENDROOT
BRANCH   1   6
ATOM      6  C   UNL     1      -5.351   6.987   0.095  0.00  0.00    +0.000 C 
BRANCH   6   9
ATOM      7  C   UNL     1      -5.713   6.582  -2.264  0.00  0.00    -0.096 C 
ATOM      8  C   UNL     1      -7.164   5.551  -0.622  0.00  0.00    -0.096 C 
ATOM      9  N   UNL     1      -6.369   6.753  -0.951  0.00  0.00    +0.383 N 
ATOM     10  H   UNL     1      -6.995   7.566  -0.994  0.00  0.00    -0.082 HD
ENDBRANCH   6   9
BRANCH   6  12
ATOM     11  C   UNL     1      -6.950   8.438   1.352  0.00  0.00    +0.002 C 
ATOM     12  C   UNL     1      -6.056   7.199   1.436  0.00  0.00    -0.011 C 
ENDBRANCH   6  12
ENDBRANCH   1   6
BRANCH   5  13
ATOM     13  C   UNL     1      -2.207   7.051   0.185  0.00  0.00    +0.160 C 
BRANCH  13  14
ATOM     14  C   UNL     1      -1.875   7.370  -1.250  0.00  0.00    -0.028 A 
ATOM     15  C   UNL     1      -0.743   6.834  -1.833  0.00  0.00    +0.005 A 
ATOM     16  C   UNL     1      -0.441   7.123  -3.151  0.00  0.00    +0.000 A 
ATOM     17  C   UNL     1      -1.266   7.957  -3.882  0.00  0.00    +0.000 A 
ATOM     18  C   UNL     1      -2.396   8.498  -3.297  0.00  0.00    +0.000 A 
ATOM     19  C   UNL     1      -2.700   8.205  -1.981  0.00  0.00    +0.005 A 
ENDBRANCH  13  14
ENDBRANCH   5  13
BRANCH   4  20
ATOM     20  S   UNL     1      -0.973   3.991   0.417  0.00  0.00    -0.077 S 
BRANCH  20  21
ATOM     21  C   UNL     1      -1.252   2.206   0.523  0.00  0.00    +0.173 C 
BRANCH  21  22
ATOM     22  C   UNL     1       0.073   1.494   0.607  0.00  0.00    +0.228 C 
ATOM     23  O   UNL     1       1.105   2.131   0.592  0.00  0.00    -0.275 OA
ATOM     24  N   UNL     1       0.112   0.150   0.695  0.00  0.00    -0.279 N 
ATOM     25  H   UNL     1      -0.714  -0.359   0.707  0.00  0.00    +0.155 HD
BRANCH  24  26
ATOM     26  C   UNL     1       1.332  -0.505   0.767  0.00  0.00    +0.084 A 
ATOM     27  C   UNL     1       1.574  -1.865   0.866  0.00  0.00    +0.068 A 
ATOM     28  C   UNL     1       2.968  -2.302   0.922  0.00  0.00    -0.023 A 
ATOM     29  C   UNL     1       3.879  -1.313   0.881  0.00  0.00    -0.004 A 
ATOM     30  S   UNL     1       2.922   0.178   0.762  0.00  0.00    -0.077 S 
ATOM     31  C   UNL     1       5.287  -1.840   0.946  0.00  0.00    +0.043 C 
ATOM     32  C   UNL     1       5.158  -3.340   0.600  0.00  0.00    +0.010 C 
ATOM     33  C   UNL     1       3.707  -3.637   1.028  0.00  0.00    +0.037 C 
BRANCH  27  34
ATOM     34  C   UNL     1       0.472  -2.831   0.908  0.00  0.00    +0.244 C 
ATOM     35  O   UNL     1       0.038  -3.305  -0.126  0.00  0.00    -0.270 OA
ATOM     36  N   UNL     1      -0.060  -3.195   2.091  0.00  0.00    -0.325 N 
ATOM     37  H   UNL     1       0.285  -2.817   2.915  0.00  0.00    +0.145 HD
ATOM     38  H   UNL     1      -0.789  -3.834   2.119  0.00  0.00    +0.145 HD
ENDBRANCH  27  34
ENDBRANCH  24  26
ENDBRANCH  21  22
ENDBRANCH  20  21
ENDBRANCH   4  20
TORSDOF 10
