REMARK  Name = ZINC35291670
REMARK  7 active torsions:
REMARK  status: ('A' for Active; 'I' for Inactive)
REMARK    1  A    between atoms: C_1  and  C_2
REMARK    2  A    between atoms: C_9  and  N_14
REMARK    3  A    between atoms: C_10  and  C_11
REMARK    4  A    between atoms: C_15  and  C_17
REMARK    5  A    between atoms: C_17  and  N_18
REMARK    6  A    between atoms: N_18  and  C_19
REMARK    7  A    between atoms: C_25  and  C_27
REMARK                            x       y       z     vdW  Elec       q    Type
REMARK                         _______ _______ _______ _____ _____    ______ ____
ROOT
ATOM      1  N   UNL     1       2.500  -6.643   1.516  0.00  0.00    -0.278 N 
ATOM      2  C   UNL     1       2.659  -6.623   2.854  0.00  0.00    +0.235 C 
ATOM      3  O   UNL     1       2.552  -5.578   3.461  0.00  0.00    -0.274 OA
ATOM      4  H   UNL     1       2.586  -7.479   1.030  0.00  0.00    +0.155 HD
ENDROOT
BRANCH   1  12
ATOM      5  C   UNL     1       0.814   0.160  -1.893  0.00  0.00    +0.008 C 
ATOM      6  C   UNL     1       0.822  -1.337  -1.577  0.00  0.00    -0.009 C 
ATOM      7  C   UNL     1       1.678  -2.075  -2.610  0.00  0.00    +0.008 C 
ATOM      8  C   UNL     1       1.496  -3.586  -2.454  0.00  0.00    +0.037 C 
ATOM      9  C   UNL     1       1.735  -3.959  -0.999  0.00  0.00    -0.023 A 
ATOM     10  C   UNL     1       1.693  -3.029  -0.020  0.00  0.00    -0.004 A 
ATOM     11  S   UNL     1       2.027  -3.927   1.467  0.00  0.00    -0.077 S 
ATOM     12  C   UNL     1       2.216  -5.471   0.833  0.00  0.00    +0.084 A 
ATOM     13  C   UNL     1       2.022  -5.303  -0.529  0.00  0.00    +0.068 A 
ATOM     14  C   UNL     1       1.417  -1.565  -0.180  0.00  0.00    +0.046 C 
BRANCH  13  15
ATOM     15  C   UNL     1       2.104  -6.435  -1.457  0.00  0.00    +0.244 C 
ATOM     16  O   UNL     1       3.170  -6.728  -1.967  0.00  0.00    -0.270 OA
ATOM     17  N   UNL     1       1.000  -7.152  -1.745  0.00  0.00    -0.325 N 
ATOM     18  H   UNL     1       0.150  -6.918  -1.339  0.00  0.00    +0.145 HD
ATOM     19  H   UNL     1       1.054  -7.901  -2.359  0.00  0.00    +0.145 HD
ENDBRANCH  13  15
ENDBRANCH   1  12
BRANCH   2  20
ATOM     20  C   UNL     1       2.968  -7.897   3.596  0.00  0.00    +0.204 C 
BRANCH  20  21
ATOM     21  N   UNL     1       3.092  -7.611   5.028  0.00  0.00    -0.283 N 
ATOM     22  C   UNL     1       4.271  -7.198   5.533  0.00  0.00    +0.283 C 
ATOM     23  O   UNL     1       4.402  -7.055   6.734  0.00  0.00    -0.267 OA
BRANCH  21  24
ATOM     24  C   UNL     1       1.934  -7.774   5.910  0.00  0.00    +0.077 C 
ATOM     25  C   UNL     1       1.660  -6.458   6.640  0.00  0.00    +0.022 C 
ATOM     26  C   UNL     1       0.451  -6.628   7.562  0.00  0.00    +0.002 C 
ATOM     27  C   UNL     1       0.740  -7.728   8.585  0.00  0.00    +0.000 C 
ATOM     28  C   UNL     1       1.014  -9.044   7.855  0.00  0.00    +0.002 C 
ATOM     29  C   UNL     1       2.224  -8.874   6.934  0.00  0.00    +0.022 C 
ENDBRANCH  21  24
BRANCH  22  30
ATOM     30  C   UNL     1       5.397  -6.922   4.634  0.00  0.00    +0.189 A 
ATOM     31  C   UNL     1       6.648  -6.526   5.014  0.00  0.00    +0.054 A 
ATOM     32  C   UNL     1       7.399  -6.379   3.837  0.00  0.00    +0.042 A 
ATOM     33  C   UNL     1       6.584  -6.688   2.804  0.00  0.00    +0.196 A 
ATOM     34  O   UNL     1       5.380  -7.020   3.289  0.00  0.00    -0.458 OA
ENDBRANCH  22  30
ENDBRANCH  20  21
ENDBRANCH   2  20
TORSDOF 6
