REMARK  Name = ZINC39353488
REMARK  6 active torsions:
REMARK  status: ('A' for Active; 'I' for Inactive)
REMARK    1  A    between atoms: C_1  and  O_2
REMARK    2  A    between atoms: O_2  and  C_3
REMARK    3  A    between atoms: C_6  and  C_9
REMARK    4  A    between atoms: C_13  and  C_15
REMARK    5  A    between atoms: C_15  and  N_16
REMARK    6  A    between atoms: C_23  and  C_28
REMARK                            x       y       z     vdW  Elec       q    Type
REMARK                         _______ _______ _______ _____ _____    ______ ____
ROOT
ATOM      1  N   UNL     1      -4.742  -6.215  -1.264  0.00  0.00    -0.300 NA
ATOM      2  C   UNL     1      -3.881  -6.794  -2.326  0.00  0.00    +0.087 C 
ATOM      3  C   UNL     1      -4.215  -8.241  -2.610  0.00  0.00    +0.051 C 
ATOM      4  C   UNL     1      -4.482  -8.995  -1.309  0.00  0.00    +0.141 C 
ATOM      5  N   UNL     1      -4.065 -10.410  -1.429  0.00  0.00    -0.238 NA
ATOM      6  N   UNL     1      -4.965 -11.136  -0.525  0.00  0.00    -0.236 NA
ATOM      7  C   UNL     1      -6.179 -10.306  -0.373  0.00  0.00    +0.169 C 
ATOM      8  N   UNL     1      -5.975  -9.091  -1.194  0.00  0.00    -0.266 NA
ATOM      9  C   UNL     1      -6.459  -7.872  -0.602  0.00  0.00    +0.103 C 
ATOM     10  C   UNL     1      -6.136  -6.620  -1.409  0.00  0.00    +0.100 C 
ATOM     11  H   UNL     1      -4.165 -10.737  -2.378  0.00  0.00    +0.142 HD
ATOM     12  H   UNL     1      -4.524 -11.300   0.368  0.00  0.00    +0.142 HD
ENDROOT
BRANCH   7  13
ATOM     13  C   UNL     1      -7.407 -11.079  -0.860  0.00  0.00    +0.151 C 
ATOM     14  C   UNL     1      -7.666 -12.287   0.065  0.00  0.00    +0.037 C 
ATOM     15  C   UNL     1      -8.092 -13.389  -0.944  0.00  0.00    +0.031 C 
ATOM     16  C   UNL     1      -7.216 -13.021  -2.168  0.00  0.00    +0.160 C 
ATOM     17  O   UNL     1      -7.170 -11.584  -2.180  0.00  0.00    -0.374 OA
ENDBRANCH   7  13
BRANCH   1  18
ATOM     18  C   UNL     1      -4.621  -4.751  -1.227  0.00  0.00    +0.099 C 
BRANCH  18  23
ATOM     19  C   UNL     1      -3.045  -2.865  -0.744  0.00  0.00    +0.080 C 
ATOM     20  N   UNL     1      -2.877  -2.484   0.494  0.00  0.00    -0.153 NA
ATOM     21  N   UNL     1      -2.930  -3.552   1.383  0.00  0.00    -0.161 NA
ATOM     22  C   UNL     1      -3.133  -4.683   0.788  0.00  0.00    +0.118 C 
ATOM     23  C   UNL     1      -3.241  -4.367  -0.690  0.00  0.00    +0.097 C 
BRANCH  19  27
ATOM     24  C   UNL     1      -3.059  -0.404  -4.198  0.00  0.00    +0.120 A 
ATOM     25  C   UNL     1      -2.860   0.163  -2.945  0.00  0.00    +0.046 A 
ATOM     26  C   UNL     1      -2.854  -0.631  -1.820  0.00  0.00    +0.013 A 
ATOM     27  C   UNL     1      -3.051  -2.012  -1.941  0.00  0.00    -0.001 A 
ATOM     28  C   UNL     1      -3.252  -2.578  -3.205  0.00  0.00    +0.013 A 
ATOM     29  C   UNL     1      -3.260  -1.774  -4.323  0.00  0.00    +0.046 A 
BRANCH  24  31
ATOM     30  C   UNL     1      -2.850   1.783  -5.105  0.00  0.00    +0.277 C 
ATOM     31  O   UNL     1      -3.063   0.384  -5.304  0.00  0.00    -0.495 OA
ENDBRANCH  24  31
ENDBRANCH  19  27
ENDBRANCH  18  23
ENDBRANCH   1  18
TORSDOF 5
