REMARK  Name = ZINC00457894
REMARK  6 active torsions:
REMARK  status: ('A' for Active; 'I' for Inactive)
REMARK    1  A    between atoms: C_1  and  C_2
REMARK    2  A    between atoms: C_3  and  C_18
REMARK    3  A    between atoms: C_4  and  C_10
REMARK    4  A    between atoms: C_12  and  O_17
REMARK    5  A    between atoms: C_18  and  O_20
REMARK    6  A    between atoms: O_20  and  C_21
REMARK                            x       y       z     vdW  Elec       q    Type
REMARK                         _______ _______ _______ _____ _____    ______ ____
ROOT
ATOM      1  C   UNL     1       2.379   0.755   0.013  0.00  0.00    +0.061 C 
ATOM      2  C   UNL     1       1.122   1.585   0.010  0.00  0.00    +0.021 C 
ATOM      3  C   UNL     1       1.216   2.933   0.017  0.00  0.00    +0.078 C 
ATOM      4  C   UNL     1      -0.073   3.730   0.014  0.00  0.00    +0.145 C 
ATOM      5  N   UNL     1      -1.331   2.964   0.003  0.00  0.00    -0.288 N 
ATOM      6  C   UNL     1      -1.262   1.618  -0.008  0.00  0.00    +0.304 C 
ATOM      7  O   UNL     1      -2.295   0.977  -0.022  0.00  0.00    -0.252 OA
ATOM      8  N   UNL     1      -0.094   0.964   0.001  0.00  0.00    -0.273 N 
ATOM      9  H   UNL     1      -2.188   3.418   0.000  0.00  0.00    +0.151 HD
ATOM     10  H   UNL     1      -0.112  -0.006  -0.004  0.00  0.00    +0.156 HD
ENDROOT
BRANCH   4  11
ATOM     11  C   UNL     1      -0.062   4.624  -1.199  0.00  0.00    -0.005 A 
ATOM     12  C   UNL     1       0.785   4.346  -2.255  0.00  0.00    +0.052 A 
ATOM     13  C   UNL     1       0.794   5.170  -3.371  0.00  0.00    +0.117 A 
ATOM     14  C   UNL     1      -0.049   6.271  -3.425  0.00  0.00    +0.046 A 
ATOM     15  C   UNL     1      -0.894   6.545  -2.368  0.00  0.00    +0.019 A 
ATOM     16  C   UNL     1      -0.905   5.719  -1.258  0.00  0.00    +0.023 A 
ATOM     17 BR   UNL     1      -2.070   6.092   0.185  0.00  0.00    -0.050 Br
BRANCH  13  18
ATOM     18  O   UNL     1       1.627   4.898  -4.410  0.00  0.00    -0.507 OA
ATOM     19  H   UNL     1       1.241   4.322  -5.083  0.00  0.00    +0.292 HD
ENDBRANCH  13  18
ENDBRANCH   4  11
BRANCH   3  20
ATOM     20  C   UNL     1       2.475   3.578   0.028  0.00  0.00    +0.338 C 
ATOM     21  O   UNL     1       3.495   2.920   0.119  0.00  0.00    -0.245 OA
BRANCH  20  22
ATOM     22  O   UNL     1       2.545   4.922  -0.062  0.00  0.00    -0.465 OA
ATOM     23  C   UNL     1       3.849   5.499  -0.158  0.00  0.00    +0.280 C 
ENDBRANCH  20  22
ENDBRANCH   3  20
TORSDOF 4
