REMARK  Name = ZINC09664051
REMARK  4 active torsions:
REMARK  status: ('A' for Active; 'I' for Inactive)
REMARK    1  A    between atoms: C_4  and  C_7
REMARK    2  A    between atoms: C_16  and  C_17
REMARK    3  A    between atoms: C_16  and  N_55
REMARK    4  A    between atoms: N_22  and  C_23
REMARK                            x       y       z     vdW  Elec       q    Type
REMARK                         _______ _______ _______ _____ _____    ______ ____
ROOT
ATOM      1  C   UNL     1       4.832  -4.007   0.220  0.00  0.00    +0.204 C 
ATOM      2  O   UNL     1       3.790  -4.627   0.229  0.00  0.00    -0.277 OA
ATOM      3  N   UNL     1       4.814  -2.662   0.127  0.00  0.00    -0.241 N 
ATOM      4  C   UNL     1       3.639  -2.008   0.045  0.00  0.00    +0.310 C 
ATOM      5  O   UNL     1       2.595  -2.630   0.055  0.00  0.00    -0.252 OA
ATOM      6  N   UNL     1       3.622  -0.663  -0.047  0.00  0.00    -0.269 N 
ATOM      7  H   UNL     1       5.647  -2.166   0.120  0.00  0.00    +0.159 HD
ATOM      8  H   UNL     1       4.454  -0.172  -0.132  0.00  0.00    +0.156 HD
ENDROOT
BRANCH   6   9
ATOM      9  C   UNL     1       2.401   0.025  -0.020  0.00  0.00    +0.038 A 
ATOM     10  C   UNL     1       1.346  -0.461   0.741  0.00  0.00    +0.027 A 
ATOM     11  C   UNL     1       0.143   0.216   0.766  0.00  0.00    +0.051 A 
ATOM     12  C   UNL     1      -0.016   1.383   0.033  0.00  0.00    +0.162 A 
ATOM     13  C   UNL     1       1.039   1.873  -0.728  0.00  0.00    +0.164 A 
ATOM     14  C   UNL     1       2.246   1.192  -0.754  0.00  0.00    +0.072 A 
ATOM     15  O   UNL     1       0.904   3.021  -1.447  0.00  0.00    -0.485 OA
ATOM     16  C   UNL     1      -0.431   3.473  -1.695  0.00  0.00    +0.270 C 
ATOM     17  C   UNL     1      -1.217   3.394  -0.379  0.00  0.00    +0.270 C 
ATOM     18  O   UNL     1      -1.213   2.032   0.063  0.00  0.00    -0.485 OA
ENDBRANCH   6   9
BRANCH   1  19
ATOM     19  C   UNL     1       6.146  -4.739   0.311  0.00  0.00    +0.020 C 
BRANCH  19  28
ATOM     20  C   UNL     1       7.144  -6.943   0.255  0.00  0.00    -0.005 C 
ATOM     21  C   UNL     1       6.827  -8.431   0.381  0.00  0.00    -0.047 A 
ATOM     22  C   UNL     1       7.671  -9.445  -0.065  0.00  0.00    +0.010 A 
ATOM     23  C   UNL     1       7.310 -10.741   0.086  0.00  0.00    +0.045 A 
ATOM     24  S   UNL     1       5.718 -10.590   0.885  0.00  0.00    -0.101 S 
ATOM     25  C   UNL     1       5.657  -8.822   0.958  0.00  0.00    -0.010 A 
ATOM     26  C   UNL     1       4.594  -7.931   1.513  0.00  0.00    +0.024 C 
ATOM     27  C   UNL     1       5.189  -6.519   1.646  0.00  0.00    -0.072 C 
ATOM     28  N   UNL     1       5.875  -6.188   0.374  0.00  0.00    +0.393 N 
ATOM     29  H   UNL     1       5.262  -6.446  -0.409  0.00  0.00    -0.080 HD
BRANCH  20  33
ATOM     30  C   UNL     1       8.861  -6.152  -3.576  0.00  0.00    +0.000 A 
ATOM     31  C   UNL     1       9.674  -6.255  -2.462  0.00  0.00    +0.000 A 
ATOM     32  C   UNL     1       9.118  -6.511  -1.222  0.00  0.00    +0.002 A 
ATOM     33  C   UNL     1       7.750  -6.664  -1.096  0.00  0.00    -0.057 A 
ATOM     34  C   UNL     1       6.938  -6.567  -2.211  0.00  0.00    +0.002 A 
ATOM     35  C   UNL     1       7.493  -6.307  -3.450  0.00  0.00    +0.000 A 
ENDBRANCH  20  33
ENDBRANCH  19  28
ENDBRANCH   1  19
TORSDOF 4
