REMARK  Name = ZINC04193874
REMARK  9 active torsions:
REMARK  status: ('A' for Active; 'I' for Inactive)
REMARK    1  A    between atoms: C_1  and  C_2
REMARK    2  A    between atoms: C_2  and  C_3
REMARK    3  A    between atoms: N_9  and  C_10
REMARK    4  A    between atoms: C_10  and  C_11
REMARK    5  A    between atoms: C_11  and  C_13
REMARK    6  A    between atoms: C_11  and  O_31
REMARK    7  A    between atoms: C_13  and  N_14
REMARK    8  A    between atoms: C_23  and  C_29
REMARK    9  A    between atoms: C_24  and  C_28
REMARK                            x       y       z     vdW  Elec       q    Type
REMARK                         _______ _______ _______ _____ _____    ______ ____
ROOT
ATOM      1  N   UNL     1      -2.509   3.917   4.171  0.00  0.00    -0.322 N 
ATOM      2  C   UNL     1      -3.749   4.382   4.588  0.00  0.00    +0.068 A 
ATOM      3  C   UNL     1      -4.957   4.579   3.931  0.00  0.00    +0.028 A 
ATOM      4  C   UNL     1      -6.045   5.067   4.626  0.00  0.00    +0.002 A 
ATOM      5  C   UNL     1      -5.938   5.360   5.975  0.00  0.00    +0.002 A 
ATOM      6  C   UNL     1      -4.742   5.168   6.637  0.00  0.00    +0.028 A 
ATOM      7  C   UNL     1      -3.642   4.678   5.948  0.00  0.00    +0.075 A 
ATOM      8  N   UNL     1      -2.334   4.386   6.333  0.00  0.00    -0.260 N 
ATOM      9  C   UNL     1      -1.665   3.921   5.245  0.00  0.00    +0.140 A 
ATOM     10  C   UNL     1      -0.319   3.544   5.359  0.00  0.00    +0.096 A 
ATOM     11  C   UNL     1       0.325   3.650   6.606  0.00  0.00    -0.024 A 
ATOM     12  C   UNL     1      -0.377   4.117   7.679  0.00  0.00    +0.075 A 
ATOM     13  C   UNL     1      -1.717   4.491   7.527  0.00  0.00    +0.258 A 
ATOM     14  O   UNL     1      -2.339   4.907   8.491  0.00  0.00    -0.267 OA
ATOM     15  C   UNL     1       1.771   3.251   6.755  0.00  0.00    +0.045 C 
ENDROOT
BRANCH  10  16
ATOM     16  C   UNL     1       0.394   3.057   4.216  0.00  0.00    +0.103 C 
ATOM     17  N   UNL     1       0.959   2.670   3.310  0.00  0.00    -0.191 NA
ENDBRANCH  10  16
BRANCH   1  18
ATOM     18  C   UNL     1      -2.166   3.489   2.812  0.00  0.00    +0.153 C 
BRANCH  18  19
ATOM     19  C   UNL     1      -2.450   1.993   2.662  0.00  0.00    +0.118 C 
BRANCH  19  20
ATOM     20  O   UNL     1      -3.854   1.760   2.788  0.00  0.00    -0.392 OA
ATOM     21  H   UNL     1      -4.390   2.220   2.128  0.00  0.00    +0.210 HD
ENDBRANCH  19  20
BRANCH  19  22
ATOM     22  C   UNL     1      -1.976   1.520   1.286  0.00  0.00    -0.045 C 
BRANCH  22  28
ATOM     23  C   UNL     1      -1.452  -0.410  -0.036  0.00  0.00    -0.069 C 
ATOM     24  C   UNL     1      -1.465  -1.939  -0.077  0.00  0.00    -0.015 C 
ATOM     25  C   UNL     1      -2.912  -2.434   0.003  0.00  0.00    -0.003 C 
ATOM     26  C   UNL     1      -3.561  -1.881   1.275  0.00  0.00    -0.019 C 
ATOM     27  C   UNL     1      -3.470  -0.354   1.266  0.00  0.00    -0.078 C 
ATOM     28  N   UNL     1      -2.061   0.055   1.216  0.00  0.00    +0.383 N 
ATOM     29  H   UNL     1      -1.567  -0.346   1.998  0.00  0.00    -0.081 HD
BRANCH  23  31
ATOM     30  C   UNL     1       0.604  -0.330  -1.454  0.00  0.00    +0.002 C 
ATOM     31  C   UNL     1      -0.008   0.090  -0.116  0.00  0.00    -0.019 C 
ENDBRANCH  23  31
ENDBRANCH  22  28
ENDBRANCH  19  22
ENDBRANCH  18  19
ENDBRANCH   1  18
TORSDOF 7
