REMARK  Name = ZINC28429145
REMARK  3 active torsions:
REMARK  status: ('A' for Active; 'I' for Inactive)
REMARK    1  A    between atoms: C_1  and  C_2
REMARK    2  A    between atoms: C_2  and  C_3
REMARK    3  A    between atoms: C_11  and  C_16
REMARK                            x       y       z     vdW  Elec       q    Type
REMARK                         _______ _______ _______ _____ _____    ______ ____
ROOT
ATOM      1  C   UNL     1       3.990  -1.026  -4.266  0.00  0.00    +0.152 A 
ATOM      2  N   UNL     1       3.238  -2.049  -3.867  0.00  0.00    -0.205 NA
ATOM      3  C   UNL     1       2.424  -1.646  -2.931  0.00  0.00    +0.196 A 
ATOM      4  N   UNL     1       2.626  -0.325  -2.687  0.00  0.00    -0.210 N 
ATOM      5  N   UNL     1       3.662   0.040  -3.585  0.00  0.00    -0.149 NA
ATOM      6  C   UNL     1       1.851   0.290  -1.717  0.00  0.00    +0.059 A 
ATOM      7  C   UNL     1       0.940  -0.453  -1.070  0.00  0.00    +0.039 A 
ATOM      8  S   UNL     1       1.125  -2.062  -1.791  0.00  0.00    -0.050 S 
ATOM      9  C   UNL     1       0.002  -0.004   0.002  0.00  0.00    +0.159 C 
ATOM     10  N   UNL     1      -0.018   1.472   0.010  0.00  0.00    -0.302 NA
ATOM     11  C   UNL     1       1.351   2.006  -0.000  0.00  0.00    +0.088 C 
ATOM     12  C   UNL     1       2.000   1.769  -1.366  0.00  0.00    +0.071 C 
ATOM     13  H   UNL     1      -0.550   1.836  -0.881  0.00  0.00    +0.123 HD
ENDROOT
BRANCH   9  14
ATOM     14  C   UNL     1      -1.382  -0.530  -0.280  0.00  0.00    +0.127 A 
ATOM     15  C   UNL     1      -1.953  -1.596   0.307  0.00  0.00    +0.046 A 
ATOM     16  C   UNL     1      -3.246  -1.728  -0.251  0.00  0.00    +0.041 A 
ATOM     17  C   UNL     1      -3.384  -0.739  -1.152  0.00  0.00    +0.195 A 
ATOM     18  O   UNL     1      -2.252  -0.016  -1.166  0.00  0.00    -0.466 OA
ENDBRANCH   9  14
BRANCH   1  20
ATOM     19  C   UNL     1       4.428  -0.773  -6.693  0.00  0.00    +0.012 C 
ATOM     20  C   UNL     1       5.053  -1.087  -5.333  0.00  0.00    +0.075 C 
ENDBRANCH   1  20
TORSDOF 2
