REMARK  Name = ZINC37264166
REMARK  13 active torsions:
REMARK  status: ('A' for Active; 'I' for Inactive)
REMARK    1  A    between atoms: C_1  and  C_2
REMARK    2  A    between atoms: C_2  and  C_3
REMARK    3  A    between atoms: C_2  and  C_4
REMARK    4  A    between atoms: C_2  and  C_5
REMARK    5  A    between atoms: N_8  and  C_10
REMARK    6  A    between atoms: N_17  and  C_29
REMARK    7  A    between atoms: C_22  and  C_24
REMARK    8  A    between atoms: C_29  and  C_30
REMARK    9  A    between atoms: N_32  and  C_33
REMARK   10  A    between atoms: C_33  and  C_34
REMARK   11  A    between atoms: C_34  and  N_35
REMARK   12  A    between atoms: N_35  and  C_36
REMARK   13  A    between atoms: N_35  and  C_37
REMARK                            x       y       z     vdW  Elec       q    Type
REMARK                         _______ _______ _______ _____ _____    ______ ____
ROOT
ATOM      1  C   UNL     1      -0.250  -2.748   1.149  0.00  0.00    +0.075 A 
ATOM      2  C   UNL     1       0.815  -2.390   1.978  0.00  0.00    +0.034 A 
ATOM      3  C   UNL     1       1.819  -3.272   1.769  0.00  0.00    +0.136 A 
ATOM      4  N   UNL     1       1.410  -4.162   0.835  0.00  0.00    -0.217 N 
ATOM      5  N   UNL     1       0.101  -3.812   0.468  0.00  0.00    -0.169 NA
ATOM      6  N   UNL     1       3.051  -3.227   2.440  0.00  0.00    -0.246 N 
ATOM      7  C   UNL     1       3.047  -3.096   3.771  0.00  0.00    +0.231 C 
ATOM      8  O   UNL     1       4.058  -2.752   4.346  0.00  0.00    -0.274 OA
ATOM      9  C   UNL     1       1.800  -3.374   4.554  0.00  0.00    +0.166 C 
ATOM     10  S   UNL     1       0.750  -1.885   4.645  0.00  0.00    -0.138 S 
ATOM     11  C   UNL     1       0.872  -1.232   2.942  0.00  0.00    +0.118 C 
ENDROOT
BRANCH   4  12
ATOM     12  C   UNL     1       2.155  -5.237   0.330  0.00  0.00    +0.070 A 
ATOM     13  C   UNL     1       2.900  -6.032   1.191  0.00  0.00    +0.028 A 
ATOM     14  C   UNL     1       3.633  -7.091   0.692  0.00  0.00    +0.005 A 
ATOM     15  C   UNL     1       3.626  -7.361  -0.664  0.00  0.00    +0.038 A 
ATOM     16  C   UNL     1       2.885  -6.571  -1.526  0.00  0.00    +0.125 A 
ATOM     17  C   UNL     1       2.144  -5.513  -1.030  0.00  0.00    +0.066 A 
ATOM     18  F   UNL     1       2.880  -6.836  -2.851  0.00  0.00    -0.205 F 
ENDBRANCH   4  12
BRANCH  11  19
ATOM     19  C   UNL     1      -0.277  -0.295   2.676  0.00  0.00    +0.007 A 
ATOM     20  C   UNL     1      -1.527  -0.307   3.199  0.00  0.00    +0.012 A 
ATOM     21  C   UNL     1      -2.429   0.664   2.805  0.00  0.00    +0.008 A 
ATOM     22  C   UNL     1      -2.035   1.601   1.907  0.00  0.00    +0.045 A 
ATOM     23  S   UNL     1      -0.343   1.125   1.595  0.00  0.00    -0.100 S 
ENDBRANCH  11  19
BRANCH   1  25
ATOM     24  C   UNL     1      -2.434  -2.698  -0.023  0.00  0.00    +0.017 C 
ATOM     25  C   UNL     1      -1.576  -2.038   1.058  0.00  0.00    +0.007 C 
ATOM     26  C   UNL     1      -1.344  -0.569   0.699  0.00  0.00    +0.017 C 
ATOM     27  C   UNL     1      -2.296  -2.127   2.405  0.00  0.00    +0.017 C 
ENDBRANCH   1  25
BRANCH   6  28
ATOM     28  C   UNL     1       4.311  -3.321   1.699  0.00  0.00    +0.210 C 
BRANCH  28  29
ATOM     29  C   UNL     1       4.836  -1.935   1.423  0.00  0.00    +0.231 C 
ATOM     30  O   UNL     1       4.218  -0.965   1.807  0.00  0.00    -0.274 OA
ATOM     31  N   UNL     1       5.992  -1.774   0.749  0.00  0.00    -0.316 N 
ATOM     32  H   UNL     1       6.486  -2.550   0.442  0.00  0.00    +0.149 HD
BRANCH  31  33
ATOM     33  C   UNL     1       6.502  -0.428   0.481  0.00  0.00    +0.085 C 
BRANCH  33  34
ATOM     34  C   UNL     1       7.818  -0.526  -0.293  0.00  0.00    -0.061 C 
BRANCH  34  35
ATOM     35  N   UNL     1       8.330   0.825  -0.562  0.00  0.00    +0.377 N 
ATOM     36  C   UNL     1       8.673   1.481   0.707  0.00  0.00    -0.097 C 
ATOM     37  C   UNL     1       9.528   0.735  -1.407  0.00  0.00    -0.097 C 
ATOM     38  H   UNL     1       7.622   1.363  -1.039  0.00  0.00    -0.083 HD
ENDBRANCH  34  35
ENDBRANCH  33  34
ENDBRANCH  31  33
ENDBRANCH  28  29
ENDBRANCH   6  28
TORSDOF 8
