REMARK  Name = ZINC19941255
REMARK  10 active torsions:
REMARK  status: ('A' for Active; 'I' for Inactive)
REMARK    1  A    between atoms: C_1  and  C_2
REMARK    2  A    between atoms: C_5  and  N_8
REMARK    3  A    between atoms: N_8  and  C_9
REMARK    4  A    between atoms: C_9  and  C_10
REMARK    5  A    between atoms: N_12  and  C_13
REMARK    6  A    between atoms: C_19  and  C_21
REMARK    7  A    between atoms: C_21  and  S_22
REMARK    8  A    between atoms: S_22  and  C_24
REMARK    9  A    between atoms: C_24  and  C_25
REMARK   10  A    between atoms: N_27  and  C_28
REMARK                            x       y       z     vdW  Elec       q    Type
REMARK                         _______ _______ _______ _____ _____    ______ ____
ROOT
ATOM      1  N   UNL     1       4.680   0.472   1.463  0.00  0.00    -0.262 N 
ATOM      2  C   UNL     1       5.449  -0.427   0.818  0.00  0.00    +0.233 C 
ATOM      3  O   UNL     1       5.194  -0.732  -0.328  0.00  0.00    -0.274 OA
ENDROOT
BRANCH   1   8
ATOM      4  C   UNL     1       5.644   1.621   6.935  0.00  0.00    +0.044 C 
ATOM      5  C   UNL     1       5.388   1.315   5.481  0.00  0.00    -0.050 A 
ATOM      6  C   UNL     1       5.626   2.282   4.521  0.00  0.00    +0.005 A 
ATOM      7  C   UNL     1       5.392   2.005   3.188  0.00  0.00    +0.024 A 
ATOM      8  C   UNL     1       4.918   0.755   2.813  0.00  0.00    +0.037 A 
ATOM      9  C   UNL     1       4.675  -0.211   3.780  0.00  0.00    +0.024 A 
ATOM     10  C   UNL     1       4.916   0.070   5.111  0.00  0.00    +0.005 A 
ENDBRANCH   1   8
BRANCH   1  11
ATOM     11  C   UNL     1       3.595   1.153   0.752  0.00  0.00    +0.209 C 
BRANCH  11  12
ATOM     12  C   UNL     1       2.327   0.350   0.884  0.00  0.00    +0.231 C 
ATOM     13  O   UNL     1       2.329  -0.689   1.510  0.00  0.00    -0.274 OA
ATOM     14  N   UNL     1       1.190   0.786   0.306  0.00  0.00    -0.311 N 
ATOM     15  H   UNL     1       1.188   1.728  -0.262  0.00  0.00    +0.149 HD
BRANCH  14  16
ATOM     16  C   UNL     1      -0.043   0.005   0.434  0.00  0.00    +0.073 C 
ATOM     17  C   UNL     1      -0.743   0.369   1.744  0.00  0.00    +0.022 C 
ATOM     18  C   UNL     1      -2.031  -0.446   1.878  0.00  0.00    +0.002 C 
ATOM     19  C   UNL     1      -2.957  -0.133   0.701  0.00  0.00    +0.000 C 
ATOM     20  C   UNL     1      -2.257  -0.497  -0.610  0.00  0.00    +0.002 C 
ATOM     21  C   UNL     1      -0.969   0.318  -0.743  0.00  0.00    +0.022 C 
ENDBRANCH  14  16
ENDBRANCH  11  12
ENDBRANCH   1  11
BRANCH   2  22
ATOM     22  C   UNL     1       6.626  -1.054   1.520  0.00  0.00    +0.200 C 
BRANCH  22  23
ATOM     23  S   UNL     1       7.555  -2.078   0.345  0.00  0.00    +0.040 S 
ATOM     24  O   UNL     1       8.079  -1.256  -0.688  0.00  0.00    -0.256 OA
BRANCH  23  25
ATOM     25  C   UNL     1       8.919  -2.751   1.334  0.00  0.00    +0.200 C 
BRANCH  25  26
ATOM     26  C   UNL     1       9.780  -3.633   0.467  0.00  0.00    +0.230 C 
ATOM     27  O   UNL     1       9.501  -3.792  -0.703  0.00  0.00    -0.274 OA
ATOM     28  N   UNL     1      10.861  -4.245   0.991  0.00  0.00    -0.285 N 
ATOM     29  H   UNL     1      11.162  -4.036   2.028  0.00  0.00    +0.155 HD
BRANCH  28  30
ATOM     30  C   UNL     1      11.600  -5.147   0.214  0.00  0.00    +0.037 A 
ATOM     31  C   UNL     1      12.170  -6.267   0.805  0.00  0.00    +0.027 A 
ATOM     32  C   UNL     1      12.896  -7.159   0.040  0.00  0.00    +0.051 A 
ATOM     33  C   UNL     1      13.066  -6.935  -1.316  0.00  0.00    +0.166 A 
ATOM     34  C   UNL     1      12.500  -5.809  -1.911  0.00  0.00    +0.168 A 
ATOM     35  C   UNL     1      11.768  -4.918  -1.144  0.00  0.00    +0.072 A 
ATOM     36  O   UNL     1      12.808  -5.817  -3.241  0.00  0.00    -0.453 OA
ATOM     37  C   UNL     1      13.907  -6.737  -3.376  0.00  0.00    +0.466 C 
ATOM     38  O   UNL     1      13.729  -7.647  -2.275  0.00  0.00    -0.453 OA
ENDBRANCH  28  30
ENDBRANCH  25  26
ENDBRANCH  23  25
ENDBRANCH  22  23
ENDBRANCH   2  22
TORSDOF 9
