REMARK  Name = ZINC11816475
REMARK  3 active torsions:
REMARK  status: ('A' for Active; 'I' for Inactive)
REMARK    1  A    between atoms: C_8  and  N_53
REMARK    2  A    between atoms: C_13  and  N_16
REMARK    3  A    between atoms: C_17  and  C_19
REMARK                            x       y       z     vdW  Elec       q    Type
REMARK                         _______ _______ _______ _____ _____    ______ ____
ROOT
ATOM      1  C   UNL     1      -3.967  -5.237   0.795  0.00  0.00    -0.078 C 
ATOM      2  C   UNL     1      -4.252  -3.886   1.455  0.00  0.00    -0.017 C 
ATOM      3  C   UNL     1      -2.975  -3.040   1.451  0.00  0.00    +0.018 C 
ATOM      4  C   UNL     1      -2.487  -2.874   0.009  0.00  0.00    +0.057 C 
ATOM      5  C   UNL     1      -2.253  -4.255  -0.608  0.00  0.00    -0.056 C 
ATOM      6  N   UNL     1      -3.525  -5.008  -0.597  0.00  0.00    +0.383 N 
ATOM      7  H   UNL     1      -4.241  -4.459  -1.087  0.00  0.00    -0.081 HD
ENDROOT
BRANCH   6  15
ATOM      8  C   UNL     1      -5.387  -9.372  -4.296  0.00  0.00    +0.000 A 
ATOM      9  C   UNL     1      -4.509  -8.777  -5.182  0.00  0.00    +0.000 A 
ATOM     10  C   UNL     1      -3.744  -7.700  -4.776  0.00  0.00    +0.004 A 
ATOM     11  C   UNL     1      -3.854  -7.216  -3.483  0.00  0.00    -0.046 A 
ATOM     12  C   UNL     1      -4.733  -7.811  -2.598  0.00  0.00    -0.046 A 
ATOM     13  C   UNL     1      -5.499  -8.890  -3.007  0.00  0.00    +0.004 A 
ATOM     14  C   UNL     1      -4.669  -7.104  -1.260  0.00  0.00    +0.020 C 
ATOM     15  C   UNL     1      -3.352  -6.301  -1.291  0.00  0.00    -0.060 C 
ATOM     16  C   UNL     1      -3.141  -6.068  -2.802  0.00  0.00    +0.020 C 
ENDBRANCH   6  15
BRANCH   4  17
ATOM     17  N   UNL     1      -1.234  -2.116   0.002  0.00  0.00    -0.309 N 
ATOM     18  C   UNL     1      -1.261  -0.768   0.009  0.00  0.00    +0.265 C 
ATOM     19  O   UNL     1      -2.326  -0.182   0.022  0.00  0.00    -0.268 OA
ATOM     20  H   UNL     1      -0.384  -2.583  -0.008  0.00  0.00    +0.149 HD
BRANCH  18  21
ATOM     21  C   UNL     1       0.002  -0.004   0.002  0.00  0.00    +0.153 A 
ATOM     22  C   UNL     1      -0.018   1.468   0.010  0.00  0.00    +0.020 A 
ATOM     23  C   UNL     1      -1.197   2.205   0.031  0.00  0.00    +0.011 A 
ATOM     24  C   UNL     1      -1.134   3.582   0.033  0.00  0.00    +0.001 A 
ATOM     25  C   UNL     1       0.091   4.238   0.025  0.00  0.00    +0.001 A 
ATOM     26  C   UNL     1       1.271   3.526   0.009  0.00  0.00    +0.014 A 
ATOM     27  C   UNL     1       1.229   2.135   0.002  0.00  0.00    +0.050 A 
ATOM     28  C   UNL     1       2.437   1.300  -0.014  0.00  0.00    +0.272 A 
ATOM     29  O   UNL     1       3.545   1.806  -0.022  0.00  0.00    -0.266 OA
ATOM     30  N   UNL     1       2.292  -0.041  -0.020  0.00  0.00    -0.242 N 
ATOM     31  H   UNL     1       3.091  -0.590  -0.031  0.00  0.00    +0.192 HD
ATOM     32  N   UNL     1       1.155  -0.628  -0.012  0.00  0.00    -0.166 NA
ENDBRANCH  18  21
ENDBRANCH   4  17
TORSDOF 3
