REMARK  Name = ZINC39164366
REMARK  6 active torsions:
REMARK  status: ('A' for Active; 'I' for Inactive)
REMARK    1  A    between atoms: C_1  and  C_2
REMARK    2  A    between atoms: C_2  and  C_3
REMARK    3  A    between atoms: C_9  and  S_20
REMARK    4  A    between atoms: N_11  and  C_14
REMARK    5  A    between atoms: S_20  and  C_21
REMARK    6  A    between atoms: C_21  and  C_22
REMARK                            x       y       z     vdW  Elec       q    Type
REMARK                         _______ _______ _______ _____ _____    ______ ____
ROOT
ATOM      1  C   UNL     1      -1.263  -0.314  -1.021  0.00  0.00    +0.076 C 
ATOM      2  C   UNL     1      -1.055  -1.818  -0.976  0.00  0.00    +0.003 C 
ATOM      3  C   UNL     1      -2.051  -2.582  -1.385  0.00  0.00    +0.066 C 
ATOM      4  C   UNL     1      -3.311  -1.899  -1.829  0.00  0.00    +0.107 C 
ATOM      5  N   UNL     1      -4.422  -2.514  -2.018  0.00  0.00    -0.243 NA
ATOM      6  C   UNL     1      -4.521  -3.937  -1.680  0.00  0.00    +0.260 C 
ATOM      7  N   UNL     1      -3.255  -4.646  -1.715  0.00  0.00    -0.236 N 
ATOM      8  C   UNL     1      -2.051  -4.079  -1.483  0.00  0.00    +0.255 C 
ATOM      9  O   UNL     1      -1.036  -4.737  -1.363  0.00  0.00    -0.269 OA
ATOM     10  S   UNL     1      -2.834  -0.201  -1.981  0.00  0.00    -0.098 S 
ENDROOT
BRANCH   7  11
ATOM     11  C   UNL     1      -3.284  -6.013  -2.011  0.00  0.00    +0.039 A 
ATOM     12  C   UNL     1      -3.358  -6.945  -0.984  0.00  0.00    +0.023 A 
ATOM     13  C   UNL     1      -3.387  -8.294  -1.279  0.00  0.00    +0.002 A 
ATOM     14  C   UNL     1      -3.342  -8.716  -2.595  0.00  0.00    +0.000 A 
ATOM     15  C   UNL     1      -3.268  -7.791  -3.619  0.00  0.00    +0.002 A 
ATOM     16  C   UNL     1      -3.245  -6.440  -3.332  0.00  0.00    +0.023 A 
ENDBRANCH   7  11
BRANCH   1  18
ATOM     17  C   UNL     1      -0.297   1.896  -1.675  0.00  0.00    +0.005 C 
ATOM     18  C   UNL     1      -0.116   0.379  -1.759  0.00  0.00    +0.015 C 
ENDBRANCH   1  18
BRANCH   6  19
ATOM     19  S   UNL     1      -5.216  -4.086  -0.010  0.00  0.00    -0.109 S 
BRANCH  19  20
ATOM     20  C   UNL     1      -4.028  -3.204   1.039  0.00  0.00    +0.130 C 
BRANCH  20  21
ATOM     21  C   UNL     1      -4.491  -3.253   2.473  0.00  0.00    +0.077 A 
ATOM     22  C   UNL     1      -4.165  -4.242   3.406  0.00  0.00    +0.097 A 
ATOM     23  C   UNL     1      -4.776  -3.926   4.578  0.00  0.00    +0.266 A 
ATOM     24  N   UNL     1      -5.462  -2.778   4.385  0.00  0.00    -0.243 N 
ATOM     25  N   UNL     1      -5.263  -2.374   3.059  0.00  0.00    -0.175 NA
ATOM     26  O   UNL     1      -4.710  -4.636   5.733  0.00  0.00    -0.266 OA
ATOM     27  H   UNL     1      -5.996  -2.314   5.049  0.00  0.00    +0.192 HD
ENDBRANCH  20  21
ENDBRANCH  19  20
ENDBRANCH   6  19
TORSDOF 5
