REMARK  Name = ZINC48302087
REMARK  5 active torsions:
REMARK  status: ('A' for Active; 'I' for Inactive)
REMARK    1  A    between atoms: C_1  and  C_2
REMARK    2  A    between atoms: C_8  and  C_10
REMARK    3  A    between atoms: N_15  and  C_17
REMARK    4  A    between atoms: C_17  and  C_18
REMARK    5  A    between atoms: C_23  and  C_28
REMARK                            x       y       z     vdW  Elec       q    Type
REMARK                         _______ _______ _______ _____ _____    ______ ____
ROOT
ATOM      1  C   UNL     1       0.219  -5.204   2.833  0.00  0.00    +0.089 C 
ATOM      2  C   UNL     1       1.456  -4.919   3.688  0.00  0.00    +0.015 C 
ATOM      3  C   UNL     1       1.435  -5.828   4.920  0.00  0.00    +0.016 C 
ATOM      4  C   UNL     1       1.386  -7.289   4.469  0.00  0.00    +0.085 C 
ATOM      5  N   UNL     1       0.184  -7.511   3.655  0.00  0.00    -0.296 NA
ATOM      6  C   UNL     1       0.204  -6.684   2.442  0.00  0.00    +0.097 C 
ENDROOT
BRANCH   1  14
ATOM      7  C   UNL     1       0.413   1.183  -0.848  0.00  0.00    +0.066 C 
ATOM      8  C   UNL     1       0.383  -0.319  -0.730  0.00  0.00    +0.047 A 
ATOM      9  C   UNL     1       0.394  -1.115  -1.827  0.00  0.00    +0.071 A 
ATOM     10  S   UNL     1       0.349  -2.730  -1.066  0.00  0.00    -0.060 S 
ATOM     11  C   UNL     1       0.322  -2.229   0.540  0.00  0.00    +0.165 A 
ATOM     12  N   UNL     1       0.352  -0.917   0.446  0.00  0.00    -0.230 NA
ATOM     13  N   UNL     1       0.283  -3.012   1.689  0.00  0.00    -0.264 N 
ATOM     14  C   UNL     1       0.261  -4.356   1.588  0.00  0.00    +0.223 C 
ATOM     15  O   UNL     1       0.277  -4.882   0.495  0.00  0.00    -0.275 OA
ATOM     16  H   UNL     1       0.270  -2.591   2.562  0.00  0.00    +0.157 HD
ENDBRANCH   1  14
BRANCH   5  17
ATOM     17  C   UNL     1       0.031  -8.933   3.320  0.00  0.00    +0.137 C 
BRANCH  17  18
ATOM     18  C   UNL     1      -1.373  -9.186   2.833  0.00  0.00    +0.037 A 
ATOM     19  C   UNL     1      -1.603  -9.588   1.534  0.00  0.00    +0.093 A 
ATOM     20  C   UNL     1      -2.909  -9.818   1.102  0.00  0.00    +0.259 A 
ATOM     21  O   UNL     1      -3.119 -10.175  -0.047  0.00  0.00    -0.267 OA
ATOM     22  N   UNL     1      -3.954  -9.643   1.965  0.00  0.00    -0.261 N 
ATOM     23  C   UNL     1      -5.287  -9.828   1.690  0.00  0.00    +0.033 A 
ATOM     24  C   UNL     1      -6.217  -9.624   2.623  0.00  0.00    +0.070 A 
ATOM     25  S   UNL     1      -5.227  -9.132   4.025  0.00  0.00    -0.059 S 
ATOM     26  C   UNL     1      -3.635  -9.242   3.235  0.00  0.00    +0.158 A 
ATOM     27  N   UNL     1      -2.411  -9.030   3.649  0.00  0.00    -0.337 N 
ATOM     28  C   UNL     1      -5.705 -10.269   0.311  0.00  0.00    +0.064 C 
ATOM     29  H   UNL     1      -2.260  -8.750   4.566  0.00  0.00    +0.168 HD
ENDBRANCH  17  18
ENDBRANCH   5  17
TORSDOF 3
