REMARK  Name = ZINC14979644
REMARK  8 active torsions:
REMARK  status: ('A' for Active; 'I' for Inactive)
REMARK    1  A    between atoms: C_6  and  C_7
REMARK    2  A    between atoms: C_7  and  C_8
REMARK    3  A    between atoms: C_8  and  N_9
REMARK    4  A    between atoms: C_10  and  S_12
REMARK    5  A    between atoms: S_12  and  C_13
REMARK    6  A    between atoms: C_13  and  C_14
REMARK    7  A    between atoms: C_14  and  C_15
REMARK    8  A    between atoms: C_15  and  C_16
REMARK                            x       y       z     vdW  Elec       q    Type
REMARK                         _______ _______ _______ _____ _____    ______ ____
ROOT
ATOM      1  N   UNL     1      -3.004  -1.778  -1.420  0.00  0.00    -0.368 N 
ATOM      2  C   UNL     1      -3.575  -2.106  -2.546  0.00  0.00    +0.125 C 
ATOM      3  N   UNL     1      -4.757  -2.809  -2.538  0.00  0.00    -0.339 N 
ATOM      4  H   UNL     1      -5.166  -3.062  -1.695  0.00  0.00    +0.144 HD
ATOM      5  H   UNL     1      -5.183  -3.053  -3.375  0.00  0.00    +0.144 HD
ATOM      6  H   UNL     1      -3.412  -2.030  -0.577  0.00  0.00    +0.161 HD
ENDROOT
BRANCH   1   7
ATOM      7  C   UNL     1      -1.745  -1.028  -1.429  0.00  0.00    +0.119 C 
BRANCH   7   8
ATOM      8  C   UNL     1      -1.293  -0.775   0.011  0.00  0.00    +0.056 C 
BRANCH   8  14
ATOM      9  C   UNL     1      -0.017   1.378   0.010  0.00  0.00    +0.005 A 
ATOM     10  C   UNL     1       1.171   2.086   0.002  0.00  0.00    +0.014 A 
ATOM     11  C   UNL     1       2.378   1.411  -0.013  0.00  0.00    +0.013 A 
ATOM     12  C   UNL     1       2.396   0.028  -0.021  0.00  0.00    +0.014 A 
ATOM     13  C   UNL     1       1.208  -0.679  -0.013  0.00  0.00    +0.005 A 
ATOM     14  C   UNL     1       0.002  -0.004   0.002  0.00  0.00    -0.046 A 
ATOM     15  I   UNL     1       4.178   2.482  -0.025  0.00  0.00    -0.044 I 
ENDBRANCH   8  14
ENDBRANCH   7   8
ENDBRANCH   1   7
BRANCH   2  16
ATOM     16  S   UNL     1      -2.834  -1.647  -4.077  0.00  0.00    -0.093 S 
BRANCH  16  17
ATOM     17  C   UNL     1      -3.967  -2.307  -5.329  0.00  0.00    +0.077 C 
BRANCH  17  18
ATOM     18  C   UNL     1      -3.436  -1.975  -6.725  0.00  0.00    +0.017 C 
BRANCH  18  19
ATOM     19  C   UNL     1      -4.392  -2.532  -7.781  0.00  0.00    +0.055 C 
BRANCH  19  20
ATOM     20  C   UNL     1      -3.868  -2.205  -9.156  0.00  0.00    +0.033 A 
ATOM     21  C   UNL     1      -4.069  -1.054  -9.826  0.00  0.00    +0.105 A 
ATOM     22  N   UNL     1      -3.422  -1.177 -11.026  0.00  0.00    -0.352 N 
ATOM     23  C   UNL     1      -2.848  -2.399 -11.048  0.00  0.00    +0.171 A 
ATOM     24  N   UNL     1      -3.115  -3.006  -9.924  0.00  0.00    -0.350 N 
ATOM     25  H   UNL     1      -3.383  -0.510 -11.729  0.00  0.00    +0.166 HD
ATOM     26  H   UNL     1      -2.817  -3.897  -9.683  0.00  0.00    +0.166 HD
ENDBRANCH  19  20
ENDBRANCH  18  19
ENDBRANCH  17  18
ENDBRANCH  16  17
ENDBRANCH   2  16
TORSDOF 8
