REMARK  Name = ZINC37089070
REMARK  7 active torsions:
REMARK  status: ('A' for Active; 'I' for Inactive)
REMARK    1  A    between atoms: C_3  and  O_29
REMARK    2  A    between atoms: C_4  and  N_10
REMARK    3  A    between atoms: C_6  and  N_7
REMARK    4  A    between atoms: N_10  and  C_11
REMARK    5  A    between atoms: C_11  and  N_13
REMARK    6  A    between atoms: C_14  and  C_16
REMARK    7  A    between atoms: C_19  and  C_21
REMARK                            x       y       z     vdW  Elec       q    Type
REMARK                         _______ _______ _______ _____ _____    ______ ____
ROOT
ATOM      1  N   UNL     1       4.818  -2.657   0.143  0.00  0.00    -0.261 N 
ATOM      2  C   UNL     1       4.838  -4.001   0.237  0.00  0.00    +0.285 C 
ATOM      3  O   UNL     1       3.794  -4.627   0.245  0.00  0.00    -0.266 OA
ATOM      4  H   UNL     1       5.651  -2.159   0.137  0.00  0.00    +0.157 HD
ENDROOT
BRANCH   2   5
ATOM      5  C   UNL     1       6.116  -4.709   0.331  0.00  0.00    +0.190 A 
ATOM      6  C   UNL     1       6.280  -6.075   0.426  0.00  0.00    +0.055 A 
ATOM      7  C   UNL     1       7.656  -6.312   0.492  0.00  0.00    +0.051 A 
ATOM      8  C   UNL     1       8.277  -5.097   0.436  0.00  0.00    +0.137 A 
ATOM      9  O   UNL     1       7.340  -4.140   0.333  0.00  0.00    -0.450 OA
BRANCH   8  10
ATOM     10  C   UNL     1       9.736  -4.873   0.476  0.00  0.00    +0.037 A 
ATOM     11  C   UNL     1      10.511  -5.476   1.468  0.00  0.00    +0.033 A 
ATOM     12  C   UNL     1      11.874  -5.263   1.500  0.00  0.00    +0.042 A 
ATOM     13  C   UNL     1      12.474  -4.452   0.549  0.00  0.00    +0.021 A 
ATOM     14  C   UNL     1      11.712  -3.851  -0.436  0.00  0.00    +0.022 A 
ATOM     15  C   UNL     1      10.348  -4.061  -0.483  0.00  0.00    +0.052 A 
ATOM     16 CL   UNL     1       9.394  -3.312  -1.726  0.00  0.00    -0.083 Cl
ATOM     17 CL   UNL     1      12.840  -6.011   2.733  0.00  0.00    -0.084 Cl
ENDBRANCH   8  10
ENDBRANCH   2   5
BRANCH   1  18
ATOM     18  C   UNL     1       3.642  -2.005   0.057  0.00  0.00    +0.141 C 
ATOM     19  S   UNL     1       2.173  -2.885   0.068  0.00  0.00    -0.018 S 
BRANCH  18  20
ATOM     20  N   UNL     1       3.622  -0.661  -0.037  0.00  0.00    -0.294 N 
ATOM     21  H   UNL     1       4.454  -0.167  -0.106  0.00  0.00    +0.154 HD
BRANCH  20  25
ATOM     22  C   UNL     1      -0.018   1.376  -0.034  0.00  0.00    +0.036 A 
ATOM     23  C   UNL     1       1.013   1.811   0.778  0.00  0.00    +0.049 A 
ATOM     24  C   UNL     1       2.224   1.139   0.781  0.00  0.00    +0.138 A 
ATOM     25  C   UNL     1       2.399   0.023  -0.036  0.00  0.00    +0.077 A 
ATOM     26  C   UNL     1       1.360  -0.408  -0.847  0.00  0.00    +0.059 A 
ATOM     27  C   UNL     1       0.155   0.270  -0.844  0.00  0.00    +0.128 A 
BRANCH  27  28
ATOM     28  N   UNL     1      -0.953  -0.191  -1.711  0.00  0.00    +0.056 N 
ATOM     29  O   UNL     1      -2.007   0.400  -1.710  0.00  0.00    -0.126 OA
ATOM     30  O   UNL     1      -0.803  -1.159  -2.420  0.00  0.00    -0.126 OA
ENDBRANCH  27  28
BRANCH  24  31
ATOM     31  O   UNL     1       3.239   1.566   1.578  0.00  0.00    -0.505 OA
ATOM     32  H   UNL     1       3.242   1.168   2.459  0.00  0.00    +0.292 HD
ENDBRANCH  24  31
ENDBRANCH  20  25
ENDBRANCH  18  20
ENDBRANCH   1  18
TORSDOF 7
