REMARK  Name = ZINC12716303
REMARK  9 active torsions:
REMARK  status: ('A' for Active; 'I' for Inactive)
REMARK    1  A    between atoms: C_10  and  C_11
REMARK    2  A    between atoms: C_10  and  N_55
REMARK    3  A    between atoms: C_11  and  C_13
REMARK    4  A    between atoms: C_11  and  O_26
REMARK    5  A    between atoms: C_13  and  O_14
REMARK    6  A    between atoms: O_14  and  C_15
REMARK    7  A    between atoms: C_20  and  C_21
REMARK    8  A    between atoms: C_21  and  N_57
REMARK    9  A    between atoms: C_22  and  N_57
REMARK                            x       y       z     vdW  Elec       q    Type
REMARK                         _______ _______ _______ _____ _____    ______ ____
ROOT
ATOM      1  C   UNL     1       1.294   1.897   0.169  0.00  0.00    +0.258 C 
ENDROOT
BRANCH   1   2
ATOM      2  C   UNL     1      -0.118   1.309   0.132  0.00  0.00    +0.135 C 
BRANCH   2   3
ATOM      3  O   UNL     1      -0.911   1.906   1.160  0.00  0.00    -0.390 OA
ATOM      4  H   UNL     1      -1.000   2.866   1.080  0.00  0.00    +0.210 HD
ENDBRANCH   2   3
BRANCH   2   5
ATOM      5  C   UNL     1      -0.753   1.593  -1.232  0.00  0.00    -0.043 C 
BRANCH   5  15
ATOM      6  C   UNL     1      -6.682  -0.371  -2.751  0.00  0.00    +0.000 A 
ATOM      7  C   UNL     1      -6.448   0.850  -3.357  0.00  0.00    +0.000 A 
ATOM      8  C   UNL     1      -5.213   1.455  -3.231  0.00  0.00    +0.002 A 
ATOM      9  C   UNL     1      -4.205   0.845  -2.499  0.00  0.00    -0.061 A 
ATOM     10  C   UNL     1      -4.439  -0.371  -1.893  0.00  0.00    -0.048 A 
ATOM     11  C   UNL     1      -5.679  -0.978  -2.021  0.00  0.00    +0.004 A 
ATOM     12  C   UNL     1      -3.377  -1.069  -1.083  0.00  0.00    +0.017 C 
ATOM     13  C   UNL     1      -2.005  -0.475  -1.400  0.00  0.00    -0.074 C 
ATOM     14  C   UNL     1      -2.874   1.542  -2.394  0.00  0.00    -0.043 C 
ATOM     15  N   UNL     1      -2.105   0.993  -1.264  0.00  0.00    +0.384 N 
ATOM     16  H   UNL     1      -2.590   1.216  -0.388  0.00  0.00    -0.081 HD
ENDBRANCH   5  15
ENDBRANCH   2   5
ENDBRANCH   1   2
BRANCH   1  17
ATOM     17  O   UNL     1       1.929   1.533   1.396  0.00  0.00    -0.489 OA
BRANCH  17  18
ATOM     18  C   UNL     1       3.198   1.979   1.590  0.00  0.00    +0.122 A 
ATOM     19  C   UNL     1       3.821   2.747   0.617  0.00  0.00    +0.046 A 
ATOM     20  C   UNL     1       5.109   3.203   0.819  0.00  0.00    +0.004 A 
ATOM     21  C   UNL     1       5.781   2.886   1.985  0.00  0.00    +0.000 A 
ATOM     22  C   UNL     1       5.165   2.117   2.954  0.00  0.00    +0.005 A 
ATOM     23  C   UNL     1       3.875   1.662   2.759  0.00  0.00    -0.023 A 
BRANCH  23  24
ATOM     24  C   UNL     1       3.203   0.824   3.816  0.00  0.00    -0.043 C 
BRANCH  24  25
ATOM     25  N   UNL     1       3.278  -0.597   3.426  0.00  0.00    +0.384 N 
ATOM     26  H   UNL     1       4.264  -0.872   3.337  0.00  0.00    -0.085 HD
ATOM     27  H   UNL     1       2.804  -0.726   2.524  0.00  0.00    -0.085 HD
BRANCH  25  28
ATOM     28  C   UNL     1       2.627  -1.442   4.444  0.00  0.00    -0.071 C 
ATOM     29  C   UNL     1       3.619  -2.259   5.289  0.00  0.00    -0.016 C 
ATOM     30  C   UNL     1       2.622  -3.425   5.191  0.00  0.00    -0.003 C 
ATOM     31  C   UNL     1       2.120  -2.783   3.887  0.00  0.00    -0.016 C 
ENDBRANCH  25  28
ENDBRANCH  24  25
ENDBRANCH  23  24
ENDBRANCH  17  18
ENDBRANCH   1  17
TORSDOF 9
