REMARK  Name = ZINC33611992
REMARK  9 active torsions:
REMARK  status: ('A' for Active; 'I' for Inactive)
REMARK    1  A    between atoms: C_1  and  C_2
REMARK    2  A    between atoms: C_5  and  C_41
REMARK    3  A    between atoms: C_6  and  C_8
REMARK    4  A    between atoms: N_16  and  C_19
REMARK    5  A    between atoms: C_23  and  N_25
REMARK    6  A    between atoms: C_28  and  C_30
REMARK    7  A    between atoms: C_28  and  C_38
REMARK    8  A    between atoms: C_30  and  C_31
REMARK    9  A    between atoms: C_34  and  O_37
REMARK                            x       y       z     vdW  Elec       q    Type
REMARK                         _______ _______ _______ _____ _____    ______ ____
ROOT
ATOM      1  C   UNL     1       0.054  -2.845   2.489  0.00  0.00    -0.026 C 
ATOM      2  C   UNL     1      -1.362  -3.210   2.901  0.00  0.00    +0.077 C 
ATOM      3  C   UNL     1      -1.735  -1.878   3.659  0.00  0.00    +0.086 C 
ATOM      4  C   UNL     1      -3.171  -1.981   3.741  0.00  0.00    +0.229 C 
ATOM      5  O   UNL     1      -3.888  -1.586   4.636  0.00  0.00    -0.275 OA
ATOM      6  N   UNL     1      -3.550  -2.621   2.588  0.00  0.00    -0.210 N 
ATOM      7  C   UNL     1      -2.491  -3.195   1.919  0.00  0.00    +0.229 C 
ATOM      8  O   UNL     1      -2.470  -3.599   0.776  0.00  0.00    -0.275 OA
ATOM      9  C   UNL     1      -0.564  -1.685   4.531  0.00  0.00    +0.052 C 
ATOM     10  N   UNL     1       0.583  -1.980   3.586  0.00  0.00    +0.396 N 
ATOM     11  H   UNL     1       1.313  -2.467   4.083  0.00  0.00    -0.083 HD
ATOM     12  H   UNL     1       0.945  -1.121   3.200  0.00  0.00    -0.083 HD
ENDROOT
BRANCH   1  18
ATOM     13  C   UNL     1      -0.251   1.490   0.006  0.00  0.00    +0.044 C 
ATOM     14  C   UNL     1      -0.109  -0.010  -0.000  0.00  0.00    -0.050 A 
ATOM     15  C   UNL     1       0.006  -0.689  -1.199  0.00  0.00    +0.003 A 
ATOM     16  C   UNL     1       0.136  -2.065  -1.205  0.00  0.00    +0.004 A 
ATOM     17  C   UNL     1       0.151  -2.763  -0.011  0.00  0.00    -0.049 A 
ATOM     18  C   UNL     1       0.037  -2.084   1.188  0.00  0.00    -0.057 A 
ATOM     19  C   UNL     1      -0.088  -0.707   1.193  0.00  0.00    +0.005 A 
ATOM     20  C   UNL     1       0.292  -4.263  -0.017  0.00  0.00    +0.044 C 
ENDBRANCH   1  18
BRANCH   6  21
ATOM     21  C   UNL     1      -4.877  -2.695   2.140  0.00  0.00    +0.046 A 
ATOM     22  C   UNL     1      -5.892  -2.096   2.873  0.00  0.00    +0.024 A 
ATOM     23  C   UNL     1      -7.198  -2.170   2.429  0.00  0.00    +0.004 A 
ATOM     24  C   UNL     1      -7.494  -2.841   1.257  0.00  0.00    +0.033 A 
ATOM     25  C   UNL     1      -6.485  -3.439   0.525  0.00  0.00    +0.128 A 
ATOM     26  C   UNL     1      -5.176  -3.363   0.961  0.00  0.00    +0.056 A 
BRANCH  25  27
ATOM     27  N   UNL     1      -6.807  -4.156  -0.729  0.00  0.00    +0.056 N 
ATOM     28  O   UNL     1      -7.951  -4.219  -1.113  0.00  0.00    -0.126 OA
ATOM     29  O   UNL     1      -5.925  -4.680  -1.369  0.00  0.00    -0.126 OA
ENDBRANCH  25  27
ENDBRANCH   6  21
BRANCH   9  30
ATOM     30  C   UNL     1      -0.592  -2.653   5.686  0.00  0.00    +0.347 C 
ATOM     31  O   UNL     1       0.321  -3.448   5.837  0.00  0.00    -0.248 OA
ATOM     32  O   UNL     1      -1.526  -2.641   6.470  0.00  0.00    -0.248 OA
ENDBRANCH   9  30
BRANCH   9  33
ATOM     33  C   UNL     1      -0.491  -0.241   5.031  0.00  0.00    +0.035 C 
BRANCH  33  34
ATOM     34  C   UNL     1       0.780  -0.046   5.818  0.00  0.00    -0.048 A 
ATOM     35  C   UNL     1       0.790  -0.280   7.180  0.00  0.00    +0.007 A 
ATOM     36  C   UNL     1       1.954  -0.102   7.904  0.00  0.00    +0.045 A 
ATOM     37  C   UNL     1       3.112   0.313   7.262  0.00  0.00    +0.117 A 
ATOM     38  C   UNL     1       3.098   0.546   5.894  0.00  0.00    +0.045 A 
ATOM     39  C   UNL     1       1.934   0.361   5.175  0.00  0.00    +0.007 A 
BRANCH  37  40
ATOM     40  O   UNL     1       4.257   0.489   7.971  0.00  0.00    -0.507 OA
ATOM     41  H   UNL     1       4.809  -0.302   8.031  0.00  0.00    +0.292 HD
ENDBRANCH  37  40
ENDBRANCH  33  34
ENDBRANCH   9  33
TORSDOF 7
