REMARK  Name = ZINC15942927
REMARK  8 active torsions:
REMARK  status: ('A' for Active; 'I' for Inactive)
REMARK    1  A    between atoms: C_1  and  C_2
REMARK    2  A    between atoms: C_5  and  N_8
REMARK    3  A    between atoms: C_9  and  C_35
REMARK    4  A    between atoms: C_11  and  C_34
REMARK    5  A    between atoms: C_20  and  C_23
REMARK    6  A    between atoms: N_25  and  C_26
REMARK    7  A    between atoms: C_26  and  C_27
REMARK    8  A    between atoms: C_32  and  C_33
REMARK                            x       y       z     vdW  Elec       q    Type
REMARK                         _______ _______ _______ _____ _____    ______ ____
ROOT
ATOM      1  N   UNL     1      -0.263  -4.199   0.202  0.00  0.00    -0.236 N 
ATOM      2  C   UNL     1       0.324  -4.973   1.131  0.00  0.00    +0.051 A 
ATOM      3  C   UNL     1       0.144  -6.287   0.761  0.00  0.00    +0.049 A 
ATOM      4  C   UNL     1       0.494  -7.556   1.272  0.00  0.00    +0.072 A 
ATOM      5  N   UNL     1       0.138  -8.634   0.622  0.00  0.00    -0.152 NA
ATOM      6  N   UNL     1      -0.522  -8.647  -0.472  0.00  0.00    -0.132 NA
ATOM      7  C   UNL     1      -0.935  -7.561  -1.097  0.00  0.00    +0.172 A 
ATOM      8  C   UNL     1      -0.620  -6.263  -0.503  0.00  0.00    +0.137 A 
ATOM      9  N   UNL     1      -0.842  -5.001  -0.790  0.00  0.00    -0.163 NA
ATOM     10  N   UNL     1      -1.648  -7.648  -2.282  0.00  0.00    -0.312 N 
ATOM     11  C   UNL     1      -2.099  -6.434  -2.975  0.00  0.00    +0.107 C 
ATOM     12  C   UNL     1      -3.608  -6.538  -3.220  0.00  0.00    +0.031 C 
ATOM     13  C   UNL     1      -3.910  -7.838  -3.969  0.00  0.00    +0.078 C 
ATOM     14  C   UNL     1      -3.476  -9.032  -3.116  0.00  0.00    +0.031 C 
ATOM     15  C   UNL     1      -1.961  -8.956  -2.873  0.00  0.00    +0.107 C 
ATOM     16  C   UNL     1       1.274  -7.668   2.557  0.00  0.00    +0.068 C 
ATOM     17  C   UNL     1       1.050  -4.489   2.360  0.00  0.00    +0.066 C 
ENDROOT
BRANCH   1  22
ATOM     18  C   UNL     1      -0.397   1.473   0.296  0.00  0.00    +0.044 C 
ATOM     19  C   UNL     1      -0.361  -0.033   0.271  0.00  0.00    -0.050 A 
ATOM     20  C   UNL     1      -0.269  -0.701  -0.936  0.00  0.00    +0.005 A 
ATOM     21  C   UNL     1      -0.236  -2.081  -0.963  0.00  0.00    +0.028 A 
ATOM     22  C   UNL     1      -0.295  -2.799   0.225  0.00  0.00    +0.066 A 
ATOM     23  C   UNL     1      -0.388  -2.125   1.436  0.00  0.00    +0.028 A 
ATOM     24  C   UNL     1      -0.415  -0.744   1.456  0.00  0.00    +0.005 A 
ENDBRANCH   1  22
BRANCH  13  25
ATOM     25  C   UNL     1      -5.390  -7.927  -4.242  0.00  0.00    +0.216 C 
ATOM     26  O   UNL     1      -6.129  -7.039  -3.874  0.00  0.00    -0.276 OA
ATOM     27  N   UNL     1      -5.891  -8.994  -4.895  0.00  0.00    -0.311 N 
ATOM     28  H   UNL     1      -5.300  -9.705  -5.189  0.00  0.00    +0.149 HD
BRANCH  27  29
ATOM     29  C   UNL     1      -7.329  -9.081  -5.160  0.00  0.00    +0.139 C 
BRANCH  29  30
ATOM     30  C   UNL     1      -7.628 -10.361  -5.897  0.00  0.00    -0.027 A 
ATOM     31  C   UNL     1      -7.805 -10.344  -7.269  0.00  0.00    +0.005 A 
ATOM     32  C   UNL     1      -8.078 -11.518  -7.944  0.00  0.00    +0.000 A 
ATOM     33  C   UNL     1      -8.175 -12.710  -7.250  0.00  0.00    +0.000 A 
ATOM     34  C   UNL     1      -7.997 -12.727  -5.879  0.00  0.00    +0.003 A 
ATOM     35  C   UNL     1      -7.719 -11.553  -5.204  0.00  0.00    -0.046 A 
ATOM     36  C   UNL     1      -7.520 -11.573  -3.710  0.00  0.00    +0.044 C 
ENDBRANCH  29  30
ENDBRANCH  27  29
ENDBRANCH  13  25
TORSDOF 4
