REMARK  Name = ZINC12740186
REMARK  7 active torsions:
REMARK  status: ('A' for Active; 'I' for Inactive)
REMARK    1  A    between atoms: C_1  and  C_2
REMARK    2  A    between atoms: C_5  and  C_8
REMARK    3  A    between atoms: C_8  and  C_10
REMARK    4  A    between atoms: C_8  and  N_15
REMARK    5  A    between atoms: C_16  and  C_18
REMARK    6  A    between atoms: C_18  and  C_19
REMARK    7  A    between atoms: C_19  and  C_20
REMARK                            x       y       z     vdW  Elec       q    Type
REMARK                         _______ _______ _______ _____ _____    ______ ____
ROOT
ATOM      1  N   UNL     1       0.959  -4.758   1.029  0.00  0.00    -0.304 N 
ATOM      2  C   UNL     1       1.534  -5.972   0.919  0.00  0.00    +0.214 C 
ATOM      3  O   UNL     1       1.306  -6.665  -0.050  0.00  0.00    -0.276 OA
ATOM      4  H   UNL     1       1.142  -4.204   1.804  0.00  0.00    +0.150 HD
ENDROOT
BRANCH   1   5
ATOM      5  C   UNL     1       0.059  -4.275  -0.021  0.00  0.00    +0.140 C 
BRANCH   5  10
ATOM      6  C   UNL     1      -0.018   1.503   0.010  0.00  0.00    +0.044 C 
ATOM      7  C   UNL     1       0.002  -0.004   0.002  0.00  0.00    -0.050 A 
ATOM      8  C   UNL     1       0.006  -0.689  -1.199  0.00  0.00    +0.004 A 
ATOM      9  C   UNL     1       0.025  -2.071  -1.206  0.00  0.00    +0.006 A 
ATOM     10  C   UNL     1       0.040  -2.768  -0.013  0.00  0.00    -0.022 A 
ATOM     11  C   UNL     1       0.037  -2.084   1.188  0.00  0.00    +0.006 A 
ATOM     12  C   UNL     1       0.023  -0.702   1.195  0.00  0.00    +0.004 A 
ENDBRANCH   5  10
BRANCH   5  13
ATOM     13  C   UNL     1      -1.332  -4.797   0.230  0.00  0.00    +0.014 A 
ATOM     14  C   UNL     1      -2.241  -5.266  -0.659  0.00  0.00    +0.013 A 
ATOM     15  C   UNL     1      -3.470  -5.698  -0.196  0.00  0.00    +0.008 A 
ATOM     16  C   UNL     1      -3.729  -5.641   1.133  0.00  0.00    +0.045 A 
ATOM     17  S   UNL     1      -2.207  -4.965   1.777  0.00  0.00    -0.099 S 
ENDBRANCH   5  13
ENDBRANCH   1   5
BRANCH   2  18
ATOM     18  C   UNL     1       2.460  -6.468   1.999  0.00  0.00    +0.103 C 
BRANCH  18  19
ATOM     19  C   UNL     1       2.972  -7.862   1.632  0.00  0.00    +0.083 C 
BRANCH  19  20
ATOM     20  C   UNL     1       3.898  -8.359   2.712  0.00  0.00    +0.112 A 
ATOM     21  N   UNL     1       4.466  -9.574   2.579  0.00  0.00    -0.337 N 
ATOM     22  H   UNL     1       4.276 -10.113   1.796  0.00  0.00    +0.168 HD
ATOM     23  C   UNL     1       5.305 -10.047   3.538  0.00  0.00    +0.092 A 
ATOM     24  C   UNL     1       5.598  -9.296   4.676  0.00  0.00    +0.075 A 
ATOM     25  C   UNL     1       6.519  -9.914   5.642  0.00  0.00    -0.023 A 
ATOM     26  C   UNL     1       6.988 -11.135   5.335  0.00  0.00    -0.004 A 
ATOM     27  S   UNL     1       6.242 -11.532   3.771  0.00  0.00    -0.075 S 
ATOM     28  C   UNL     1       7.923 -11.666   6.388  0.00  0.00    +0.043 C 
ATOM     29  C   UNL     1       8.322 -10.423   7.214  0.00  0.00    +0.010 C 
ATOM     30  C   UNL     1       7.112  -9.496   6.990  0.00  0.00    +0.037 C 
ATOM     31  C   UNL     1       4.937  -7.974   4.750  0.00  0.00    +0.282 A 
ATOM     32  O   UNL     1       5.126  -7.237   5.704  0.00  0.00    -0.265 OA
ATOM     33  N   UNL     1       4.129  -7.598   3.746  0.00  0.00    -0.195 NA
ENDBRANCH  19  20
ENDBRANCH  18  19
ENDBRANCH   2  18
TORSDOF 6
