REMARK  Name = ZINC02801619
REMARK  8 active torsions:
REMARK  status: ('A' for Active; 'I' for Inactive)
REMARK    1  A    between atoms: C_1  and  C_2
REMARK    2  A    between atoms: C_3  and  C_27
REMARK    3  A    between atoms: C_5  and  C_25
REMARK    4  A    between atoms: C_7  and  C_10
REMARK    5  A    between atoms: N_12  and  C_13
REMARK    6  A    between atoms: C_14  and  C_21
REMARK    7  A    between atoms: C_21  and  O_23
REMARK    8  A    between atoms: O_23  and  C_24
REMARK                            x       y       z     vdW  Elec       q    Type
REMARK                         _______ _______ _______ _____ _____    ______ ____
ROOT
ATOM      1  C   UNL     1       0.091   4.096   1.920  0.00  0.00    +0.222 C 
ATOM      2  O   UNL     1       1.107   3.611   2.370  0.00  0.00    -0.275 OA
ATOM      3  N   UNL     1      -0.899   4.480   2.750  0.00  0.00    -0.279 N 
ATOM      4  H   UNL     1      -1.711   4.869   2.390  0.00  0.00    +0.155 HD
ENDROOT
BRANCH   1  10
ATOM      5  C   UNL     1       2.812   1.845  -0.472  0.00  0.00    +0.039 C 
ATOM      6  C   UNL     1       2.048   3.110  -0.174  0.00  0.00    -0.073 C 
ATOM      7  C   UNL     1       2.723   4.158   0.176  0.00  0.00    -0.073 C 
ATOM      8  C   UNL     1       2.104   5.484   0.507  0.00  0.00    +0.046 C 
ATOM      9  C   UNL     1       0.668   5.542  -0.018  0.00  0.00    +0.118 C 
ATOM     10  C   UNL     1      -0.065   4.271   0.431  0.00  0.00    +0.093 C 
ATOM     11  C   UNL     1       0.553   3.074  -0.295  0.00  0.00    +0.044 C 
ATOM     12  C   UNL     1       4.224   4.040   0.248  0.00  0.00    +0.039 C 
BRANCH   9  13
ATOM     13  C   UNL     1      -0.029   6.754   0.543  0.00  0.00    +0.360 C 
ATOM     14  O   UNL     1      -1.022   6.621   1.218  0.00  0.00    -0.246 OA
ATOM     15  O   UNL     1       0.455   7.981   0.295  0.00  0.00    -0.246 OA
ENDBRANCH   9  13
ENDBRANCH   1  10
BRANCH   3  16
ATOM     16  C   UNL     1      -0.755   4.320   4.120  0.00  0.00    +0.086 A 
ATOM     17  C   UNL     1      -1.651   4.649   5.124  0.00  0.00    +0.091 A 
ATOM     18  C   UNL     1      -1.252   4.374   6.504  0.00  0.00    -0.021 A 
ATOM     19  C   UNL     1      -0.036   3.818   6.647  0.00  0.00    -0.004 A 
ATOM     20  S   UNL     1       0.583   3.651   4.990  0.00  0.00    -0.077 S 
ATOM     21  C   UNL     1       0.302   3.563   8.091  0.00  0.00    +0.043 C 
ATOM     22  C   UNL     1      -1.054   3.641   8.827  0.00  0.00    +0.010 C 
ATOM     23  C   UNL     1      -1.867   4.558   7.892  0.00  0.00    +0.037 C 
BRANCH  17  24
ATOM     24  C   UNL     1      -2.950   5.251   4.814  0.00  0.00    +0.342 C 
ATOM     25  O   UNL     1      -3.918   4.542   4.619  0.00  0.00    -0.245 OA
BRANCH  24  26
ATOM     26  O   UNL     1      -3.072   6.593   4.747  0.00  0.00    -0.464 OA
ATOM     27  C   UNL     1      -4.389   7.120   4.436  0.00  0.00    +0.280 C 
ENDBRANCH  24  26
ENDBRANCH  17  24
ENDBRANCH   3  16
TORSDOF 5
