REMARK  Name = ZINC39691357
REMARK  12 active torsions:
REMARK  status: ('A' for Active; 'I' for Inactive)
REMARK    1  A    between atoms: C_1  and  C_2
REMARK    2  A    between atoms: C_2  and  C_3
REMARK    3  A    between atoms: C_3  and  C_4
REMARK    4  A    between atoms: C_4  and  C_5
REMARK    5  A    between atoms: C_5  and  C_6
REMARK    6  A    between atoms: C_6  and  C_7
REMARK    7  A    between atoms: C_11  and  C_20
REMARK    8  A    between atoms: N_22  and  C_23
REMARK    9  A    between atoms: C_23  and  C_24
REMARK   10  A    between atoms: C_24  and  N_25
REMARK   11  A    between atoms: C_26  and  C_28
REMARK   12  A    between atoms: C_28  and  C_29
REMARK                            x       y       z     vdW  Elec       q    Type
REMARK                         _______ _______ _______ _____ _____    ______ ____
ROOT
ATOM      1  C   UNL     1       3.970  -7.877   1.888  0.00  0.00    +0.218 C 
ATOM      2  O   UNL     1       4.055  -6.796   1.344  0.00  0.00    -0.275 OA
ATOM      3  N   UNL     1       4.694  -8.919   1.434  0.00  0.00    -0.314 N 
ATOM      4  H   UNL     1       4.625  -9.784   1.869  0.00  0.00    +0.149 HD
ENDROOT
BRANCH   1   9
ATOM      5  C   UNL     1       2.007  -4.613   3.490  0.00  0.00    +0.216 C 
ATOM      6  O   UNL     1       2.400  -3.752   4.248  0.00  0.00    -0.276 OA
ATOM      7  N   UNL     1       2.239  -5.911   3.767  0.00  0.00    -0.300 N 
ATOM      8  C   UNL     1       1.847  -7.095   2.966  0.00  0.00    +0.121 C 
ATOM      9  C   UNL     1       3.053  -8.055   3.071  0.00  0.00    +0.100 C 
ATOM     10  C   UNL     1       3.768  -7.646   4.370  0.00  0.00    -0.004 C 
ATOM     11  C   UNL     1       2.949  -6.478   4.939  0.00  0.00    +0.115 C 
ATOM     12  C   UNL     1       5.191  -7.187   4.069  0.00  0.00    -0.010 C 
ATOM     13  C   UNL     1       5.899  -6.841   5.382  0.00  0.00    -0.082 C 
ATOM     14  N   UNL     1       5.918  -8.020   6.256  0.00  0.00    +0.379 N 
ATOM     15  C   UNL     1       4.547  -8.399   6.616  0.00  0.00    -0.082 C 
ATOM     16  C   UNL     1       3.781  -8.811   5.355  0.00  0.00    -0.010 C 
ATOM     17  H   UNL     1       6.362  -8.787   5.773  0.00  0.00    -0.086 HD
ATOM     18  H   UNL     1       6.438  -7.808   7.094  0.00  0.00    -0.086 HD
BRANCH   5  19
ATOM     19  C   UNL     1       1.261  -4.231   2.238  0.00  0.00    +0.096 C 
BRANCH  19  20
ATOM     20  C   UNL     1       1.135  -2.708   2.164  0.00  0.00    +0.009 C 
BRANCH  20  21
ATOM     21  C   UNL     1       0.377  -2.321   0.892  0.00  0.00    +0.000 C 
BRANCH  21  22
ATOM     22  C   UNL     1       0.251  -0.797   0.818  0.00  0.00    -0.000 C 
BRANCH  22  24
ATOM     23  C   UNL     1      -0.633   1.113  -0.527  0.00  0.00    +0.004 C 
ATOM     24  C   UNL     1      -0.507  -0.410  -0.453  0.00  0.00    -0.003 C 
ENDBRANCH  22  24
ENDBRANCH  21  22
ENDBRANCH  20  21
ENDBRANCH  19  20
ENDBRANCH   5  19
ENDBRANCH   1   9
BRANCH   3  25
ATOM     25  C   UNL     1       5.584  -8.747   0.284  0.00  0.00    +0.123 C 
BRANCH  25  26
ATOM     26  C   UNL     1       6.283 -10.073  -0.024  0.00  0.00    +0.123 C 
BRANCH  26  27
ATOM     27  N   UNL     1       7.174  -9.900  -1.174  0.00  0.00    -0.314 N 
ATOM     28  C   UNL     1       7.898 -10.942  -1.628  0.00  0.00    +0.217 C 
ATOM     29  O   UNL     1       7.812 -12.023  -1.084  0.00  0.00    -0.275 OA
ATOM     30  H   UNL     1       7.242  -9.036  -1.609  0.00  0.00    +0.149 HD
BRANCH  28  31
ATOM     31  C   UNL     1       8.814 -10.765  -2.811  0.00  0.00    +0.131 C 
BRANCH  31  32
ATOM     32  C   UNL     1       9.502 -12.071  -3.114  0.00  0.00    -0.031 A 
ATOM     33  C   UNL     1      10.737 -12.328  -2.603  0.00  0.00    +0.005 A 
ATOM     34  C   UNL     1      11.389 -13.530  -2.873  0.00  0.00    +0.001 A 
ATOM     35  C   UNL     1      10.809 -14.481  -3.655  0.00  0.00    +0.008 A 
ATOM     36  C   UNL     1       9.535 -14.252  -4.200  0.00  0.00    -0.018 A 
ATOM     37  C   UNL     1       8.870 -13.032  -3.921  0.00  0.00    -0.014 A 
ATOM     38  C   UNL     1       7.592 -12.805  -4.462  0.00  0.00    +0.009 A 
ATOM     39  C   UNL     1       7.011 -13.758  -5.239  0.00  0.00    +0.001 A 
ATOM     40  C   UNL     1       7.662 -14.961  -5.507  0.00  0.00    +0.001 A 
ATOM     41  C   UNL     1       8.905 -15.210  -5.012  0.00  0.00    +0.008 A 
ENDBRANCH  31  32
ENDBRANCH  28  31
ENDBRANCH  26  27
ENDBRANCH  25  26
ENDBRANCH   3  25
TORSDOF 11
