REMARK  Name = ZINC01591940
REMARK  15 active torsions:
REMARK  status: ('A' for Active; 'I' for Inactive)
REMARK    1  A    between atoms: C_1  and  C_2
REMARK    2  A    between atoms: C_2  and  N_63
REMARK    3  A    between atoms: C_3  and  C_4
REMARK    4  A    between atoms: C_3  and  N_63
REMARK    5  A    between atoms: C_5  and  C_6
REMARK    6  A    between atoms: C_5  and  N_63
REMARK    7  A    between atoms: C_6  and  C_7
REMARK    8  A    between atoms: C_7  and  C_8
REMARK    9  A    between atoms: C_8  and  C_10
REMARK   10  A    between atoms: C_8  and  N_65
REMARK   11  A    between atoms: C_11  and  C_12
REMARK   12  A    between atoms: C_11  and  N_65
REMARK   13  A    between atoms: C_12  and  C_14
REMARK   14  A    between atoms: C_12  and  O_31
REMARK   15  A    between atoms: C_16  and  C_24
REMARK                            x       y       z     vdW  Elec       q    Type
REMARK                         _______ _______ _______ _____ _____    ______ ____
ROOT
ATOM      1  C   UNL     1      -0.849  -0.713  -1.301  0.00  0.00    +0.128 C 
ENDROOT
BRANCH   1   2
ATOM      2  C   UNL     1       0.508  -0.060  -1.364  0.00  0.00    -0.010 A 
ATOM      3  C   UNL     1       1.639  -0.772  -1.097  0.00  0.00    +0.035 A 
ATOM      4  C   UNL     1       2.892  -0.142  -1.161  0.00  0.00    +0.072 A 
ATOM      5  N   UNL     1       3.007   1.133  -1.477  0.00  0.00    -0.247 NA
ATOM      6  C   UNL     1       1.933   1.879  -1.750  0.00  0.00    +0.072 A 
ATOM      7  C   UNL     1       0.639   1.301  -1.702  0.00  0.00    +0.006 A 
ATOM      8  C   UNL     1      -0.485   2.094  -1.983  0.00  0.00    +0.010 A 
ATOM      9  C   UNL     1      -0.319   3.405  -2.311  0.00  0.00    +0.001 A 
ATOM     10  C   UNL     1       0.951   3.975  -2.359  0.00  0.00    +0.002 A 
ATOM     11  C   UNL     1       2.062   3.239  -2.087  0.00  0.00    +0.028 A 
BRANCH   4  12
ATOM     12  C   UNL     1       4.114  -0.929  -0.868  0.00  0.00    +0.000 A 
ATOM     13  C   UNL     1       4.013  -2.277  -0.526  0.00  0.00    +0.011 A 
ATOM     14  C   UNL     1       5.154  -3.006  -0.259  0.00  0.00    +0.020 A 
ATOM     15  C   UNL     1       6.396  -2.398  -0.319  0.00  0.00    +0.041 A 
ATOM     16  C   UNL     1       6.502  -1.058  -0.652  0.00  0.00    +0.020 A 
ATOM     17  C   UNL     1       5.368  -0.322  -0.927  0.00  0.00    +0.011 A 
ATOM     18 CL   UNL     1       7.827  -3.318   0.025  0.00  0.00    -0.084 Cl
ENDBRANCH   4  12
ENDBRANCH   1   2
BRANCH   1  19
ATOM     19  O   UNL     1      -0.796  -1.838  -0.421  0.00  0.00    -0.389 OA
ATOM     20  H   UNL     1      -0.164  -2.518  -0.691  0.00  0.00    +0.210 HD
ENDBRANCH   1  19
BRANCH   1  21
ATOM     21  C   UNL     1      -1.257  -1.179  -2.700  0.00  0.00    -0.046 C 
BRANCH  21  22
ATOM     22  N   UNL     1      -2.633  -1.707  -2.652  0.00  0.00    +0.383 N 
ATOM     23  H   UNL     1      -2.670  -2.497  -1.997  0.00  0.00    -0.085 HD
ATOM     24  H   UNL     1      -3.269  -0.967  -2.332  0.00  0.00    -0.085 HD
BRANCH  22  25
ATOM     25  C   UNL     1      -3.053  -2.164  -3.990  0.00  0.00    -0.075 C 
ATOM     26  C   UNL     1      -3.603  -0.979  -4.786  0.00  0.00    -0.014 C 
BRANCH  25  27
ATOM     27  C   UNL     1      -4.144  -3.226  -3.838  0.00  0.00    -0.018 C 
BRANCH  27  28
ATOM     28  C   UNL     1      -3.561  -4.463  -3.152  0.00  0.00    -0.020 C 
BRANCH  28  29
ATOM     29  C   UNL     1      -4.652  -5.525  -3.000  0.00  0.00    -0.079 C 
BRANCH  29  30
ATOM     30  N   UNL     1      -4.067  -6.720  -2.356  0.00  0.00    +0.379 N 
ATOM     31  H   UNL     1      -3.222  -6.996  -2.869  0.00  0.00    -0.082 HD
BRANCH  30  33
ATOM     32  C   UNL     1      -4.933  -5.971  -0.164  0.00  0.00    -0.017 C 
ATOM     33  C   UNL     1      -3.701  -6.411  -0.957  0.00  0.00    -0.082 C 
ENDBRANCH  30  33
BRANCH  30  34
ATOM     34  C   UNL     1      -5.036  -7.836  -2.389  0.00  0.00    -0.082 C 
ATOM     35  C   UNL     1      -4.299  -9.136  -2.061  0.00  0.00    -0.017 C 
ENDBRANCH  30  34
ENDBRANCH  29  30
ENDBRANCH  28  29
ENDBRANCH  27  28
ENDBRANCH  25  27
ENDBRANCH  22  25
ENDBRANCH  21  22
ENDBRANCH   1  21
TORSDOF 12
