REMARK  Name = ZINC08817898
REMARK  11 active torsions:
REMARK  status: ('A' for Active; 'I' for Inactive)
REMARK    1  A    between atoms: C_1  and  C_2
REMARK    2  A    between atoms: C_2  and  C_27
REMARK    3  A    between atoms: N_3  and  N_4
REMARK    4  A    between atoms: C_5  and  C_7
REMARK    5  A    between atoms: C_7  and  S_8
REMARK    6  A    between atoms: S_8  and  C_9
REMARK    7  A    between atoms: C_12  and  C_21
REMARK    8  A    between atoms: N_13  and  C_14
REMARK    9  A    between atoms: C_30  and  O_33
REMARK   10  A    between atoms: O_33  and  C_34
REMARK   11  A    between atoms: C_34  and  C_36
REMARK                            x       y       z     vdW  Elec       q    Type
REMARK                         _______ _______ _______ _____ _____    ______ ____
ROOT
ATOM      1  S   UNL     1      -3.874   1.931  -1.066  0.00  0.00    -0.076 S 
ENDROOT
BRANCH   1   2
ATOM      2  C   UNL     1      -5.203   0.781  -1.188  0.00  0.00    +0.197 A 
ATOM      3  N   UNL     1      -5.115  -0.526  -1.079  0.00  0.00    -0.122 NA
ATOM      4  N   UNL     1      -6.276  -1.061  -1.218  0.00  0.00    -0.128 NA
ATOM      5  C   UNL     1      -7.178  -0.129  -1.425  0.00  0.00    +0.169 A 
ATOM      6  N   UNL     1      -6.520   1.081  -1.406  0.00  0.00    -0.270 N 
BRANCH   6   7
ATOM      7  C   UNL     1      -7.082   2.354  -1.578  0.00  0.00    +0.051 A 
ATOM      8  C   UNL     1      -7.985   2.847  -0.646  0.00  0.00    +0.028 A 
ATOM      9  C   UNL     1      -8.533   4.104  -0.814  0.00  0.00    +0.022 A 
ATOM     10  C   UNL     1      -8.191   4.867  -1.917  0.00  0.00    +0.041 A 
ATOM     11  C   UNL     1      -7.295   4.375  -2.850  0.00  0.00    +0.022 A 
ATOM     12  C   UNL     1      -6.740   3.122  -2.683  0.00  0.00    +0.028 A 
ATOM     13 CL   UNL     1      -8.886   6.443  -2.130  0.00  0.00    -0.084 Cl
ENDBRANCH   6   7
BRANCH   5  14
ATOM     14  C   UNL     1      -8.626  -0.339  -1.632  0.00  0.00    +0.020 A 
ATOM     15  C   UNL     1      -9.418   0.692  -2.139  0.00  0.00    +0.011 A 
ATOM     16  C   UNL     1     -10.769   0.488  -2.334  0.00  0.00    +0.001 A 
ATOM     17  C   UNL     1     -11.340  -0.732  -2.018  0.00  0.00    +0.000 A 
ATOM     18  C   UNL     1     -10.561  -1.757  -1.510  0.00  0.00    +0.001 A 
ATOM     19  C   UNL     1      -9.209  -1.568  -1.315  0.00  0.00    +0.011 A 
ENDBRANCH   5  14
ENDBRANCH   1   2
BRANCH   1  20
ATOM     20  C   UNL     1      -2.498   0.793  -0.772  0.00  0.00    +0.174 C 
BRANCH  20  22
ATOM     21  N   UNL     1      -0.056   0.934  -0.406  0.00  0.00    -0.206 N 
ATOM     22  C   UNL     1      -1.219   1.577  -0.632  0.00  0.00    +0.242 C 
ATOM     23  O   UNL     1      -1.236   2.786  -0.722  0.00  0.00    -0.273 OA
ATOM     24  H   UNL     1      -0.043  -0.033  -0.334  0.00  0.00    +0.177 HD
BRANCH  21  27
ATOM     25  C   UNL     1       3.482   1.846   0.323  0.00  0.00    +0.068 C 
ATOM     26  C   UNL     1       2.242   1.050   0.004  0.00  0.00    +0.063 C 
ATOM     27  N   UNL     1       1.134   1.662  -0.282  0.00  0.00    -0.185 NA
BRANCH  26  28
ATOM     28  C   UNL     1       2.289  -0.423   0.017  0.00  0.00    -0.002 A 
ATOM     29  C   UNL     1       3.024  -1.093   0.999  0.00  0.00    +0.013 A 
ATOM     30  C   UNL     1       3.060  -2.470   1.010  0.00  0.00    +0.047 A 
ATOM     31  C   UNL     1       2.377  -3.193   0.041  0.00  0.00    +0.132 A 
ATOM     32  C   UNL     1       1.649  -2.532  -0.940  0.00  0.00    +0.047 A 
ATOM     33  C   UNL     1       1.603  -1.155  -0.956  0.00  0.00    +0.013 A 
BRANCH  31  34
ATOM     34  O   UNL     1       2.420  -4.551   0.053  0.00  0.00    -0.426 OA
BRANCH  34  35
ATOM     35  C   UNL     1       3.268  -5.141  -0.805  0.00  0.00    +0.309 C 
ATOM     36  O   UNL     1       4.030  -4.469  -1.459  0.00  0.00    -0.251 OA
ATOM     37  C   UNL     1       3.270  -6.641  -0.951  0.00  0.00    +0.136 C 
ENDBRANCH  34  35
ENDBRANCH  31  34
ENDBRANCH  26  28
ENDBRANCH  21  27
ENDBRANCH  20  22
ENDBRANCH   1  20
TORSDOF 9
