REMARK  Name = ZINC48332532
REMARK  6 active torsions:
REMARK  status: ('A' for Active; 'I' for Inactive)
REMARK    1  A    between atoms: C_5  and  C_7
REMARK    2  A    between atoms: C_7  and  N_8
REMARK    3  A    between atoms: C_10  and  N_15
REMARK    4  A    between atoms: N_18  and  C_19
REMARK    5  A    between atoms: C_19  and  C_20
REMARK    6  A    between atoms: C_25  and  N_26
REMARK                            x       y       z     vdW  Elec       q    Type
REMARK                         _______ _______ _______ _____ _____    ______ ____
ROOT
ATOM      1  N   UNL     1       4.362  -3.546   3.400  0.00  0.00    -0.268 N 
ATOM      2  C   UNL     1       4.628  -3.902   4.672  0.00  0.00    +0.304 C 
ATOM      3  O   UNL     1       3.716  -4.132   5.443  0.00  0.00    -0.252 OA
ATOM      4  N   UNL     1       5.905  -4.003   5.091  0.00  0.00    -0.295 N 
ATOM      5  H   UNL     1       5.088  -3.430   2.767  0.00  0.00    +0.156 HD
ATOM      6  H   UNL     1       6.633  -3.819   4.476  0.00  0.00    +0.151 HD
ENDROOT
BRANCH   1   9
ATOM      7  N   UNL     1       1.377  -1.941   2.062  0.00  0.00    -0.309 N 
ATOM      8  C   UNL     1       2.659  -2.149   2.462  0.00  0.00    +0.112 A 
ATOM      9  C   UNL     1       3.034  -3.343   2.990  0.00  0.00    +0.051 A 
ATOM     10  C   UNL     1       2.089  -4.375   3.127  0.00  0.00    +0.030 A 
ATOM     11  C   UNL     1       0.804  -4.159   2.723  0.00  0.00    +0.072 A 
ATOM     12  C   UNL     1       0.451  -2.910   2.186  0.00  0.00    +0.252 A 
ATOM     13  O   UNL     1      -0.698  -2.705   1.826  0.00  0.00    -0.268 OA
BRANCH   7  14
ATOM     14  C   UNL     1       0.996  -0.645   1.494  0.00  0.00    +0.161 C 
BRANCH  14  19
ATOM     15  C   UNL     1      -1.221   1.306   3.846  0.00  0.00    +0.000 A 
ATOM     16  C   UNL     1      -0.287   1.961   4.627  0.00  0.00    +0.001 A 
ATOM     17  C   UNL     1       1.062   1.773   4.395  0.00  0.00    +0.020 A 
ATOM     18  C   UNL     1       1.478   0.929   3.381  0.00  0.00    +0.046 A 
ATOM     19  C   UNL     1       0.544   0.274   2.599  0.00  0.00    -0.009 A 
ATOM     20  C   UNL     1      -0.806   0.463   2.832  0.00  0.00    +0.007 A 
ATOM     21 CL   UNL     1       3.173   0.693   3.088  0.00  0.00    -0.083 Cl
ENDBRANCH  14  19
ENDBRANCH   7  14
ENDBRANCH   1   9
BRANCH   4  22
ATOM     22  C   UNL     1       6.194  -4.389   6.474  0.00  0.00    +0.144 C 
BRANCH  22  23
ATOM     23  C   UNL     1       7.686  -4.428   6.683  0.00  0.00    +0.014 A 
ATOM     24  C   UNL     1       8.368  -5.633   6.653  0.00  0.00    +0.010 A 
ATOM     25  C   UNL     1       9.742  -5.621   6.851  0.00  0.00    +0.020 A 
ATOM     26  C   UNL     1      10.383  -4.417   7.070  0.00  0.00    +0.113 A 
ATOM     27  N   UNL     1       9.706  -3.285   7.094  0.00  0.00    -0.236 NA
ATOM     28  C   UNL     1       8.397  -3.255   6.904  0.00  0.00    +0.159 A 
BRANCH  28  29
ATOM     29  N   UNL     1       7.721  -2.031   6.930  0.00  0.00    -0.222 N 
ATOM     30  C   UNL     1       8.131  -0.904   7.569  0.00  0.00    +0.116 A 
ATOM     31  C   UNL     1       7.201   0.053   7.349  0.00  0.00    +0.041 A 
ATOM     32  C   UNL     1       6.191  -0.501   6.554  0.00  0.00    +0.135 A 
ATOM     33  N   UNL     1       6.504  -1.746   6.299  0.00  0.00    -0.173 NA
ENDBRANCH  28  29
ENDBRANCH  22  23
ENDBRANCH   4  22
TORSDOF 6
