REMARK  Name = ZINC02748176
REMARK  9 active torsions:
REMARK  status: ('A' for Active; 'I' for Inactive)
REMARK    1  A    between atoms: C_1  and  C_2
REMARK    2  A    between atoms: C_2  and  C_3
REMARK    3  A    between atoms: C_4  and  C_25
REMARK    4  A    between atoms: C_6  and  N_12
REMARK    5  A    between atoms: C_7  and  C_8
REMARK    6  A    between atoms: C_8  and  O_10
REMARK    7  A    between atoms: O_10  and  C_11
REMARK    8  A    between atoms: C_13  and  C_15
REMARK    9  A    between atoms: C_21  and  C_23
REMARK                            x       y       z     vdW  Elec       q    Type
REMARK                         _______ _______ _______ _____ _____    ______ ____
ROOT
ATOM      1  N   UNL     1       1.196  -3.875   0.265  0.00  0.00    -0.279 N 
ATOM      2  C   UNL     1       2.498  -4.038  -0.042  0.00  0.00    +0.222 C 
ATOM      3  O   UNL     1       3.183  -3.073  -0.308  0.00  0.00    -0.275 OA
ATOM      4  H   UNL     1       0.648  -4.647   0.478  0.00  0.00    +0.155 HD
ENDROOT
BRANCH   1   8
ATOM      5  C   UNL     1      -0.978  -0.829   0.506  0.00  0.00    -0.022 A 
ATOM      6  C   UNL     1       0.023   0.004   0.170  0.00  0.00    -0.008 A 
ATOM      7  S   UNL     1       1.408  -1.092  -0.064  0.00  0.00    -0.078 S 
ATOM      8  C   UNL     1       0.640  -2.606   0.277  0.00  0.00    +0.086 A 
ATOM      9  C   UNL     1      -0.671  -2.239   0.565  0.00  0.00    +0.091 A 
ATOM     10  C   UNL     1      -0.015   1.504   0.031  0.00  0.00    +0.052 C 
BRANCH   5  12
ATOM     11  C   UNL     1      -3.183  -0.278  -0.485  0.00  0.00    +0.009 C 
ATOM     12  C   UNL     1      -2.361  -0.313   0.805  0.00  0.00    +0.033 C 
ENDBRANCH   5  12
BRANCH   9  13
ATOM     13  C   UNL     1      -1.687  -3.233   0.916  0.00  0.00    +0.342 C 
ATOM     14  O   UNL     1      -1.857  -3.544   2.079  0.00  0.00    -0.245 OA
BRANCH  13  15
ATOM     15  O   UNL     1      -2.436  -3.802  -0.051  0.00  0.00    -0.464 OA
ATOM     16  C   UNL     1      -3.424  -4.779   0.370  0.00  0.00    +0.280 C 
ENDBRANCH  13  15
ENDBRANCH   9  13
ENDBRANCH   1   8
BRANCH   2  17
ATOM     17  C   UNL     1       3.103  -5.418  -0.054  0.00  0.00    +0.093 C 
ATOM     18  C   UNL     1       4.521  -5.363   0.517  0.00  0.00    +0.040 C 
ATOM     19  C   UNL     1       5.436  -4.654  -0.438  0.00  0.00    -0.030 C 
ATOM     20  C   UNL     1       5.162  -4.448  -1.687  0.00  0.00    -0.030 C 
ATOM     21  C   UNL     1       3.888  -4.880  -2.351  0.00  0.00    +0.042 C 
ATOM     22  C   UNL     1       3.180  -5.934  -1.497  0.00  0.00    +0.118 C 
BRANCH  22  23
ATOM     23  C   UNL     1       1.789  -6.170  -2.026  0.00  0.00    +0.360 C 
ATOM     24  O   UNL     1       0.830  -5.949  -1.324  0.00  0.00    -0.246 OA
ATOM     25  O   UNL     1       1.614  -6.625  -3.276  0.00  0.00    -0.246 OA
ENDBRANCH  22  23
ENDBRANCH   2  17
TORSDOF 6
