REMARK  Name = ZINC38743172
REMARK  3 active torsions:
REMARK  status: ('A' for Active; 'I' for Inactive)
REMARK    1  A    between atoms: C_4  and  C_7
REMARK    2  A    between atoms: C_9  and  C_13
REMARK    3  A    between atoms: C_19  and  C_22
REMARK                            x       y       z     vdW  Elec       q    Type
REMARK                         _______ _______ _______ _____ _____    ______ ____
ROOT
ATOM      1  C   UNL     1       5.756  -2.976  -1.313  0.00  0.00    +0.181 A 
ATOM      2  N   UNL     1       5.839  -2.467  -2.506  0.00  0.00    -0.129 NA
ATOM      3  N   UNL     1       6.218  -3.366  -3.345  0.00  0.00    -0.121 NA
ATOM      4  C   UNL     1       6.377  -4.494  -2.726  0.00  0.00    +0.211 A 
ATOM      5  N   UNL     1       6.129  -4.307  -1.390  0.00  0.00    -0.222 N 
ATOM      6  N   UNL     1       6.303  -5.349  -0.528  0.00  0.00    -0.264 N 
ATOM      7  C   UNL     1       6.263  -6.696  -1.157  0.00  0.00    +0.196 C 
ATOM      8  S   UNL     1       6.788  -6.221  -2.859  0.00  0.00    -0.057 S 
ATOM      9  H   UNL     1       7.143  -5.229   0.018  0.00  0.00    +0.168 HD
ENDROOT
BRANCH   7  10
ATOM     10  C   UNL     1       4.847  -7.277  -1.153  0.00  0.00    +0.243 C 
ATOM     11  C   UNL     1       4.873  -8.707  -1.709  0.00  0.00    +0.276 C 
ATOM     12  O   UNL     1       3.534  -9.214  -1.705  0.00  0.00    -0.485 OA
ATOM     13  C   UNL     1       2.567  -8.391  -2.194  0.00  0.00    +0.162 A 
ATOM     14  C   UNL     1       1.339  -8.924  -2.556  0.00  0.00    +0.049 A 
ATOM     15  C   UNL     1       0.346  -8.100  -3.051  0.00  0.00    +0.004 A 
ATOM     16  C   UNL     1       0.574  -6.743  -3.186  0.00  0.00    +0.004 A 
ATOM     17  C   UNL     1       1.796  -6.206  -2.828  0.00  0.00    +0.049 A 
ATOM     18  C   UNL     1       2.798  -7.027  -2.333  0.00  0.00    +0.163 A 
ATOM     19  O   UNL     1       3.999  -6.485  -1.992  0.00  0.00    -0.479 OA
ENDBRANCH   7  10
BRANCH   1  22
ATOM     20  C   UNL     1       3.699  -0.689  -0.037  0.00  0.00    +0.091 C 
ATOM     21  C   UNL     1       3.832  -2.029  -0.051  0.00  0.00    +0.039 C 
ATOM     22  C   UNL     1       5.335  -2.245  -0.065  0.00  0.00    +0.222 C 
ATOM     23  N   UNL     1       5.871  -0.874  -0.056  0.00  0.00    -0.171 NA
ATOM     24  N   UNL     1       4.919  -0.090  -0.047  0.00  0.00    -0.153 NA
BRANCH  20  28
ATOM     25  C   UNL     1      -0.017   1.379   0.010  0.00  0.00    +0.000 A 
ATOM     26  C   UNL     1       1.169   2.092   0.002  0.00  0.00    +0.001 A 
ATOM     27  C   UNL     1       2.377   1.426  -0.013  0.00  0.00    +0.010 A 
ATOM     28  C   UNL     1       2.402   0.033  -0.021  0.00  0.00    +0.002 A 
ATOM     29  C   UNL     1       1.205  -0.680  -0.013  0.00  0.00    +0.010 A 
ATOM     30  C   UNL     1       0.002  -0.004   0.002  0.00  0.00    +0.001 A 
ENDBRANCH  20  28
ENDBRANCH   1  22
TORSDOF 3
