REMARK  Name = ZINC20150762
REMARK  8 active torsions:
REMARK  status: ('A' for Active; 'I' for Inactive)
REMARK    1  A    between atoms: C_1  and  O_2
REMARK    2  A    between atoms: O_2  and  C_3
REMARK    3  A    between atoms: C_3  and  C_5
REMARK    4  A    between atoms: C_5  and  C_33
REMARK    5  A    between atoms: C_10  and  C_13
REMARK    6  A    between atoms: N_20  and  C_23
REMARK    7  A    between atoms: C_33  and  C_34
REMARK    8  A    between atoms: C_37  and  O_40
REMARK                            x       y       z     vdW  Elec       q    Type
REMARK                         _______ _______ _______ _____ _____    ______ ____
ROOT
ATOM      1  C   UNL     1       0.925  -1.970  -1.367  0.00  0.00    +0.133 C 
ATOM      2  C   UNL     1       0.643  -2.637  -2.730  0.00  0.00    +0.121 C 
ATOM      3  C   UNL     1      -0.333  -3.801  -2.409  0.00  0.00    +0.112 C 
ATOM      4  C   UNL     1      -0.536  -3.737  -0.881  0.00  0.00    +0.104 C 
ATOM      5  N   UNL     1      -0.250  -2.316  -0.527  0.00  0.00    -0.293 NA
ATOM      6  C   UNL     1      -1.608  -3.392  -3.112  0.00  0.00    +0.232 C 
ATOM      7  O   UNL     1      -2.640  -4.028  -3.118  0.00  0.00    -0.274 OA
ATOM      8  N   UNL     1      -1.420  -2.218  -3.726  0.00  0.00    -0.210 N 
ATOM      9  C   UNL     1      -0.179  -1.697  -3.583  0.00  0.00    +0.232 C 
ATOM     10  O   UNL     1       0.216  -0.652  -4.055  0.00  0.00    -0.274 OA
ATOM     11  H   UNL     1      -0.031  -2.229   0.454  0.00  0.00    +0.124 HD
ENDROOT
BRANCH   8  12
ATOM     12  C   UNL     1      -2.426  -1.578  -4.465  0.00  0.00    +0.048 A 
ATOM     13  C   UNL     1      -2.964  -0.380  -4.015  0.00  0.00    +0.028 A 
ATOM     14  C   UNL     1      -3.956   0.249  -4.741  0.00  0.00    +0.051 A 
ATOM     15  C   UNL     1      -4.416  -0.312  -5.924  0.00  0.00    +0.162 A 
ATOM     16  C   UNL     1      -3.877  -1.510  -6.379  0.00  0.00    +0.164 A 
ATOM     17  C   UNL     1      -2.879  -2.139  -5.651  0.00  0.00    +0.073 A 
ATOM     18  O   UNL     1      -4.310  -2.072  -7.540  0.00  0.00    -0.485 OA
ATOM     19  C   UNL     1      -5.564  -1.607  -8.053  0.00  0.00    +0.270 C 
ATOM     20  C   UNL     1      -5.569  -0.073  -7.990  0.00  0.00    +0.270 C 
ATOM     21  O   UNL     1      -5.397   0.321  -6.625  0.00  0.00    -0.485 OA
ENDBRANCH   8  12
BRANCH   4  22
ATOM     22  C   UNL     1      -1.961  -4.076  -0.526  0.00  0.00    +0.007 A 
ATOM     23  C   UNL     1      -2.471  -5.245  -0.066  0.00  0.00    +0.013 A 
ATOM     24  C   UNL     1      -3.826  -5.328   0.196  0.00  0.00    +0.008 A 
ATOM     25  C   UNL     1      -4.604  -4.238  -0.014  0.00  0.00    +0.045 A 
ATOM     26  S   UNL     1      -3.413  -3.041  -0.594  0.00  0.00    -0.100 S 
ENDBRANCH   4  22
BRANCH   1  27
ATOM     27  C   UNL     1       1.034  -0.475  -1.527  0.00  0.00    +0.328 C 
ATOM     28  O   UNL     1       2.119   0.042  -1.648  0.00  0.00    -0.249 OA
BRANCH  27  30
ATOM     29  C   UNL     1       0.102   1.691  -1.689  0.00  0.00    +0.280 C 
ATOM     30  O   UNL     1      -0.075   0.281  -1.534  0.00  0.00    -0.467 OA
ENDBRANCH  27  30
ENDBRANCH   1  27
BRANCH   1  31
ATOM     31  C   UNL     1       2.206  -2.534  -0.750  0.00  0.00    +0.069 C 
BRANCH  31  32
ATOM     32  C   UNL     1       2.373  -1.990   0.645  0.00  0.00    -0.045 A 
ATOM     33  C   UNL     1       3.063  -0.809   0.849  0.00  0.00    +0.007 A 
ATOM     34  C   UNL     1       3.217  -0.309   2.127  0.00  0.00    +0.045 A 
ATOM     35  C   UNL     1       2.679  -0.993   3.208  0.00  0.00    +0.117 A 
ATOM     36  C   UNL     1       1.987  -2.178   3.001  0.00  0.00    +0.045 A 
ATOM     37  C   UNL     1       1.831  -2.671   1.720  0.00  0.00    +0.007 A 
BRANCH  35  38
ATOM     38  O   UNL     1       2.830  -0.504   4.466  0.00  0.00    -0.507 OA
ATOM     39  H   UNL     1       2.122   0.093   4.744  0.00  0.00    +0.292 HD
ENDBRANCH  35  38
ENDBRANCH  31  32
ENDBRANCH   1  31
TORSDOF 7
