REMARK  Name = ZINC46738304
REMARK  7 active torsions:
REMARK  status: ('A' for Active; 'I' for Inactive)
REMARK    1  A    between atoms: C_1  and  C_2
REMARK    2  A    between atoms: C_5  and  S_9
REMARK    3  A    between atoms: C_6  and  C_8
REMARK    4  A    between atoms: S_9  and  N_12
REMARK    5  A    between atoms: C_18  and  C_20
REMARK    6  A    between atoms: C_23  and  C_31
REMARK    7  A    between atoms: C_25  and  C_30
REMARK                            x       y       z     vdW  Elec       q    Type
REMARK                         _______ _______ _______ _____ _____    ______ ____
ROOT
ATOM      1  N   UNL     1       1.606  -6.272   0.955  0.00  0.00    -0.174 NA
ATOM      2  C   UNL     1       2.710  -6.475   0.007  0.00  0.00    +0.128 C 
ATOM      3  C   UNL     1       3.664  -5.278   0.103  0.00  0.00    +0.125 C 
ATOM      4  N   UNL     1       3.981  -5.042   1.518  0.00  0.00    -0.294 N 
ATOM      5  C   UNL     1       2.877  -4.840   2.467  0.00  0.00    +0.125 C 
ATOM      6  C   UNL     1       1.923  -6.031   2.370  0.00  0.00    +0.128 C 
ATOM      7  C   UNL     1       5.261  -5.013   1.939  0.00  0.00    +0.263 C 
ATOM      8  O   UNL     1       5.510  -4.839   3.117  0.00  0.00    -0.268 OA
ENDROOT
BRANCH   7   9
ATOM      9  C   UNL     1       6.356  -5.191   0.975  0.00  0.00    +0.103 A 
ATOM     10  C   UNL     1       7.589  -5.684   1.265  0.00  0.00    +0.041 A 
ATOM     11  C   UNL     1       8.343  -5.693   0.066  0.00  0.00    +0.003 A 
ATOM     12  C   UNL     1       9.652  -6.084  -0.244  0.00  0.00    -0.041 A 
ATOM     13  C   UNL     1      10.108  -5.971  -1.525  0.00  0.00    +0.007 A 
ATOM     14  C   UNL     1       9.286  -5.471  -2.528  0.00  0.00    -0.048 A 
ATOM     15  C   UNL     1       7.996  -5.080  -2.248  0.00  0.00    +0.029 A 
ATOM     16  C   UNL     1       7.507  -5.186  -0.948  0.00  0.00    +0.048 A 
ATOM     17  N   UNL     1       6.295  -4.891  -0.372  0.00  0.00    -0.351 N 
ATOM     18  H   UNL     1       5.523  -4.528  -0.835  0.00  0.00    +0.166 HD
ATOM     19  C   UNL     1       9.812  -5.356  -3.935  0.00  0.00    +0.044 C 
ATOM     20  C   UNL     1      10.554  -6.627   0.834  0.00  0.00    +0.044 C 
ENDBRANCH   7   9
BRANCH   1  21
ATOM     21  S   UNL     1       0.033  -6.308   0.438  0.00  0.00    +0.061 S 
ATOM     22  O   UNL     1      -0.769  -6.523   1.591  0.00  0.00    -0.153 OA
ATOM     23  O   UNL     1      -0.004  -7.174  -0.688  0.00  0.00    -0.153 OA
BRANCH  21  28
ATOM     24  C   UNL     1      -1.309  -0.786  -1.588  0.00  0.00    +0.044 C 
ATOM     25  C   UNL     1      -0.974  -2.165  -1.082  0.00  0.00    -0.050 A 
ATOM     26  C   UNL     1      -0.866  -3.220  -1.970  0.00  0.00    +0.005 A 
ATOM     27  C   UNL     1      -0.558  -4.484  -1.506  0.00  0.00    +0.029 A 
ATOM     28  C   UNL     1      -0.358  -4.695  -0.154  0.00  0.00    +0.108 A 
ATOM     29  C   UNL     1      -0.465  -3.641   0.733  0.00  0.00    -0.024 A 
ATOM     30  C   UNL     1      -0.768  -2.375   0.269  0.00  0.00    +0.008 A 
ATOM     31  C   UNL     1      -0.247  -3.871   2.207  0.00  0.00    +0.046 C 
ENDBRANCH  21  28
ENDBRANCH   1  21
TORSDOF 3
