REMARK  Name = ZINC38696707
REMARK  4 active torsions:
REMARK  status: ('A' for Active; 'I' for Inactive)
REMARK    1  A    between atoms: C_6  and  C_10
REMARK    2  A    between atoms: N_14  and  N_18
REMARK    3  A    between atoms: C_19  and  C_21
REMARK    4  A    between atoms: C_25  and  O_27
REMARK                            x       y       z     vdW  Elec       q    Type
REMARK                         _______ _______ _______ _____ _____    ______ ____
ROOT
ATOM      1  C   UNL     1       3.534  -2.776  -1.283  0.00  0.00    +0.039 C 
ATOM      2  C   UNL     1       4.295  -3.872  -1.181  0.00  0.00    +0.078 C 
ATOM      3  C   UNL     1       4.868  -4.729  -2.249  0.00  0.00    +0.275 C 
ATOM      4  O   UNL     1       4.684  -4.493  -3.428  0.00  0.00    -0.267 OA
ATOM      5  N   UNL     1       5.591  -5.762  -1.849  0.00  0.00    -0.169 N 
ATOM      6  C   UNL     1       5.793  -6.019  -0.542  0.00  0.00    +0.138 C 
ATOM      7  S   UNL     1       6.690  -7.295   0.164  0.00  0.00    -0.026 S 
ATOM      8  S   UNL     1       4.907  -4.703   0.279  0.00  0.00    -0.060 S 
ENDROOT
BRANCH   1  14
ATOM      9  C   UNL     1      -0.016   1.344   0.009  0.00  0.00    +0.002 A 
ATOM     10  C   UNL     1       1.158   2.118   0.002  0.00  0.00    +0.002 A 
ATOM     11  C   UNL     1       2.389   1.570  -0.013  0.00  0.00    +0.027 A 
ATOM     12  C   UNL     1       2.533   0.108  -0.022  0.00  0.00    +0.060 A 
ATOM     13  N   UNL     1       3.569  -0.680  -0.036  0.00  0.00    -0.360 N 
ATOM     14  C   UNL     1       3.071  -2.062  -0.039  0.00  0.00    +0.200 C 
ATOM     15  N   UNL     1       1.606  -1.974  -0.024  0.00  0.00    -0.360 N 
ATOM     16  C   UNL     1       1.290  -0.712  -0.014  0.00  0.00    +0.060 A 
ATOM     17  C   UNL     1       0.002  -0.004   0.002  0.00  0.00    +0.027 A 
ATOM     18  H   UNL     1       4.499  -0.405  -0.045  0.00  0.00    +0.162 HD
ATOM     19  H   UNL     1       0.987  -2.721  -0.022  0.00  0.00    +0.162 HD
ENDBRANCH   1  14
BRANCH   5  20
ATOM     20  N   UNL     1       6.160  -6.610  -2.809  0.00  0.00    -0.222 N 
ATOM     21  C   UNL     1       7.481  -6.544  -3.067  0.00  0.00    +0.261 C 
ATOM     22  O   UNL     1       8.179  -5.749  -2.468  0.00  0.00    -0.269 OA
ATOM     23  H   UNL     1       5.604  -7.244  -3.287  0.00  0.00    +0.174 HD
BRANCH  21  24
ATOM     24  C   UNL     1       8.082  -7.439  -4.079  0.00  0.00    +0.042 A 
ATOM     25  C   UNL     1       7.282  -8.348  -4.773  0.00  0.00    +0.013 A 
ATOM     26  C   UNL     1       7.846  -9.182  -5.717  0.00  0.00    +0.004 A 
ATOM     27  C   UNL     1       9.203  -9.120  -5.978  0.00  0.00    +0.045 A 
ATOM     28  C   UNL     1      10.006  -8.218  -5.294  0.00  0.00    +0.118 A 
ATOM     29  C   UNL     1       9.449  -7.372  -4.349  0.00  0.00    +0.058 A 
BRANCH  28  30
ATOM     30  O   UNL     1      11.339  -8.162  -5.555  0.00  0.00    -0.507 OA
ATOM     31  H   UNL     1      11.576  -7.539  -6.255  0.00  0.00    +0.292 HD
ENDBRANCH  28  30
ENDBRANCH  21  24
ENDBRANCH   5  20
TORSDOF 4
