REMARK  Name = ZINC57773724
REMARK  10 active torsions:
REMARK  status: ('A' for Active; 'I' for Inactive)
REMARK    1  A    between atoms: C_1  and  C_2
REMARK    2  A    between atoms: C_2  and  C_4
REMARK    3  A    between atoms: C_2  and  N_25
REMARK    4  A    between atoms: C_12  and  C_14
REMARK    5  A    between atoms: C_14  and  C_15
REMARK    6  A    between atoms: C_15  and  N_16
REMARK    7  A    between atoms: C_26  and  C_28
REMARK    8  A    between atoms: C_28  and  C_30
REMARK    9  A    between atoms: C_28  and  N_37
REMARK   10  A    between atoms: C_30  and  C_31
REMARK                            x       y       z     vdW  Elec       q    Type
REMARK                         _______ _______ _______ _____ _____    ______ ____
ROOT
ATOM      1  C   UNL     1       0.609  -0.451  -1.303  0.00  0.00    +0.236 C 
ATOM      2  O   UNL     1       1.567  -1.195  -1.302  0.00  0.00    -0.274 OA
ATOM      3  N   UNL     1       0.088  -0.024  -2.470  0.00  0.00    -0.297 N 
ATOM      4  C   UNL     1      -0.997   0.967  -2.486  0.00  0.00    +0.127 C 
ATOM      5  C   UNL     1      -0.564   2.153  -3.357  0.00  0.00    +0.126 C 
ATOM      6  N   UNL     1      -0.057   1.637  -4.636  0.00  0.00    -0.298 N 
ATOM      7  C   UNL     1       1.028   0.646  -4.620  0.00  0.00    +0.126 C 
ATOM      8  C   UNL     1       0.599  -0.536  -3.749  0.00  0.00    +0.127 C 
ATOM      9  C   UNL     1      -0.578   2.064  -5.803  0.00  0.00    +0.217 C 
ATOM     10  O   UNL     1      -1.474   2.882  -5.804  0.00  0.00    -0.276 OA
ENDROOT
BRANCH   1  12
ATOM     11  C   UNL     1       0.618   1.331   0.421  0.00  0.00    +0.038 C 
ATOM     12  C   UNL     1       0.002  -0.005   0.002  0.00  0.00    +0.156 C 
BRANCH  12  13
ATOM     13  N   UNL     1       0.268  -1.010   1.034  0.00  0.00    -0.303 N 
ATOM     14  C   UNL     1      -0.550  -1.115   2.100  0.00  0.00    +0.231 C 
ATOM     15  O   UNL     1      -1.507  -0.376   2.205  0.00  0.00    -0.274 OA
ATOM     16  H   UNL     1       1.032  -1.601   0.950  0.00  0.00    +0.149 HD
BRANCH  14  17
ATOM     17  C   UNL     1      -0.277  -2.149   3.161  0.00  0.00    +0.142 C 
BRANCH  17  18
ATOM     18  N   UNL     1      -0.970  -1.773   4.401  0.00  0.00    -0.320 NA
ATOM     19  H   UNL     1      -1.966  -1.715   4.255  0.00  0.00    +0.119 HD
ATOM     20  H   UNL     1      -0.750  -2.416   5.147  0.00  0.00    +0.119 HD
ENDBRANCH  17  18
BRANCH  17  21
ATOM     21  C   UNL     1      -0.783  -3.512   2.687  0.00  0.00    +0.063 C 
BRANCH  21  22
ATOM     22  C   UNL     1      -0.401  -4.568   3.693  0.00  0.00    -0.045 A 
ATOM     23  C   UNL     1       0.807  -5.228   3.576  0.00  0.00    +0.004 A 
ATOM     24  C   UNL     1       1.158  -6.196   4.498  0.00  0.00    +0.000 A 
ATOM     25  C   UNL     1       0.300  -6.503   5.538  0.00  0.00    +0.000 A 
ATOM     26  C   UNL     1      -0.908  -5.842   5.655  0.00  0.00    +0.000 A 
ATOM     27  C   UNL     1      -1.256  -4.871   4.735  0.00  0.00    +0.004 A 
ENDBRANCH  21  22
ENDBRANCH  17  21
ENDBRANCH  14  17
ENDBRANCH  12  13
ENDBRANCH   1  12
BRANCH   9  28
ATOM     28  C   UNL     1      -0.048   1.526  -7.107  0.00  0.00    +0.117 C 
BRANCH  28  29
ATOM     29  C   UNL     1      -0.806   2.169  -8.270  0.00  0.00    +0.131 C 
BRANCH  29  30
ATOM     30  N   UNL     1      -0.291   1.646  -9.538  0.00  0.00    -0.345 N 
ATOM     31  C   UNL     1       0.678   2.241 -10.297  0.00  0.00    +0.087 A 
ATOM     32  C   UNL     1       0.919   1.503 -11.395  0.00  0.00    +0.027 A 
ATOM     33  C   UNL     1       0.034   0.343 -11.332  0.00  0.00    +0.003 A 
ATOM     34  C   UNL     1      -0.705   0.479 -10.137  0.00  0.00    +0.065 A 
ATOM     35  C   UNL     1      -1.634  -0.502  -9.818  0.00  0.00    +0.109 A 
ATOM     36  N   UNL     1      -1.811  -1.534 -10.617  0.00  0.00    -0.365 N 
ATOM     37  C   UNL     1      -1.131  -1.689 -11.742  0.00  0.00    +0.083 A 
ATOM     38  C   UNL     1      -0.202  -0.771 -12.143  0.00  0.00    +0.027 A 
ATOM     39  H   UNL     1      -2.466  -2.207 -10.372  0.00  0.00    +0.165 HD
ENDBRANCH  29  30
ENDBRANCH  28  29
ENDBRANCH   9  28
TORSDOF 9
