REMARK  Name = ZINC39073094
REMARK  2 active torsions:
REMARK  status: ('A' for Active; 'I' for Inactive)
REMARK    1  A    between atoms: C_4  and  C_7
REMARK    2  A    between atoms: N_9  and  N_10
REMARK                            x       y       z     vdW  Elec       q    Type
REMARK                         _______ _______ _______ _____ _____    ______ ____
ROOT
ATOM      1  N   UNL     1       3.637  -2.216  -3.853  0.00  0.00    -0.091 NA
ATOM      2  S   UNL     1       2.567  -3.214  -4.840  0.00  0.00    -0.012 S 
ATOM      3  C   UNL     1       1.471  -2.055  -5.588  0.00  0.00    +0.025 C 
ATOM      4  C   UNL     1       0.132  -2.048  -5.500  0.00  0.00    +0.013 C 
ATOM      5  C   UNL     1      -0.424  -0.932  -6.261  0.00  0.00    -0.002 C 
ATOM      6  C   UNL     1       0.545  -0.223  -6.833  0.00  0.00    -0.002 C 
ATOM      7  C   UNL     1       1.855  -0.874  -6.451  0.00  0.00    +0.126 C 
ATOM      8  N   UNL     1       2.571  -1.329  -7.650  0.00  0.00    -0.238 NA
ATOM      9  S   UNL     1       3.748  -2.581  -7.246  0.00  0.00    +0.017 S 
ATOM     10  N   UNL     1       5.193  -1.677  -6.786  0.00  0.00    -0.180 NA
ATOM     11  S   UNL     1       6.387  -2.734  -6.030  0.00  0.00    +0.028 S 
ATOM     12  N   UNL     1       6.377  -2.245  -4.335  0.00  0.00    -0.178 NA
ATOM     13  S   UNL     1       5.113  -3.092  -3.439  0.00  0.00    +0.049 S 
ATOM     14  H   UNL     1       3.013  -0.555  -8.122  0.00  0.00    +0.137 HD
ATOM     15  H   UNL     1       4.958  -0.904  -6.181  0.00  0.00    +0.151 HD
ATOM     16  H   UNL     1       7.281  -2.392  -3.911  0.00  0.00    +0.151 HD
ENDROOT
BRANCH   1  19
ATOM     17  C   UNL     1       2.859  -0.454  -2.507  0.00  0.00    +0.231 C 
ATOM     18  O   UNL     1       3.301   0.345  -3.306  0.00  0.00    -0.274 OA
ATOM     19  N   UNL     1       2.998  -1.776  -2.729  0.00  0.00    -0.227 N 
ATOM     20  H   UNL     1       2.644  -2.415  -2.091  0.00  0.00    +0.171 HD
BRANCH  17  24
ATOM     21  C   UNL     1      -0.019   1.526   0.010  0.00  0.00    +0.000 C 
ATOM     22  C   UNL     1       1.417   2.055  -0.000  0.00  0.00    +0.001 C 
ATOM     23  C   UNL     1       2.133   1.562  -1.259  0.00  0.00    +0.013 C 
ATOM     24  C   UNL     1       2.154   0.032  -1.268  0.00  0.00    +0.076 C 
ATOM     25  C   UNL     1       0.718  -0.497  -1.257  0.00  0.00    +0.013 C 
ATOM     26  C   UNL     1       0.002  -0.004   0.002  0.00  0.00    +0.001 C 
ENDBRANCH  17  24
ENDBRANCH   1  19
TORSDOF 2
