REMARK  Name = ZINC43553659
REMARK  13 active torsions:
REMARK  status: ('A' for Active; 'I' for Inactive)
REMARK    1  A    between atoms: C_1  and  C_2
REMARK    2  A    between atoms: C_5  and  O_35
REMARK    3  A    between atoms: C_7  and  C_32
REMARK    4  A    between atoms: C_7  and  C_33
REMARK    5  A    between atoms: C_14  and  C_16
REMARK    6  A    between atoms: C_21  and  C_23
REMARK    7  A    between atoms: C_23  and  C_24
REMARK    8  A    between atoms: N_26  and  C_27
REMARK    9  A    between atoms: C_27  and  C_28
REMARK   10  A    between atoms: C_28  and  N_29
REMARK   11  A    between atoms: N_29  and  C_30
REMARK   12  A    between atoms: N_29  and  C_31
REMARK   13  A    between atoms: C_33  and  O_34
REMARK                            x       y       z     vdW  Elec       q    Type
REMARK                         _______ _______ _______ _____ _____    ______ ____
ROOT
ATOM      1  C   UNL     1       0.117   1.506  -0.019  0.00  0.00    +0.012 C 
ATOM      2  C   UNL     1       0.117  -0.031  -0.009  0.00  0.00    -0.020 C 
ATOM      3  C   UNL     1      -1.325  -0.517   0.066  0.00  0.00    +0.010 C 
ATOM      4  C   UNL     1      -1.977   0.042   1.331  0.00  0.00    +0.032 C 
ATOM      5  C   UNL     1      -1.233  -0.380   2.584  0.00  0.00    +0.123 C 
ATOM      6  C   UNL     1       0.273  -0.192   2.529  0.00  0.00    +0.021 C 
ATOM      7  C   UNL     1       0.891  -0.576   1.185  0.00  0.00    +0.011 C 
ATOM      8  C   UNL     1       0.938  -2.116   1.136  0.00  0.00    +0.049 C 
ATOM      9  C   UNL     1       1.028  -2.629  -0.255  0.00  0.00    +0.014 A 
ATOM     10  C   UNL     1       0.931  -1.928  -1.417  0.00  0.00    +0.056 A 
ATOM     11  N   UNL     1       0.995  -2.610  -2.552  0.00  0.00    -0.243 NA
ATOM     12  C   UNL     1       1.179  -3.921  -2.577  0.00  0.00    +0.109 A 
ATOM     13  S   UNL     1       1.285  -4.289  -0.829  0.00  0.00    -0.072 S 
ATOM     14  C   UNL     1       0.784  -0.419  -1.331  0.00  0.00    +0.053 C 
ATOM     15  C   UNL     1       0.646   1.236   2.947  0.00  0.00    +0.016 C 
ENDROOT
BRANCH  12  16
ATOM     16  C   UNL     1       1.273  -4.833  -3.736  0.00  0.00    +0.014 A 
ATOM     17  C   UNL     1       1.466  -6.201  -3.554  0.00  0.00    +0.018 A 
ATOM     18  C   UNL     1       1.546  -7.003  -4.638  0.00  0.00    +0.046 A 
ATOM     19  S   UNL     1       1.350  -5.845  -5.982  0.00  0.00    -0.104 S 
ATOM     20  C   UNL     1       1.167  -4.356  -5.015  0.00  0.00    +0.055 A 
ENDBRANCH  12  16
BRANCH   5  21
ATOM     21  O   UNL     1      -1.549  -1.742   2.899  0.00  0.00    -0.391 OA
ATOM     22  H   UNL     1      -2.489  -1.900   3.061  0.00  0.00    +0.210 HD
ENDBRANCH   5  21
BRANCH  14  23
ATOM     23  C   UNL     1      -0.019   0.108  -2.516  0.00  0.00    +0.106 C 
BRANCH  23  24
ATOM     24  C   UNL     1       0.723  -0.182  -3.795  0.00  0.00    +0.214 C 
ATOM     25  O   UNL     1       1.792  -0.755  -3.760  0.00  0.00    -0.276 OA
ATOM     26  N   UNL     1       0.200   0.196  -4.979  0.00  0.00    -0.317 N 
ATOM     27  H   UNL     1      -0.654   0.654  -5.007  0.00  0.00    +0.149 HD
BRANCH  26  28
ATOM     28  C   UNL     1       0.922  -0.086  -6.222  0.00  0.00    +0.085 C 
BRANCH  28  29
ATOM     29  C   UNL     1       0.116   0.442  -7.410  0.00  0.00    -0.061 C 
BRANCH  29  30
ATOM     30  N   UNL     1       0.840   0.159  -8.657  0.00  0.00    +0.377 N 
ATOM     31  C   UNL     1       0.920  -1.294  -8.858  0.00  0.00    -0.097 C 
ATOM     32  C   UNL     1       0.127   0.771  -9.787  0.00  0.00    -0.097 C 
ATOM     33  H   UNL     1       1.771   0.543  -8.600  0.00  0.00    -0.083 HD
ENDBRANCH  29  30
ENDBRANCH  28  29
ENDBRANCH  26  28
ENDBRANCH  23  24
ENDBRANCH  14  23
BRANCH   6  34
ATOM     34  C   UNL     1       0.884  -1.107   3.623  0.00  0.00    +0.165 C 
BRANCH  34  35
ATOM     35  O   UNL     1       0.374  -0.726   4.903  0.00  0.00    -0.394 OA
ATOM     36  H   UNL     1       0.714  -1.257   5.636  0.00  0.00    +0.209 HD
ENDBRANCH  34  35
ENDBRANCH   6  34
TORSDOF 9
