REMARK  Name = ZINC15558857
REMARK  8 active torsions:
REMARK  status: ('A' for Active; 'I' for Inactive)
REMARK    1  A    between atoms: N_13  and  C_16
REMARK    2  A    between atoms: C_16  and  C_17
REMARK    3  A    between atoms: C_17  and  C_18
REMARK    4  A    between atoms: C_18  and  C_19
REMARK    5  A    between atoms: N_21  and  C_22
REMARK    6  A    between atoms: C_22  and  C_23
REMARK    7  A    between atoms: C_25  and  N_30
REMARK    8  A    between atoms: C_28  and  O_29
REMARK                            x       y       z     vdW  Elec       q    Type
REMARK                         _______ _______ _______ _____ _____    ______ ____
ROOT
ATOM      1  C   UNL     1       2.511  -4.740  -1.491  0.00  0.00    +0.029 C 
ENDROOT
BRANCH   1   2
ATOM      2  C   UNL     1       2.514  -4.238  -0.046  0.00  0.00    +0.117 C 
BRANCH   2  15
ATOM      3  C   UNL     1      -0.017   1.386   0.010  0.00  0.00    +0.001 A 
ATOM      4  C   UNL     1       1.136   2.117   0.003  0.00  0.00    +0.008 A 
ATOM      5  C   UNL     1       2.382   1.466  -0.013  0.00  0.00    -0.016 A 
ATOM      6  C   UNL     1       3.597   2.174  -0.021  0.00  0.00    +0.008 A 
ATOM      7  C   UNL     1       4.782   1.497  -0.037  0.00  0.00    +0.001 A 
ATOM      8  C   UNL     1       4.828   0.107  -0.045  0.00  0.00    +0.014 A 
ATOM      9  C   UNL     1       3.652  -0.628  -0.037  0.00  0.00    +0.046 A 
ATOM     10  C   UNL     1       2.415   0.056  -0.021  0.00  0.00    +0.006 A 
ATOM     11  C   UNL     1       1.211  -0.684  -0.013  0.00  0.00    +0.046 A 
ATOM     12  C   UNL     1       0.002  -0.004   0.002  0.00  0.00    +0.014 A 
ATOM     13  C   UNL     1       1.285  -2.153  -0.022  0.00  0.00    +0.254 C 
ATOM     14  O   UNL     1       0.262  -2.810  -0.016  0.00  0.00    -0.270 OA
ATOM     15  N   UNL     1       2.480  -2.774  -0.037  0.00  0.00    -0.234 N 
ATOM     16  C   UNL     1       3.645  -2.098  -0.046  0.00  0.00    +0.254 C 
ATOM     17  O   UNL     1       4.697  -2.708  -0.060  0.00  0.00    -0.270 OA
ENDBRANCH   2  15
ENDBRANCH   1   2
BRANCH   1  18
ATOM     18  C   UNL     1       2.547  -6.270  -1.500  0.00  0.00    +0.097 C 
BRANCH  18  19
ATOM     19  C   UNL     1       2.544  -6.764  -2.924  0.00  0.00    +0.213 C 
ATOM     20  O   UNL     1       2.517  -5.971  -3.841  0.00  0.00    -0.276 OA
ATOM     21  N   UNL     1       2.572  -8.087  -3.178  0.00  0.00    -0.311 N 
ATOM     22  H   UNL     1       2.594  -8.721  -2.444  0.00  0.00    +0.149 HD
BRANCH  21  23
ATOM     23  C   UNL     1       2.570  -8.568  -4.562  0.00  0.00    +0.143 C 
BRANCH  23  24
ATOM     24  C   UNL     1       2.605 -10.074  -4.571  0.00  0.00    +0.013 A 
ATOM     25  C   UNL     1       1.464 -10.790  -4.879  0.00  0.00    +0.041 A 
ATOM     26  C   UNL     1       1.495 -12.172  -4.887  0.00  0.00    +0.127 A 
ATOM     27  C   UNL     1       2.668 -12.841  -4.587  0.00  0.00    +0.036 A 
ATOM     28  C   UNL     1       3.811 -12.130  -4.279  0.00  0.00    +0.048 A 
ATOM     29  C   UNL     1       3.784 -10.743  -4.275  0.00  0.00    +0.122 A 
BRANCH  26  30
ATOM     30  N   UNL     1       0.272 -12.937  -5.217  0.00  0.00    +0.056 N 
ATOM     31  O   UNL     1      -0.754 -12.353  -5.479  0.00  0.00    -0.126 OA
ATOM     32  O   UNL     1       0.298 -14.146  -5.225  0.00  0.00    -0.126 OA
ENDBRANCH  26  30
BRANCH  29  33
ATOM     33  O   UNL     1       4.908 -10.041  -3.977  0.00  0.00    -0.506 OA
ATOM     34  H   UNL     1       5.013  -9.848  -3.035  0.00  0.00    +0.292 HD
ENDBRANCH  29  33
ENDBRANCH  23  24
ENDBRANCH  21  23
ENDBRANCH  18  19
ENDBRANCH   1  18
TORSDOF 8
