REMARK  Name = ZINC19771527
REMARK  8 active torsions:
REMARK  status: ('A' for Active; 'I' for Inactive)
REMARK    1  A    between atoms: C_1  and  C_2
REMARK    2  A    between atoms: C_3  and  C_17
REMARK    3  A    between atoms: C_4  and  O_16
REMARK    4  A    between atoms: C_13  and  O_15
REMARK    5  A    between atoms: C_17  and  O_19
REMARK    6  A    between atoms: O_19  and  C_20
REMARK    7  A    between atoms: C_20  and  C_21
REMARK    8  A    between atoms: C_21  and  C_22
REMARK                            x       y       z     vdW  Elec       q    Type
REMARK                         _______ _______ _______ _____ _____    ______ ____
ROOT
ATOM      1  C   UNL     1      -0.032  -1.191   3.564  0.00  0.00    +0.061 C 
ATOM      2  C   UNL     1      -0.285  -0.714   2.157  0.00  0.00    +0.017 C 
ATOM      3  C   UNL     1       0.691  -0.562   1.201  0.00  0.00    +0.097 C 
ATOM      4  C   UNL     1       0.002  -0.004   0.002  0.00  0.00    +0.211 C 
ATOM      5  C   UNL     1       0.197  -0.557  -1.377  0.00  0.00    +0.205 C 
ATOM      6  O   UNL     1       1.183  -1.068  -1.864  0.00  0.00    -0.288 OA
ATOM      7  C   UNL     1      -1.170  -0.315  -1.983  0.00  0.00    +0.028 A 
ATOM      8  C   UNL     1      -1.558  -0.080  -3.297  0.00  0.00    +0.012 A 
ATOM      9  C   UNL     1      -2.883   0.153  -3.601  0.00  0.00    +0.001 A 
ATOM     10  C   UNL     1      -3.830   0.154  -2.591  0.00  0.00    +0.000 A 
ATOM     11  C   UNL     1      -3.462  -0.088  -1.282  0.00  0.00    +0.009 A 
ATOM     12  C   UNL     1      -2.147  -0.337  -0.948  0.00  0.00    +0.016 A 
ATOM     13  C   UNL     1      -1.417  -0.646   0.272  0.00  0.00    +0.199 C 
ATOM     14  N   UNL     1      -1.541  -0.368   1.653  0.00  0.00    -0.313 N 
ATOM     15  H   UNL     1      -2.488   0.025   2.051  0.00  0.00    +0.149 HD
ENDROOT
BRANCH  13  16
ATOM     16  O   UNL     1      -1.092  -2.035   0.176  0.00  0.00    -0.365 OA
ATOM     17  H   UNL     1      -1.876  -2.794   0.316  0.00  0.00    +0.212 HD
ENDBRANCH  13  16
BRANCH   4  18
ATOM     18  O   UNL     1      -0.017   1.425   0.010  0.00  0.00    -0.372 OA
ATOM     19  H   UNL     1      -0.494   1.973  -0.816  0.00  0.00    +0.211 HD
ENDBRANCH   4  18
BRANCH   3  20
ATOM     20  C   UNL     1       2.062  -0.871   1.328  0.00  0.00    +0.340 C 
ATOM     21  O   UNL     1       2.490  -1.324   2.373  0.00  0.00    -0.245 OA
BRANCH  20  22
ATOM     22  O   UNL     1       2.900  -0.664   0.289  0.00  0.00    -0.461 OA
BRANCH  22  23
ATOM     23  C   UNL     1       4.274  -0.999   0.488  0.00  0.00    +0.237 C 
BRANCH  23  24
ATOM     24  C   UNL     1       5.062  -0.698  -0.789  0.00  0.00    +0.076 C 
BRANCH  24  25
ATOM     25  C   UNL     1       6.512  -1.051  -0.580  0.00  0.00    -0.044 A 
ATOM     26  C   UNL     1       7.392  -0.101  -0.095  0.00  0.00    +0.004 A 
ATOM     27  C   UNL     1       8.721  -0.427   0.101  0.00  0.00    +0.000 A 
ATOM     28  C   UNL     1       9.172  -1.699  -0.196  0.00  0.00    +0.000 A 
ATOM     29  C   UNL     1       8.293  -2.647  -0.685  0.00  0.00    +0.000 A 
ATOM     30  C   UNL     1       6.963  -2.323  -0.877  0.00  0.00    +0.004 A 
ENDBRANCH  24  25
ENDBRANCH  23  24
ENDBRANCH  22  23
ENDBRANCH  20  22
ENDBRANCH   3  20
TORSDOF 7
