REMARK  Name = ZINC40158386
REMARK  10 active torsions:
REMARK  status: ('A' for Active; 'I' for Inactive)
REMARK    1  A    between atoms: C_1  and  N_2
REMARK    2  A    between atoms: C_4  and  S_10
REMARK    3  A    between atoms: C_6  and  C_7
REMARK    4  A    between atoms: S_10  and  N_13
REMARK    5  A    between atoms: N_13  and  C_14
REMARK    6  A    between atoms: N_13  and  C_19
REMARK    7  A    between atoms: C_14  and  C_15
REMARK    8  A    between atoms: C_15  and  N_16
REMARK    9  A    between atoms: N_16  and  C_17
REMARK   10  A    between atoms: N_16  and  C_18
REMARK                            x       y       z     vdW  Elec       q    Type
REMARK                         _______ _______ _______ _____ _____    ______ ____
ROOT
ATOM      1  S   UNL     1      -0.116  -3.489  -1.782  0.00  0.00    +0.076 S 
ATOM      2  O   UNL     1      -0.581  -4.574  -0.993  0.00  0.00    -0.150 OA
ATOM      3  O   UNL     1      -0.784  -3.063  -2.962  0.00  0.00    -0.150 OA
ENDROOT
BRANCH   1   7
ATOM      4  C   UNL     1      -0.018   1.461   0.010  0.00  0.00    +0.149 C 
ATOM      5  N   UNL     1       0.001  -0.004   0.002  0.00  0.00    -0.344 N 
ATOM      6  C   UNL     1      -0.090  -0.790  -1.098  0.00  0.00    +0.114 A 
ATOM      7  C   UNL     1      -0.037  -2.088  -0.716  0.00  0.00    +0.127 A 
ATOM      8  C   UNL     1       0.092  -2.120   0.676  0.00  0.00    +0.061 A 
ATOM      9  C   UNL     1       0.120  -0.812   1.111  0.00  0.00    +0.106 A 
BRANCH   9  10
ATOM     10  C   UNL     1       0.249  -0.362   2.501  0.00  0.00    +0.258 C 
ATOM     11  O   UNL     1       0.170   0.823   2.767  0.00  0.00    -0.269 OA
ATOM     12  N   UNL     1       0.456  -1.261   3.483  0.00  0.00    -0.324 N 
ATOM     13  H   UNL     1       0.592  -2.196   3.264  0.00  0.00    +0.145 HD
ATOM     14  H   UNL     1       0.468  -0.973   4.410  0.00  0.00    +0.145 HD
ENDBRANCH   9  10
ENDBRANCH   1   7
BRANCH   1  15
ATOM     15  N   UNL     1       1.437  -3.856  -2.224  0.00  0.00    -0.205 N 
BRANCH  15  16
ATOM     16  C   UNL     1       1.994  -3.277  -3.367  0.00  0.00    +0.052 A 
ATOM     17  C   UNL     1       3.025  -3.919  -4.041  0.00  0.00    +0.025 A 
ATOM     18  C   UNL     1       3.574  -3.344  -5.170  0.00  0.00    +0.003 A 
ATOM     19  C   UNL     1       3.098  -2.130  -5.631  0.00  0.00    +0.015 A 
ATOM     20  C   UNL     1       2.071  -1.488  -4.963  0.00  0.00    +0.020 A 
ATOM     21  C   UNL     1       1.513  -2.061  -3.835  0.00  0.00    +0.040 A 
ATOM     22 BR   UNL     1       1.423   0.172  -5.597  0.00  0.00    -0.050 Br
ENDBRANCH  15  16
BRANCH  15  23
ATOM     23  C   UNL     1       2.227  -4.788  -1.416  0.00  0.00    +0.113 C 
BRANCH  23  24
ATOM     24  C   UNL     1       2.115  -6.196  -2.006  0.00  0.00    -0.059 C 
BRANCH  24  25
ATOM     25  N   UNL     1       2.907  -7.131  -1.196  0.00  0.00    +0.377 N 
ATOM     26  C   UNL     1       2.704  -8.499  -1.689  0.00  0.00    -0.097 C 
ATOM     27  C   UNL     1       4.330  -6.780  -1.296  0.00  0.00    -0.097 C 
ATOM     28  H   UNL     1       2.613  -7.073  -0.232  0.00  0.00    -0.083 HD
ENDBRANCH  24  25
ENDBRANCH  23  24
ENDBRANCH  15  23
ENDBRANCH   1  15
TORSDOF 7
