REMARK  Name = ZINC45443099
REMARK  9 active torsions:
REMARK  status: ('A' for Active; 'I' for Inactive)
REMARK    1  A    between atoms: C_1  and  C_2
REMARK    2  A    between atoms: C_2  and  C_3
REMARK    3  A    between atoms: C_3  and  C_22
REMARK    4  A    between atoms: N_6  and  N_10
REMARK    5  A    between atoms: C_11  and  C_13
REMARK    6  A    between atoms: C_13  and  S_14
REMARK    7  A    between atoms: S_14  and  C_15
REMARK    8  A    between atoms: C_18  and  S_20
REMARK    9  A    between atoms: S_20  and  C_21
REMARK                            x       y       z     vdW  Elec       q    Type
REMARK                         _______ _______ _______ _____ _____    ______ ____
ROOT
ATOM      1  C   UNL     1      -1.433  -0.534   0.013  0.00  0.00    +0.139 C 
ATOM      2  C   UNL     1      -2.192  -0.043  -1.205  0.00  0.00    +0.268 C 
ATOM      3  O   UNL     1      -1.933  -0.267  -2.368  0.00  0.00    -0.271 OA
ATOM      4  N   UNL     1      -3.214   0.692  -0.725  0.00  0.00    -0.137 N 
ATOM      5  C   UNL     1      -3.207   0.734   0.612  0.00  0.00    +0.327 C 
ATOM      6  O   UNL     1      -4.031   1.335   1.273  0.00  0.00    -0.251 OA
ATOM      7  N   UNL     1      -2.187   0.036   1.143  0.00  0.00    -0.280 N 
ATOM      8  H   UNL     1      -1.987  -0.072   2.086  0.00  0.00    +0.152 HD
ENDROOT
BRANCH   1   9
ATOM      9  C   UNL     1      -1.441  -2.039   0.076  0.00  0.00    -0.015 A 
ATOM     10  C   UNL     1      -0.400  -2.759  -0.480  0.00  0.00    +0.006 A 
ATOM     11  C   UNL     1      -0.407  -4.141  -0.423  0.00  0.00    +0.000 A 
ATOM     12  C   UNL     1      -1.454  -4.802   0.191  0.00  0.00    +0.000 A 
ATOM     13  C   UNL     1      -2.495  -4.082   0.748  0.00  0.00    +0.000 A 
ATOM     14  C   UNL     1      -2.486  -2.700   0.694  0.00  0.00    +0.006 A 
ENDBRANCH   1   9
BRANCH   4  15
ATOM     15  N   UNL     1      -4.167   1.333  -1.528  0.00  0.00    -0.223 N 
ATOM     16  C   UNL     1      -5.410   0.825  -1.635  0.00  0.00    +0.240 C 
ATOM     17  O   UNL     1      -5.705  -0.187  -1.036  0.00  0.00    -0.273 OA
ATOM     18  H   UNL     1      -3.931   2.143  -2.007  0.00  0.00    +0.174 HD
BRANCH  16  19
ATOM     19  C   UNL     1      -6.435   1.516  -2.498  0.00  0.00    +0.173 C 
BRANCH  19  20
ATOM     20  S   UNL     1      -7.997   0.596  -2.436  0.00  0.00    -0.088 S 
BRANCH  20  21
ATOM     21  C   UNL     1      -9.076   1.517  -3.481  0.00  0.00    +0.160 A 
ATOM     22  N   UNL     1      -8.836   2.617  -4.168  0.00  0.00    -0.134 NA
ATOM     23  N   UNL     1      -9.834   3.178  -4.931  0.00  0.00    -0.134 NA
ATOM     24  C   UNL     1     -11.026   2.614  -4.971  0.00  0.00    +0.159 A 
ATOM     25  S   UNL     1     -10.785   1.206  -3.898  0.00  0.00    -0.033 S 
BRANCH  24  26
ATOM     26  S   UNL     1     -12.468   3.112  -5.853  0.00  0.00    -0.100 S 
ATOM     27  C   UNL     1     -11.951   4.617  -6.725  0.00  0.00    +0.092 C 
ENDBRANCH  24  26
ENDBRANCH  20  21
ENDBRANCH  19  20
ENDBRANCH  16  19
ENDBRANCH   4  15
BRANCH   1  29
ATOM     28  C   UNL     1      -0.019   1.526   0.010  0.00  0.00    +0.007 C 
ATOM     29  C   UNL     1       0.002  -0.004   0.002  0.00  0.00    +0.037 C 
ENDBRANCH   1  29
TORSDOF 7
