REMARK  Name = ZINC04090558
REMARK  6 active torsions:
REMARK  status: ('A' for Active; 'I' for Inactive)
REMARK    1  A    between atoms: C_1  and  N_2
REMARK    2  A    between atoms: C_5  and  C_19
REMARK    3  A    between atoms: C_6  and  O_18
REMARK    4  A    between atoms: N_7  and  C_10
REMARK    5  A    between atoms: C_13  and  O_16
REMARK    6  A    between atoms: O_16  and  C_17
REMARK                            x       y       z     vdW  Elec       q    Type
REMARK                         _______ _______ _______ _____ _____    ______ ____
ROOT
ATOM      1  C   UNL     1      -1.469  -0.666  -4.313  0.00  0.00    +0.157 C 
ATOM      2  N   UNL     1      -2.200  -0.777  -3.049  0.00  0.00    -0.263 N 
ATOM      3  C   UNL     1      -2.511   0.336  -2.356  0.00  0.00    +0.262 A 
ATOM      4  O   UNL     1      -2.186   1.432  -2.778  0.00  0.00    -0.267 OA
ATOM      5  C   UNL     1      -3.213   0.224  -1.142  0.00  0.00    +0.069 A 
ATOM      6  C   UNL     1      -3.560  -1.014  -0.689  0.00  0.00    +0.208 A 
ATOM      7  N   UNL     1      -3.228  -2.122  -1.430  0.00  0.00    -0.232 N 
ATOM      8  C   UNL     1      -2.556  -1.990  -2.588  0.00  0.00    +0.339 A 
ATOM      9  O   UNL     1      -2.266  -2.983  -3.228  0.00  0.00    -0.246 OA
ENDROOT
BRANCH   5  10
ATOM     10  C   UNL     1      -3.571   1.456  -0.351  0.00  0.00    +0.018 C 
ATOM     11  C   UNL     1      -2.311   2.130   0.139  0.00  0.00    +0.011 A 
ATOM     12  C   UNL     1      -2.127   3.466   0.090  0.00  0.00    -0.022 A 
ATOM     13  C   UNL     1      -0.805   3.746   0.634  0.00  0.00    +0.003 A 
ATOM     14  C   UNL     1      -0.058   4.908   0.841  0.00  0.00    +0.010 A 
ATOM     15  C   UNL     1       1.190   4.826   1.390  0.00  0.00    +0.001 A 
ATOM     16  C   UNL     1       1.724   3.595   1.746  0.00  0.00    +0.002 A 
ATOM     17  C   UNL     1       1.006   2.436   1.552  0.00  0.00    +0.026 A 
ATOM     18  C   UNL     1      -0.267   2.495   0.994  0.00  0.00    +0.047 A 
ATOM     19  N   UNL     1      -1.209   1.538   0.683  0.00  0.00    -0.359 N 
ATOM     20  H   UNL     1      -1.103   0.584   0.826  0.00  0.00    +0.166 HD
ATOM     21  C   UNL     1      -3.151   4.433  -0.448  0.00  0.00    +0.018 C 
ATOM     22  C   UNL     1      -4.493   3.697  -0.541  0.00  0.00    -0.076 C 
ATOM     23  N   UNL     1      -4.306   2.399  -1.222  0.00  0.00    +0.388 N 
ATOM     24  H   UNL     1      -5.226   2.002  -1.450  0.00  0.00    -0.084 HD
ATOM     25  H   UNL     1      -3.773   2.546  -2.087  0.00  0.00    -0.084 HD
ENDBRANCH   5  10
BRANCH   7  26
ATOM     26  C   UNL     1      -3.587  -3.398  -0.973  0.00  0.00    +0.054 A 
ATOM     27  C   UNL     1      -4.813  -3.944  -1.327  0.00  0.00    +0.030 A 
ATOM     28  C   UNL     1      -5.163  -5.203  -0.882  0.00  0.00    +0.047 A 
ATOM     29  C   UNL     1      -4.294  -5.918  -0.070  0.00  0.00    +0.120 A 
ATOM     30  C   UNL     1      -3.071  -5.371   0.289  0.00  0.00    +0.047 A 
ATOM     31  C   UNL     1      -2.717  -4.115  -0.161  0.00  0.00    +0.030 A 
BRANCH  29  32
ATOM     32  O   UNL     1      -4.642  -7.156   0.373  0.00  0.00    -0.495 OA
ATOM     33  C   UNL     1      -5.916  -7.657  -0.036  0.00  0.00    +0.277 C 
ENDBRANCH  29  32
ENDBRANCH   7  26
BRANCH   6  34
ATOM     34  O   UNL     1      -4.229  -1.149   0.476  0.00  0.00    -0.493 OA
ATOM     35  H   UNL     1      -4.361  -2.067   0.749  0.00  0.00    +0.294 HD
ENDBRANCH   6  34
TORSDOF 4
