REMARK  Name = ZINC36602816
REMARK  9 active torsions:
REMARK  status: ('A' for Active; 'I' for Inactive)
REMARK    1  A    between atoms: C_1  and  N_2
REMARK    2  A    between atoms: C_4  and  C_10
REMARK    3  A    between atoms: C_10  and  C_12
REMARK    4  A    between atoms: C_10  and  C_26
REMARK    5  A    between atoms: C_15  and  O_24
REMARK    6  A    between atoms: C_16  and  C_18
REMARK    7  A    between atoms: C_18  and  N_19
REMARK    8  A    between atoms: O_24  and  C_25
REMARK    9  A    between atoms: N_30  and  C_33
REMARK                            x       y       z     vdW  Elec       q    Type
REMARK                         _______ _______ _______ _____ _____    ______ ____
ROOT
ATOM      1  C   UNL     1      -2.770   4.229  -2.161  0.00  0.00    +0.080 C 
ENDROOT
BRANCH   1   5
ATOM      2  C   UNL     1       0.919   1.508  -1.078  0.00  0.00    +0.140 C 
ATOM      3  N   UNL     1      -0.125   1.948  -2.008  0.00  0.00    -0.256 N 
ATOM      4  C   UNL     1      -0.517   3.239  -1.987  0.00  0.00    +0.234 C 
ATOM      5  C   UNL     1      -1.600   3.658  -2.964  0.00  0.00    +0.173 C 
ATOM      6  C   UNL     1      -2.138   2.571  -3.876  0.00  0.00    +0.231 C 
ATOM      7  O   UNL     1      -3.004   2.806  -4.691  0.00  0.00    -0.275 OA
ATOM      8  N   UNL     1      -1.616   1.333  -3.746  0.00  0.00    -0.267 N 
ATOM      9  C   UNL     1      -0.656   1.059  -2.855  0.00  0.00    +0.145 C 
ATOM     10  S   UNL     1      -0.070  -0.548  -2.790  0.00  0.00    -0.018 S 
ATOM     11  O   UNL     1      -0.024   4.034  -1.217  0.00  0.00    -0.274 OA
ATOM     12  H   UNL     1      -1.944   0.622  -4.318  0.00  0.00    +0.157 HD
ENDBRANCH   1   5
BRANCH   1  13
ATOM     13  C   UNL     1      -3.865   4.656  -3.104  0.00  0.00    +0.090 A 
ATOM     14  C   UNL     1      -5.138   4.197  -2.939  0.00  0.00    +0.260 A 
ATOM     15  N   UNL     1      -6.120   4.598  -3.809  0.00  0.00    -0.302 N 
ATOM     16  C   UNL     1      -5.832   5.439  -4.820  0.00  0.00    +0.163 A 
ATOM     17  N   UNL     1      -4.582   5.903  -5.001  0.00  0.00    -0.291 N 
ATOM     18  C   UNL     1      -3.590   5.538  -4.164  0.00  0.00    +0.262 A 
ATOM     19  O   UNL     1      -2.460   5.966  -4.329  0.00  0.00    -0.267 OA
ATOM     20  C   UNL     1      -4.299   6.816  -6.111  0.00  0.00    +0.154 C 
ATOM     21  S   UNL     1      -7.075   5.924  -5.893  0.00  0.00    -0.013 S 
ATOM     22  O   UNL     1      -5.431   3.353  -1.927  0.00  0.00    -0.267 OA
ATOM     23  H   UNL     1      -7.027   4.274  -3.696  0.00  0.00    +0.171 HD
ENDBRANCH   1  13
BRANCH   1  24
ATOM     24  C   UNL     1      -2.301   5.419  -1.365  0.00  0.00    -0.038 A 
ATOM     25  C   UNL     1      -1.403   6.312  -1.922  0.00  0.00    +0.008 A 
ATOM     26  C   UNL     1      -0.971   7.403  -1.194  0.00  0.00    +0.046 A 
ATOM     27  C   UNL     1      -1.438   7.604   0.097  0.00  0.00    +0.121 A 
ATOM     28  C   UNL     1      -2.339   6.707   0.653  0.00  0.00    -0.022 A 
ATOM     29  C   UNL     1      -2.772   5.620  -0.081  0.00  0.00    +0.009 A 
BRANCH  27  30
ATOM     30  O   UNL     1      -1.014   8.677   0.815  0.00  0.00    -0.495 OA
ATOM     31  C   UNL     1      -0.086   9.558   0.178  0.00  0.00    +0.277 C 
ENDBRANCH  27  30
BRANCH  28  32
ATOM     32  C   UNL     1      -2.848   6.922   2.055  0.00  0.00    -0.039 C 
BRANCH  32  33
ATOM     33  N   UNL     1      -1.797   6.565   3.018  0.00  0.00    +0.382 N 
ATOM     34  C   UNL     1      -0.681   7.542   2.942  0.00  0.00    -0.078 C 
ATOM     35  C   UNL     1       0.018   7.389   4.317  0.00  0.00    -0.020 C 
ATOM     36  C   UNL     1      -1.168   7.168   5.284  0.00  0.00    -0.020 C 
ATOM     37  C   UNL     1      -2.319   6.656   4.399  0.00  0.00    -0.078 C 
ATOM     38  H   UNL     1      -1.458   5.633   2.834  0.00  0.00    -0.081 HD
ENDBRANCH  32  33
ENDBRANCH  28  32
ENDBRANCH   1  24
TORSDOF 6
