REMARK  Name = ZINC36684463
REMARK  7 active torsions:
REMARK  status: ('A' for Active; 'I' for Inactive)
REMARK    1  A    between atoms: C_1  and  C_2
REMARK    2  A    between atoms: N_11  and  C_15
REMARK    3  A    between atoms: C_15  and  C_16
REMARK    4  A    between atoms: N_18  and  C_19
REMARK    5  A    between atoms: C_19  and  C_20
REMARK    6  A    between atoms: C_20  and  C_22
REMARK    7  A    between atoms: C_20  and  N_27
REMARK                            x       y       z     vdW  Elec       q    Type
REMARK                         _______ _______ _______ _____ _____    ______ ____
ROOT
ATOM      1  C   UNL     1       2.717   3.420   3.105  0.00  0.00    +0.231 C 
ATOM      2  O   UNL     1       1.710   3.949   2.685  0.00  0.00    -0.274 OA
ATOM      3  N   UNL     1       3.889   4.083   3.075  0.00  0.00    -0.315 N 
ATOM      4  H   UNL     1       4.695   3.659   3.411  0.00  0.00    +0.149 HD
ENDROOT
BRANCH   1   5
ATOM      5  C   UNL     1       2.656   2.020   3.661  0.00  0.00    +0.213 C 
BRANCH   5  15
ATOM      6  C   UNL     1      -1.336   2.712   1.861  0.00  0.00    +0.010 C 
ATOM      7  C   UNL     1      -1.613   1.208   1.905  0.00  0.00    +0.018 C 
ATOM      8  C   UNL     1      -1.407   0.610   0.511  0.00  0.00    +0.006 C 
ATOM      9  C   UNL     1      -1.664  -0.898   0.561  0.00  0.00    +0.000 C 
ATOM     10  C   UNL     1      -0.683  -1.551   1.536  0.00  0.00    +0.003 C 
ATOM     11  C   UNL     1      -0.886  -0.962   2.935  0.00  0.00    +0.035 C 
ATOM     12  C   UNL     1      -0.658   0.545   2.892  0.00  0.00    +0.115 C 
ATOM     13  C   UNL     1       0.775   0.852   2.527  0.00  0.00    +0.247 C 
ATOM     14  O   UNL     1       1.351   0.559   1.501  0.00  0.00    -0.273 OA
ATOM     15  N   UNL     1       1.281   1.522   3.583  0.00  0.00    -0.215 N 
ATOM     16  C   UNL     1       0.369   1.676   4.551  0.00  0.00    +0.310 C 
ATOM     17  O   UNL     1       0.588   2.247   5.602  0.00  0.00    -0.252 OA
ATOM     18  N   UNL     1      -0.818   1.126   4.231  0.00  0.00    -0.285 N 
ATOM     19  H   UNL     1      -1.620   1.117   4.777  0.00  0.00    +0.151 HD
ENDBRANCH   5  15
ENDBRANCH   1   5
BRANCH   3  20
ATOM     20  C   UNL     1       3.948   5.443   2.534  0.00  0.00    +0.096 C 
BRANCH  20  21
ATOM     21  C   UNL     1       5.354   6.012   2.735  0.00  0.00    +0.016 C 
BRANCH  21  22
ATOM     22  N   UNL     1       5.701   5.968   4.162  0.00  0.00    +0.387 N 
ATOM     23  C   UNL     1       4.673   6.675   4.936  0.00  0.00    -0.078 C 
ATOM     24  C   UNL     1       4.987   6.564   6.429  0.00  0.00    -0.019 C 
ATOM     25  C   UNL     1       6.357   7.189   6.706  0.00  0.00    -0.004 C 
ATOM     26  C   UNL     1       7.410   6.493   5.838  0.00  0.00    -0.019 C 
ATOM     27  C   UNL     1       7.006   6.607   4.367  0.00  0.00    -0.078 C 
ATOM     28  H   UNL     1       5.747   5.007   4.467  0.00  0.00    -0.081 HD
ENDBRANCH  21  22
BRANCH  21  29
ATOM     29  C   UNL     1       5.393   7.439   2.252  0.00  0.00    +0.093 A 
ATOM     30  C   UNL     1       6.014   7.877   1.142  0.00  0.00    +0.043 A 
ATOM     31  C   UNL     1       5.795   9.272   1.075  0.00  0.00    +0.041 A 
ATOM     32  C   UNL     1       5.054   9.603   2.147  0.00  0.00    +0.195 A 
ATOM     33  O   UNL     1       4.809   8.488   2.854  0.00  0.00    -0.469 OA
ENDBRANCH  21  29
ENDBRANCH  20  21
ENDBRANCH   3  20
TORSDOF 6
