REMARK  Name = ZINC63294684
REMARK  2 active torsions:
REMARK  status: ('A' for Active; 'I' for Inactive)
REMARK    1  A    between atoms: N_18  and  C_19
REMARK    2  A    between atoms: C_19  and  C_20
REMARK                            x       y       z     vdW  Elec       q    Type
REMARK                         _______ _______ _______ _____ _____    ______ ____
ROOT
ATOM      1  C   UNL     1      -0.016   1.406   0.016  0.00  0.00    +0.022 A 
ATOM      2  C   UNL     1       1.111   2.148   0.012  0.00  0.00    +0.027 A 
ATOM      3  C   UNL     1       2.387   1.522  -0.006  0.00  0.00    +0.043 A 
ATOM      4  N   UNL     1       3.603   2.018   0.007  0.00  0.00    -0.376 N 
ATOM      5  C   UNL     1       4.556   0.916  -0.100  0.00  0.00    +0.124 C 
ATOM      6  C   UNL     1       5.542   0.896   1.073  0.00  0.00    +0.138 C 
ATOM      7  N   UNL     1       6.176  -0.431   1.108  0.00  0.00    -0.283 N 
ATOM      8  C   UNL     1       5.365  -1.642   1.276  0.00  0.00    +0.114 C 
ATOM      9  C   UNL     1       4.329  -1.723   0.141  0.00  0.00    +0.052 C 
ATOM     10  C   UNL     1       3.719  -0.350  -0.019  0.00  0.00    -0.035 C 
ATOM     11  C   UNL     1       2.436   0.039  -0.013  0.00  0.00    +0.001 A 
ATOM     12  C   UNL     1       1.162  -0.693  -0.011  0.00  0.00    +0.030 A 
ATOM     13  C   UNL     1       0.003   0.003   0.003  0.00  0.00    +0.042 A 
ATOM     14 CL   UNL     1      -1.502  -0.862   0.004  0.00  0.00    -0.084 Cl
ATOM     15  C   UNL     1       7.514  -0.536   0.983  0.00  0.00    +0.303 C 
ATOM     16  O   UNL     1       8.181   0.453   0.747  0.00  0.00    -0.253 OA
ATOM     17  N   UNL     1       8.112  -1.736   1.119  0.00  0.00    -0.291 N 
ATOM     18  H   UNL     1       7.575  -2.535   1.234  0.00  0.00    +0.151 HD
ATOM     19  H   UNL     1       3.830   2.958   0.076  0.00  0.00    +0.160 HD
ENDROOT
BRANCH  17  20
ATOM     20  C   UNL     1       9.573  -1.833   1.092  0.00  0.00    +0.202 C 
BRANCH  20  21
ATOM     21  C   UNL     1       9.984  -3.273   1.264  0.00  0.00    +0.236 C 
ATOM     22  O   UNL     1       9.139  -4.133   1.395  0.00  0.00    -0.274 OA
ATOM     23  N   UNL     1      11.290  -3.605   1.271  0.00  0.00    -0.263 N 
ATOM     24  C   UNL     1      11.669  -4.933   1.429  0.00  0.00    +0.164 A 
ATOM     25  N   UNL     1      10.901  -5.990   1.577  0.00  0.00    -0.233 NA
ATOM     26  C   UNL     1      11.419  -7.196   1.717  0.00  0.00    +0.120 A 
ATOM     27  C   UNL     1      12.771  -7.291   1.700  0.00  0.00    +0.068 A 
ATOM     28  S   UNL     1      13.223  -5.579   1.469  0.00  0.00    -0.061 S 
ATOM     29  H   UNL     1      11.966  -2.917   1.166  0.00  0.00    +0.157 HD
ENDBRANCH  20  21
ENDBRANCH  17  20
TORSDOF 2
