REMARK  Name = ZINC02827176
REMARK  5 active torsions:
REMARK  status: ('A' for Active; 'I' for Inactive)
REMARK    1  A    between atoms: C_1  and  C_2
REMARK    2  A    between atoms: C_2  and  C_25
REMARK    3  A    between atoms: C_10  and  C_12
REMARK    4  A    between atoms: C_12  and  C_13
REMARK    5  A    between atoms: C_18  and  N_19
REMARK                            x       y       z     vdW  Elec       q    Type
REMARK                         _______ _______ _______ _____ _____    ______ ____
ROOT
ATOM      1  C   UNL     1      -0.366   1.605  -1.750  0.00  0.00    +0.011 C 
ATOM      2  C   UNL     1      -0.352   0.076  -1.714  0.00  0.00    -0.022 C 
ATOM      3  C   UNL     1       0.546  -0.445  -2.840  0.00  0.00    +0.063 C 
ATOM      4  C   UNL     1       1.964   0.037  -2.575  0.00  0.00    +0.062 A 
ATOM      5  C   UNL     1       2.362   0.289  -1.256  0.00  0.00    +0.079 A 
ATOM      6  S   UNL     1       4.035   0.816  -1.461  0.00  0.00    -0.049 S 
ATOM      7  C   UNL     1       4.106   0.679  -3.141  0.00  0.00    +0.165 A 
ATOM      8  N   UNL     1       2.896   0.255  -3.471  0.00  0.00    -0.229 NA
ATOM      9  N   UNL     1       5.175   0.948  -3.975  0.00  0.00    -0.264 N 
ATOM     10  C   UNL     1       6.343   1.377  -3.458  0.00  0.00    +0.223 C 
ATOM     11  O   UNL     1       6.456   1.527  -2.260  0.00  0.00    -0.275 OA
ATOM     12  C   UNL     1       1.563   0.128  -0.129  0.00  0.00    +0.172 C 
ATOM     13  O   UNL     1       1.976   0.391   0.983  0.00  0.00    -0.291 OA
ATOM     14  C   UNL     1       0.153  -0.389  -0.348  0.00  0.00    +0.087 C 
ATOM     15  C   UNL     1      -1.776  -0.444  -1.927  0.00  0.00    +0.011 C 
ATOM     16  H   UNL     1       5.084   0.827  -4.934  0.00  0.00    +0.157 HD
ENDROOT
BRANCH  10  17
ATOM     17  C   UNL     1       7.508   1.669  -4.368  0.00  0.00    +0.133 C 
BRANCH  17  18
ATOM     18  C   UNL     1       8.684   2.129  -3.546  0.00  0.00    -0.008 A 
ATOM     19  C   UNL     1       8.982   3.477  -3.460  0.00  0.00    +0.006 A 
ATOM     20  C   UNL     1      10.061   3.899  -2.706  0.00  0.00    +0.000 A 
ATOM     21  C   UNL     1      10.841   2.974  -2.037  0.00  0.00    +0.002 A 
ATOM     22  C   UNL     1      10.543   1.627  -2.122  0.00  0.00    +0.033 A 
ATOM     23  C   UNL     1       9.461   1.205  -2.873  0.00  0.00    +0.130 A 
BRANCH  23  24
ATOM     24  N   UNL     1       9.138  -0.237  -2.960  0.00  0.00    +0.057 N 
ATOM     25  O   UNL     1       9.878  -1.053  -2.463  0.00  0.00    -0.126 OA
ATOM     26  O   UNL     1       8.133  -0.598  -3.527  0.00  0.00    -0.126 OA
ENDBRANCH  23  24
ENDBRANCH  17  18
ENDBRANCH  10  17
TORSDOF 3
