REMARK  Name = ZINC14452259
REMARK  3 active torsions:
REMARK  status: ('A' for Active; 'I' for Inactive)
REMARK    1  A    between atoms: C_1  and  C_2
REMARK    2  A    between atoms: C_12  and  C_19
REMARK    3  A    between atoms: C_14  and  O_18
REMARK                            x       y       z     vdW  Elec       q    Type
REMARK                         _______ _______ _______ _____ _____    ______ ____
ROOT
ATOM      1  C   UNL     1      -3.892   5.175  -0.676  0.00  0.00    +0.051 C 
ATOM      2  C   UNL     1      -3.687   3.700  -0.443  0.00  0.00    +0.039 C 
ATOM      3  C   UNL     1      -2.532   3.122  -0.187  0.00  0.00    +0.011 C 
ATOM      4  C   UNL     1      -1.164   3.721   0.031  0.00  0.00    +0.046 C 
ATOM      5  C   UNL     1      -0.625   3.104   1.333  0.00  0.00    +0.025 C 
ATOM      6  C   UNL     1       0.830   3.483   1.495  0.00  0.00    -0.073 C 
ATOM      7  C   UNL     1       1.388   4.364   0.703  0.00  0.00    +0.008 C 
ATOM      8  C   UNL     1       1.623   2.817   2.599  0.00  0.00    +0.030 C 
ATOM      9  C   UNL     1       1.437   1.300   2.486  0.00  0.00    +0.005 C 
ATOM     10  C   UNL     1      -0.056   0.966   2.494  0.00  0.00    +0.008 C 
ATOM     11  C   UNL     1      -0.729   1.579   1.267  0.00  0.00    -0.019 C 
ATOM     12  C   UNL     1      -2.197   1.144   1.208  0.00  0.00    +0.091 C 
ATOM     13  C   UNL     1      -2.784   1.625  -0.123  0.00  0.00    +0.237 C 
ATOM     14  O   UNL     1      -4.220   1.468  -0.187  0.00  0.00    -0.425 OA
ATOM     15  C   UNL     1      -4.745   2.681  -0.467  0.00  0.00    +0.338 C 
ATOM     16  O   UNL     1      -5.918   2.897  -0.702  0.00  0.00    -0.245 OA
ATOM     17  C   UNL     1      -0.013   1.086   0.008  0.00  0.00    +0.012 C 
ENDROOT
BRANCH  13  18
ATOM     18  O   UNL     1      -2.164   0.969  -1.231  0.00  0.00    -0.352 OA
ATOM     19  H   UNL     1      -2.477   1.275  -2.094  0.00  0.00    +0.214 HD
ENDBRANCH  13  18
TORSDOF 1
