REMARK  Name = ZINC63893108
REMARK  11 active torsions:
REMARK  status: ('A' for Active; 'I' for Inactive)
REMARK    1  A    between atoms: C_1  and  N_2
REMARK    2  A    between atoms: N_2  and  C_3
REMARK    3  A    between atoms: C_7  and  S_9
REMARK    4  A    between atoms: S_9  and  C_10
REMARK    5  A    between atoms: C_10  and  C_11
REMARK    6  A    between atoms: N_13  and  C_14
REMARK    7  A    between atoms: C_14  and  C_15
REMARK    8  A    between atoms: C_15  and  C_17
REMARK    9  A    between atoms: C_15  and  C_25
REMARK   10  A    between atoms: C_20  and  O_23
REMARK   11  A    between atoms: O_23  and  C_24
REMARK                            x       y       z     vdW  Elec       q    Type
REMARK                         _______ _______ _______ _____ _____    ______ ____
ROOT
ATOM      1  C   UNL     1       5.935  -9.309   1.216  0.00  0.00    +0.064 C 
ENDROOT
BRANCH   1   2
ATOM      2  C   UNL     1       5.395  -9.540   2.604  0.00  0.00    -0.033 C 
ATOM      3  C   UNL     1       4.170 -10.010   2.932  0.00  0.00    -0.000 A 
ATOM      4  C   UNL     1       3.017 -10.428   2.126  0.00  0.00    +0.010 A 
ATOM      5  C   UNL     1       1.900 -10.862   2.753  0.00  0.00    +0.001 A 
ATOM      6  C   UNL     1       1.817 -10.921   4.151  0.00  0.00    +0.002 A 
ATOM      7  C   UNL     1       2.834 -10.555   4.959  0.00  0.00    +0.026 A 
ATOM      8  C   UNL     1       4.056 -10.083   4.406  0.00  0.00    +0.043 A 
ATOM      9  N   UNL     1       5.168  -9.675   4.967  0.00  0.00    -0.380 N 
ATOM     10  C   UNL     1       6.116  -9.302   3.911  0.00  0.00    +0.145 C 
ATOM     11  H   UNL     1       5.338  -9.630   5.921  0.00  0.00    +0.160 HD
ENDBRANCH   1   2
BRANCH   1  12
ATOM     12  C   UNL     1       7.159 -10.161   1.004  0.00  0.00    -0.038 A 
ATOM     13  C   UNL     1       8.260 -10.005   1.827  0.00  0.00    +0.008 A 
ATOM     14  C   UNL     1       9.383 -10.785   1.635  0.00  0.00    +0.046 A 
ATOM     15  C   UNL     1       9.407 -11.726   0.615  0.00  0.00    +0.120 A 
ATOM     16  C   UNL     1       8.302 -11.881  -0.208  0.00  0.00    +0.046 A 
ATOM     17  C   UNL     1       7.178 -11.102  -0.009  0.00  0.00    +0.008 A 
BRANCH  15  18
ATOM     18  O   UNL     1      10.512 -12.495   0.424  0.00  0.00    -0.495 OA
ATOM     19  C   UNL     1      10.465 -13.443  -0.644  0.00  0.00    +0.277 C 
ENDBRANCH  15  18
ENDBRANCH   1  12
BRANCH   1  20
ATOM     20  C   UNL     1       6.306  -7.833   1.053  0.00  0.00    +0.116 C 
BRANCH  20  23
ATOM     21  C   UNL     1       5.181  -5.673   1.024  0.00  0.00    +0.223 C 
ATOM     22  O   UNL     1       6.259  -5.146   0.847  0.00  0.00    -0.275 OA
ATOM     23  N   UNL     1       5.096  -7.013   1.140  0.00  0.00    -0.314 N 
ATOM     24  H   UNL     1       4.234  -7.434   1.282  0.00  0.00    +0.149 HD
BRANCH  21  25
ATOM     25  C   UNL     1       3.936  -4.828   1.114  0.00  0.00    +0.172 C 
BRANCH  25  26
ATOM     26  S   UNL     1       4.376  -3.079   0.920  0.00  0.00    -0.088 S 
BRANCH  26  30
ATOM     27  C   UNL     1       0.706  -0.527   1.180  0.00  0.00    +0.222 C 
ATOM     28  N   UNL     1       0.510  -1.988   1.320  0.00  0.00    -0.241 N 
ATOM     29  N   UNL     1       1.657  -2.745   1.236  0.00  0.00    -0.171 NA
ATOM     30  C   UNL     1       2.835  -2.235   1.047  0.00  0.00    +0.151 C 
ATOM     31  S   UNL     1       2.531  -0.476   0.947  0.00  0.00    -0.058 S 
ATOM     32  H   UNL     1      -0.364  -2.384   1.462  0.00  0.00    +0.171 HD
BRANCH  27  34
ATOM     33  C   UNL     1      -0.018   1.465   0.010  0.00  0.00    +0.103 C 
ATOM     34  N   UNL     1       0.002  -0.004   0.002  0.00  0.00    -0.292 NA
ATOM     35  H   UNL     1      -0.933  -0.378  -0.056  0.00  0.00    +0.124 HD
ENDBRANCH  27  34
ENDBRANCH  26  30
ENDBRANCH  25  26
ENDBRANCH  21  25
ENDBRANCH  20  23
ENDBRANCH   1  20
TORSDOF 9
