REMARK  Name = ZINC63472951
REMARK  8 active torsions:
REMARK  status: ('A' for Active; 'I' for Inactive)
REMARK    1  A    between atoms: C_1  and  C_2
REMARK    2  A    between atoms: C_4  and  C_41
REMARK    3  A    between atoms: C_6  and  N_8
REMARK    4  A    between atoms: C_13  and  C_34
REMARK    5  A    between atoms: C_16  and  C_21
REMARK    6  A    between atoms: C_16  and  C_31
REMARK    7  A    between atoms: C_21  and  C_22
REMARK    8  A    between atoms: C_39  and  O_40
REMARK                            x       y       z     vdW  Elec       q    Type
REMARK                         _______ _______ _______ _____ _____    ______ ____
ROOT
ATOM      1  N   UNL     1      -0.124  -2.690   2.519  0.00  0.00    -0.210 N 
ATOM      2  C   UNL     1      -0.078  -4.062   2.532  0.00  0.00    +0.229 C 
ATOM      3  O   UNL     1       0.114  -4.805   1.593  0.00  0.00    -0.275 OA
ATOM      4  C   UNL     1      -0.306  -4.425   3.909  0.00  0.00    +0.077 C 
ATOM      5  C   UNL     1      -0.093  -5.546   4.840  0.00  0.00    -0.023 C 
ATOM      6  N   UNL     1      -0.432  -4.923   6.166  0.00  0.00    +0.396 N 
ATOM      7  C   UNL     1      -0.260  -3.446   6.034  0.00  0.00    +0.052 C 
ATOM      8  C   UNL     1       0.422  -3.248   4.672  0.00  0.00    +0.086 C 
ATOM      9  C   UNL     1      -0.066  -2.147   3.772  0.00  0.00    +0.229 C 
ATOM     10  O   UNL     1      -0.352  -1.014   4.092  0.00  0.00    -0.275 OA
ATOM     11  H   UNL     1      -1.388  -5.136   6.409  0.00  0.00    -0.083 HD
ATOM     12  H   UNL     1       0.189  -5.277   6.878  0.00  0.00    -0.083 HD
ENDROOT
BRANCH   1  18
ATOM     13  C   UNL     1      -0.385   1.712   0.340  0.00  0.00    +0.044 C 
ATOM     14  C   UNL     1      -0.344   0.207   0.262  0.00  0.00    -0.048 A 
ATOM     15  C   UNL     1      -0.398  -0.422  -0.968  0.00  0.00    +0.006 A 
ATOM     16  C   UNL     1      -0.361  -1.802  -1.044  0.00  0.00    -0.048 A 
ATOM     17  C   UNL     1      -0.271  -2.556   0.110  0.00  0.00    +0.027 A 
ATOM     18  C   UNL     1      -0.216  -1.927   1.346  0.00  0.00    +0.044 A 
ATOM     19  C   UNL     1      -0.247  -0.541   1.418  0.00  0.00    +0.027 A 
ATOM     20  C   UNL     1      -0.421  -2.485  -2.386  0.00  0.00    +0.044 C 
ENDBRANCH   1  18
BRANCH   5  21
ATOM     21  C   UNL     1      -1.025  -6.689   4.528  0.00  0.00    -0.019 A 
ATOM     22  C   UNL     1      -2.125  -6.482   3.717  0.00  0.00    +0.005 A 
ATOM     23  C   UNL     1      -2.980  -7.530   3.431  0.00  0.00    +0.000 A 
ATOM     24  C   UNL     1      -2.737  -8.787   3.954  0.00  0.00    +0.004 A 
ATOM     25  C   UNL     1      -1.639  -8.998   4.764  0.00  0.00    +0.045 A 
ATOM     26  C   UNL     1      -0.776  -7.950   5.049  0.00  0.00    +0.118 A 
BRANCH  26  27
ATOM     27  O   UNL     1       0.309  -8.156   5.841  0.00  0.00    -0.507 OA
ATOM     28  H   UNL     1       0.140  -8.017   6.783  0.00  0.00    +0.292 HD
ENDBRANCH  26  27
ENDBRANCH   5  21
BRANCH   7  29
ATOM     29  C   UNL     1       0.631  -2.924   7.131  0.00  0.00    +0.347 C 
ATOM     30  O   UNL     1       1.071  -3.688   7.974  0.00  0.00    -0.248 OA
ATOM     31  O   UNL     1       0.913  -1.739   7.177  0.00  0.00    -0.248 OA
ENDBRANCH   7  29
BRANCH   7  32
ATOM     32  C   UNL     1      -1.621  -2.748   6.079  0.00  0.00    +0.033 C 
BRANCH  32  33
ATOM     33  C   UNL     1      -2.281  -3.020   7.406  0.00  0.00    -0.042 C 
ATOM     34  C   UNL     1      -2.252  -2.234   8.506  0.00  0.00    -0.001 A 
ATOM     35  C   UNL     1      -1.620  -0.939   8.786  0.00  0.00    +0.010 A 
ATOM     36  C   UNL     1      -1.771  -0.387  10.011  0.00  0.00    +0.001 A 
ATOM     37  C   UNL     1      -2.514  -1.018  11.018  0.00  0.00    +0.002 A 
ATOM     38  C   UNL     1      -3.124  -2.208  10.836  0.00  0.00    +0.026 A 
ATOM     39  C   UNL     1      -3.032  -2.880   9.585  0.00  0.00    +0.043 A 
ATOM     40  N   UNL     1      -3.525  -4.021   9.169  0.00  0.00    -0.380 N 
ATOM     41  C   UNL     1      -3.117  -4.226   7.775  0.00  0.00    +0.144 C 
ATOM     42  H   UNL     1      -4.070  -4.627   9.694  0.00  0.00    +0.160 HD
ENDBRANCH  32  33
ENDBRANCH   7  32
TORSDOF 6
