REMARK  Name = ZINC64423356
REMARK  7 active torsions:
REMARK  status: ('A' for Active; 'I' for Inactive)
REMARK    1  A    between atoms: C_1  and  C_2
REMARK    2  A    between atoms: C_2  and  C_3
REMARK    3  A    between atoms: C_2  and  C_4
REMARK    4  A    between atoms: C_2  and  N_5
REMARK    5  A    between atoms: C_6  and  N_27
REMARK    6  A    between atoms: C_14  and  C_16
REMARK    7  A    between atoms: C_19  and  C_22
REMARK                            x       y       z     vdW  Elec       q    Type
REMARK                         _______ _______ _______ _____ _____    ______ ____
ROOT
ATOM      1  N   UNL     1      -0.637  -1.768  -0.787  0.00  0.00    -0.197 NA
ATOM      2  C   UNL     1      -0.813  -1.625  -2.245  0.00  0.00    +0.205 C 
ATOM      3  C   UNL     1       0.598  -1.483  -2.777  0.00  0.00    +0.006 C 
ATOM      4  C   UNL     1       1.413  -1.541  -1.746  0.00  0.00    +0.040 C 
ATOM      5  N   UNL     1       0.705  -1.709  -0.560  0.00  0.00    -0.278 N 
ATOM      6  C   UNL     1       2.841  -1.403  -2.230  0.00  0.00    +0.160 C 
ATOM      7  N   UNL     1       2.800  -1.252  -3.689  0.00  0.00    -0.290 N 
ATOM      8  C   UNL     1       1.378  -1.301  -4.053  0.00  0.00    +0.144 C 
ATOM      9  C   UNL     1       3.848  -1.101  -4.522  0.00  0.00    +0.247 C 
ATOM     10  O   UNL     1       3.664  -0.986  -5.715  0.00  0.00    -0.273 OA
ATOM     11  H   UNL     1       1.115  -1.777   0.316  0.00  0.00    +0.166 HD
ENDROOT
BRANCH   9  12
ATOM     12  C   UNL     1       5.251  -1.074  -3.970  0.00  0.00    +0.239 C 
ATOM     13  C   UNL     1       5.596   0.310  -3.451  0.00  0.00    +0.044 C 
ATOM     14  C   UNL     1       6.640   0.692  -4.218  0.00  0.00    +0.126 C 
ATOM     15  N   UNL     1       6.950  -0.284  -5.114  0.00  0.00    -0.150 NA
ATOM     16  N   UNL     1       6.235  -1.290  -5.043  0.00  0.00    -0.170 NA
BRANCH  14  17
ATOM     17  C   UNL     1       7.346   1.985  -4.100  0.00  0.00    +0.154 A 
ATOM     18  C   UNL     1       8.395   2.393  -4.863  0.00  0.00    +0.051 A 
ATOM     19  C   UNL     1       8.748   3.680  -4.410  0.00  0.00    +0.042 A 
ATOM     20  C   UNL     1       7.907   3.990  -3.405  0.00  0.00    +0.196 A 
ATOM     21  O   UNL     1       7.057   2.966  -3.223  0.00  0.00    -0.461 OA
ENDBRANCH  14  17
ENDBRANCH   9  12
BRANCH   2  22
ATOM     22  N   UNL     1      -1.603  -0.430  -2.552  0.00  0.00    -0.332 N 
ATOM     23  C   UNL     1      -1.175   0.858  -2.427  0.00  0.00    +0.087 A 
ATOM     24  C   UNL     1      -2.180   1.675  -2.803  0.00  0.00    +0.019 A 
ATOM     25  C   UNL     1      -3.268   0.861  -3.174  0.00  0.00    +0.019 A 
ATOM     26  C   UNL     1      -2.885  -0.422  -3.016  0.00  0.00    +0.087 A 
ENDBRANCH   2  22
BRANCH   1  28
ATOM     27  C   UNL     1      -0.475   0.563  -0.054  0.00  0.00    +0.029 C 
ATOM     28  C   UNL     1      -1.341  -0.699  -0.065  0.00  0.00    +0.033 C 
ATOM     29  C   UNL     1      -1.609  -1.146   1.373  0.00  0.00    +0.029 C 
ATOM     30  C   UNL     1      -2.669  -0.400  -0.763  0.00  0.00    +0.029 C 
ENDBRANCH   1  28
TORSDOF 4
