REMARK  Name = ZINC40819869
REMARK  6 active torsions:
REMARK  status: ('A' for Active; 'I' for Inactive)
REMARK    1  A    between atoms: C_3  and  O_23
REMARK    2  A    between atoms: C_6  and  C_7
REMARK    3  A    between atoms: C_7  and  C_8
REMARK    4  A    between atoms: N_10  and  C_11
REMARK    5  A    between atoms: C_11  and  C_12
REMARK    6  A    between atoms: C_12  and  N_13
REMARK                            x       y       z     vdW  Elec       q    Type
REMARK                         _______ _______ _______ _____ _____    ______ ____
ROOT
ATOM      1  C   UNL     1      -1.739  -1.023  -1.407  0.00  0.00    +0.217 C 
ATOM      2  O   UNL     1      -1.071  -0.615  -2.333  0.00  0.00    -0.275 OA
ATOM      3  N   UNL     1      -2.881  -1.699  -1.646  0.00  0.00    -0.313 N 
ATOM      4  H   UNL     1      -3.415  -2.025  -0.905  0.00  0.00    +0.149 HD
ENDROOT
BRANCH   1   5
ATOM      5  C   UNL     1      -1.293  -0.774   0.011  0.00  0.00    +0.130 C 
BRANCH   5  11
ATOM      6  C   UNL     1      -0.017   1.378   0.010  0.00  0.00    +0.007 A 
ATOM      7  C   UNL     1       1.169   2.087   0.002  0.00  0.00    +0.045 A 
ATOM      8  C   UNL     1       2.380   1.409  -0.013  0.00  0.00    +0.117 A 
ATOM      9  C   UNL     1       2.396   0.022  -0.021  0.00  0.00    +0.045 A 
ATOM     10  C   UNL     1       1.207  -0.681  -0.013  0.00  0.00    +0.007 A 
ATOM     11  C   UNL     1       0.002  -0.004   0.002  0.00  0.00    -0.038 A 
BRANCH   8  12
ATOM     12  O   UNL     1       3.548   2.104  -0.021  0.00  0.00    -0.507 OA
ATOM     13  H   UNL     1       3.895   2.300   0.860  0.00  0.00    +0.292 HD
ENDBRANCH   8  12
ENDBRANCH   5  11
ENDBRANCH   1   5
BRANCH   3  14
ATOM     14  C   UNL     1      -3.314  -1.941  -3.024  0.00  0.00    +0.125 C 
BRANCH  14  15
ATOM     15  C   UNL     1      -4.629  -2.722  -3.015  0.00  0.00    +0.140 C 
BRANCH  15  16
ATOM     16  N   UNL     1      -5.063  -2.965  -4.394  0.00  0.00    -0.345 N 
ATOM     17  C   UNL     1      -5.940  -2.179  -5.091  0.00  0.00    +0.087 A 
ATOM     18  C   UNL     1      -6.121  -2.679  -6.324  0.00  0.00    +0.027 A 
ATOM     19  C   UNL     1      -5.293  -3.883  -6.424  0.00  0.00    +0.001 A 
ATOM     20  C   UNL     1      -4.644  -4.013  -5.182  0.00  0.00    +0.049 A 
ATOM     21  C   UNL     1      -3.773  -5.077  -4.974  0.00  0.00    +0.027 A 
ATOM     22  C   UNL     1      -3.550  -5.990  -5.981  0.00  0.00    +0.017 A 
ATOM     23  C   UNL     1      -4.187  -5.861  -7.209  0.00  0.00    +0.019 A 
ATOM     24  C   UNL     1      -5.061  -4.820  -7.433  0.00  0.00    +0.025 A 
ATOM     25 BR   UNL     1      -3.863  -7.127  -8.575  0.00  0.00    -0.050 Br
ENDBRANCH  15  16
ENDBRANCH  14  15
ENDBRANCH   3  14
TORSDOF 6
