REMARK  Name = ZINC66709857
REMARK  8 active torsions:
REMARK  status: ('A' for Active; 'I' for Inactive)
REMARK    1  A    between atoms: C_1  and  C_2
REMARK    2  A    between atoms: C_3  and  C_13
REMARK    3  A    between atoms: C_4  and  C_12
REMARK    4  A    between atoms: C_9  and  O_11
REMARK    5  A    between atoms: C_13  and  C_14
REMARK    6  A    between atoms: C_14  and  C_15
REMARK    7  A    between atoms: C_19  and  C_26
REMARK    8  A    between atoms: C_23  and  C_25
REMARK                            x       y       z     vdW  Elec       q    Type
REMARK                         _______ _______ _______ _____ _____    ______ ____
ROOT
ATOM      1  C   UNL     1      -2.768   0.566   1.486  0.00  0.00    +0.101 C 
ENDROOT
BRANCH   1   2
ATOM      2  C   UNL     1      -4.129   1.213   1.484  0.00  0.00    +0.216 C 
ATOM      3  O   UNL     1      -4.706   1.408   0.435  0.00  0.00    -0.276 OA
ATOM      4  N   UNL     1      -4.705   1.575   2.647  0.00  0.00    -0.294 N 
ATOM      5  C   UNL     1      -4.078   1.247   3.937  0.00  0.00    +0.144 C 
ATOM      6  C   UNL     1      -4.008   2.526   4.780  0.00  0.00    +0.166 C 
ATOM      7  O   UNL     1      -5.305   3.122   4.838  0.00  0.00    -0.369 OA
ATOM      8  C   UNL     1      -5.816   3.538   3.569  0.00  0.00    +0.182 C 
ATOM      9  C   UNL     1      -5.976   2.316   2.665  0.00  0.00    +0.099 C 
ATOM     10  C   UNL     1      -6.328   2.769   1.246  0.00  0.00    +0.030 C 
BRANCH   6  11
ATOM     11  C   UNL     1      -3.546   2.185   6.173  0.00  0.00    -0.017 A 
ATOM     12  C   UNL     1      -4.440   1.665   7.090  0.00  0.00    +0.006 A 
ATOM     13  C   UNL     1      -4.016   1.353   8.368  0.00  0.00    +0.000 A 
ATOM     14  C   UNL     1      -2.698   1.561   8.730  0.00  0.00    +0.000 A 
ATOM     15  C   UNL     1      -1.803   2.080   7.812  0.00  0.00    +0.000 A 
ATOM     16  C   UNL     1      -2.226   2.388   6.533  0.00  0.00    +0.006 A 
ENDBRANCH   6  11
ENDBRANCH   1   2
BRANCH   1  17
ATOM     17  C   UNL     1      -2.348   0.257   0.047  0.00  0.00    +0.048 C 
BRANCH  17  20
ATOM     18  C   UNL     1       0.054   1.902   0.096  0.00  0.00    +0.066 C 
ATOM     19  C   UNL     1       0.171   0.400   0.073  0.00  0.00    +0.045 A 
ATOM     20  C   UNL     1      -0.987  -0.390   0.050  0.00  0.00    -0.005 A 
ATOM     21  C   UNL     1      -0.872  -1.741   0.029  0.00  0.00    +0.047 A 
ATOM     22  N   UNL     1       0.372  -2.302   0.032  0.00  0.00    -0.215 N 
ATOM     23  C   UNL     1       1.483  -1.497   0.056  0.00  0.00    +0.160 A 
ATOM     24  N   UNL     1       1.357  -0.163   0.071  0.00  0.00    -0.233 NA
ATOM     25  C   UNL     1       2.590  -2.334   0.053  0.00  0.00    +0.116 A 
ATOM     26  C   UNL     1       2.126  -3.646   0.028  0.00  0.00    +0.234 A 
ATOM     27  N   UNL     1       0.809  -3.631   0.015  0.00  0.00    -0.127 NA
ATOM     28  C   UNL     1      -2.102  -2.611   0.004  0.00  0.00    +0.066 C 
BRANCH  26  29
ATOM     29  O   UNL     1       2.904  -4.760   0.017  0.00  0.00    -0.491 OA
ATOM     30  H   UNL     1       3.121  -5.097   0.897  0.00  0.00    +0.294 HD
ENDBRANCH  26  29
ENDBRANCH  17  20
ENDBRANCH   1  17
TORSDOF 5
