REMARK  Name = ZINC20378394
REMARK  7 active torsions:
REMARK  status: ('A' for Active; 'I' for Inactive)
REMARK    1  A    between atoms: C_1  and  C_2
REMARK    2  A    between atoms: C_2  and  N_3
REMARK    3  A    between atoms: N_3  and  C_4
REMARK    4  A    between atoms: C_4  and  C_5
REMARK    5  A    between atoms: C_6  and  C_8
REMARK    6  A    between atoms: C_8  and  N_9
REMARK    7  A    between atoms: C_11  and  C_24
REMARK                            x       y       z     vdW  Elec       q    Type
REMARK                         _______ _______ _______ _____ _____    ______ ____
ROOT
ATOM      1  N   UNL     1       0.503  -0.801  -2.293  0.00  0.00    -0.284 N 
ATOM      2  C   UNL     1       1.623  -0.109  -1.800  0.00  0.00    +0.137 A 
ATOM      3  C   UNL     1       2.865  -0.695  -1.706  0.00  0.00    +0.063 A 
ATOM      4  S   UNL     1       3.861   0.616  -1.034  0.00  0.00    -0.059 S 
ATOM      5  C   UNL     1       2.633   1.826  -0.917  0.00  0.00    +0.132 A 
ATOM      6  S   UNL     1       2.780   3.433  -0.345  0.00  0.00    -0.024 S 
ATOM      7  N   UNL     1       1.514   1.195  -1.389  0.00  0.00    -0.282 N 
ATOM      8  C   UNL     1       0.263   1.844  -1.464  0.00  0.00    +0.062 A 
ATOM      9  C   UNL     1       0.150   3.163  -1.050  0.00  0.00    +0.027 A 
ATOM     10  C   UNL     1      -1.074   3.800  -1.123  0.00  0.00    +0.002 A 
ATOM     11  C   UNL     1      -2.189   3.133  -1.606  0.00  0.00    +0.001 A 
ATOM     12  C   UNL     1      -2.092   1.819  -2.016  0.00  0.00    +0.015 A 
ATOM     13  C   UNL     1      -0.860   1.170  -1.951  0.00  0.00    +0.063 A 
ATOM     14  C   UNL     1      -0.708  -0.231  -2.385  0.00  0.00    +0.262 A 
ATOM     15  O   UNL     1      -1.659  -0.855  -2.816  0.00  0.00    -0.267 OA
ENDROOT
BRANCH   3  16
ATOM     16  C   UNL     1       3.268  -2.068  -2.069  0.00  0.00    -0.008 A 
ATOM     17  C   UNL     1       3.303  -3.070  -1.097  0.00  0.00    +0.010 A 
ATOM     18  C   UNL     1       3.676  -4.351  -1.444  0.00  0.00    +0.020 A 
ATOM     19  C   UNL     1       4.026  -4.643  -2.752  0.00  0.00    +0.041 A 
ATOM     20  C   UNL     1       4.000  -3.653  -3.720  0.00  0.00    +0.020 A 
ATOM     21  C   UNL     1       3.623  -2.369  -3.387  0.00  0.00    +0.010 A 
ATOM     22 CL   UNL     1       4.502  -6.257  -3.180  0.00  0.00    -0.084 Cl
ENDBRANCH   3  16
BRANCH   1  23
ATOM     23  C   UNL     1       0.663  -2.193  -2.720  0.00  0.00    +0.222 C 
BRANCH  23  25
ATOM     24  N   UNL     1       1.138  -3.401  -4.826  0.00  0.00    -0.301 N 
ATOM     25  C   UNL     1       1.101  -2.229  -4.162  0.00  0.00    +0.235 C 
ATOM     26  O   UNL     1       1.420  -1.203  -4.724  0.00  0.00    -0.274 OA
BRANCH  24  28
ATOM     27  C   UNL     1      -0.633  -4.959  -4.181  0.00  0.00    +0.024 C 
ATOM     28  C   UNL     1       0.865  -4.654  -4.117  0.00  0.00    +0.104 C 
ENDBRANCH  24  28
BRANCH  24  29
ATOM     29  C   UNL     1       1.451  -3.422  -6.257  0.00  0.00    +0.104 C 
ATOM     30  C   UNL     1       2.963  -3.561  -6.446  0.00  0.00    +0.024 C 
ENDBRANCH  24  29
ENDBRANCH  23  25
ENDBRANCH   1  23
TORSDOF 5
