REMARK  Name = ZINC12305188
REMARK  3 active torsions:
REMARK  status: ('A' for Active; 'I' for Inactive)
REMARK    1  A    between atoms: C_8  and  C_10
REMARK    2  A    between atoms: C_10  and  N_47
REMARK    3  A    between atoms: C_15  and  C_19
REMARK                            x       y       z     vdW  Elec       q    Type
REMARK                         _______ _______ _______ _____ _____    ______ ____
ROOT
ATOM      1  C   UNL     1      -2.094   1.238  -2.047  0.00  0.00    -0.072 C 
ATOM      2  C   UNL     1      -2.877   1.596  -3.318  0.00  0.00    +0.036 C 
ATOM      3  C   UNL     1      -2.073   2.620  -4.083  0.00  0.00    +0.036 A 
ATOM      4  C   UNL     1      -1.050   3.321  -3.533  0.00  0.00    -0.016 A 
ATOM      5  C   UNL     1      -0.531   4.170  -4.518  0.00  0.00    +0.094 A 
ATOM      6  N   UNL     1      -1.228   3.981  -5.622  0.00  0.00    -0.173 NA
ATOM      7  N   UNL     1      -2.205   3.007  -5.361  0.00  0.00    -0.281 N 
ATOM      8  H   UNL     1      -2.880   2.662  -6.013  0.00  0.00    +0.189 HD
ATOM      9  C   UNL     1      -0.607   3.161  -2.100  0.00  0.00    -0.038 C 
ATOM     10  N   UNL     1      -1.701   2.487  -1.359  0.00  0.00    +0.387 N 
ATOM     11  H   UNL     1      -2.512   3.115  -1.321  0.00  0.00    -0.081 HD
ENDROOT
BRANCH   5  12
ATOM     12  C   UNL     1       0.602   5.115  -4.351  0.00  0.00    +0.006 A 
ATOM     13  C   UNL     1       0.787   5.775  -3.138  0.00  0.00    +0.014 A 
ATOM     14  C   UNL     1       1.843   6.649  -2.981  0.00  0.00    +0.050 A 
ATOM     15  C   UNL     1       2.718   6.881  -4.032  0.00  0.00    +0.166 A 
ATOM     16  C   UNL     1       2.534   6.227  -5.249  0.00  0.00    +0.167 A 
ATOM     17  C   UNL     1       1.479   5.346  -5.408  0.00  0.00    +0.059 A 
ATOM     18  O   UNL     1       3.518   6.623  -6.110  0.00  0.00    -0.453 OA
ATOM     19  C   UNL     1       4.539   7.210  -5.282  0.00  0.00    +0.466 C 
ATOM     20  O   UNL     1       3.816   7.686  -4.132  0.00  0.00    -0.453 OA
ENDBRANCH   5  12
BRANCH  10  21
ATOM     21  C   UNL     1      -1.263   2.186   0.020  0.00  0.00    -0.003 C 
BRANCH  21  29
ATOM     22  C   UNL     1       4.026  -0.791  -0.041  0.00  0.00    +0.001 A 
ATOM     23  C   UNL     1       3.189  -1.897  -0.039  0.00  0.00    +0.004 A 
ATOM     24  C   UNL     1       1.819  -1.743  -0.025  0.00  0.00    +0.047 A 
ATOM     25  C   UNL     1       1.268  -0.468  -0.013  0.00  0.00    +0.135 A 
ATOM     26  C   UNL     1       2.121   0.649  -0.015  0.00  0.00    +0.020 A 
ATOM     27  C   UNL     1       3.504   0.473  -0.029  0.00  0.00    +0.011 A 
ATOM     28  C   UNL     1       1.235   1.819   0.000  0.00  0.00    +0.051 A 
ATOM     29  C   UNL     1      -0.016   1.340   0.009  0.00  0.00    +0.090 A 
ATOM     30  O   UNL     1       0.002  -0.004   0.002  0.00  0.00    -0.462 OA
ENDBRANCH  21  29
ENDBRANCH  10  21
TORSDOF 3
