REMARK  Name = ZINC39677920
REMARK  11 active torsions:
REMARK  status: ('A' for Active; 'I' for Inactive)
REMARK    1  A    between atoms: C_1  and  C_2
REMARK    2  A    between atoms: C_2  and  C_3
REMARK    3  A    between atoms: C_3  and  C_4
REMARK    4  A    between atoms: C_4  and  C_5
REMARK    5  A    between atoms: C_5  and  C_6
REMARK    6  A    between atoms: C_6  and  C_7
REMARK    7  A    between atoms: C_11  and  C_20
REMARK    8  A    between atoms: N_22  and  C_23
REMARK    9  A    between atoms: C_23  and  C_24
REMARK   10  A    between atoms: N_27  and  C_31
REMARK   11  A    between atoms: C_31  and  C_32
REMARK                            x       y       z     vdW  Elec       q    Type
REMARK                         _______ _______ _______ _____ _____    ______ ____
ROOT
ATOM      1  C   UNL     1      -4.401  -4.666  -0.016  0.00  0.00    +0.216 C 
ATOM      2  O   UNL     1      -5.351  -3.915   0.052  0.00  0.00    -0.276 OA
ATOM      3  N   UNL     1      -4.593  -6.000   0.014  0.00  0.00    -0.300 N 
ATOM      4  C   UNL     1      -3.566  -7.066  -0.050  0.00  0.00    +0.121 C 
ATOM      5  C   UNL     1      -4.055  -8.139   0.949  0.00  0.00    +0.100 C 
ATOM      6  C   UNL     1      -5.573  -7.915   1.053  0.00  0.00    -0.004 C 
ATOM      7  C   UNL     1      -5.878  -6.731   0.124  0.00  0.00    +0.115 C 
ATOM      8  C   UNL     1      -5.958  -7.565   2.487  0.00  0.00    -0.010 C 
ATOM      9  C   UNL     1      -7.478  -7.403   2.577  0.00  0.00    -0.082 C 
ATOM     10  N   UNL     1      -8.131  -8.652   2.165  0.00  0.00    +0.379 N 
ATOM     11  C   UNL     1      -7.830  -8.932   0.756  0.00  0.00    -0.082 C 
ATOM     12  C   UNL     1      -6.325  -9.159   0.588  0.00  0.00    -0.010 C 
ATOM     13  H   UNL     1      -7.793  -9.411   2.737  0.00  0.00    -0.086 HD
ATOM     14  H   UNL     1      -9.129  -8.563   2.283  0.00  0.00    -0.086 HD
ENDROOT
BRANCH   5  15
ATOM     15  C   UNL     1      -3.762  -9.520   0.421  0.00  0.00    +0.218 C 
ATOM     16  O   UNL     1      -3.749  -9.722  -0.775  0.00  0.00    -0.275 OA
ATOM     17  N   UNL     1      -3.513 -10.530   1.278  0.00  0.00    -0.313 N 
ATOM     18  H   UNL     1      -3.523 -10.368   2.234  0.00  0.00    +0.149 HD
BRANCH  17  19
ATOM     19  C   UNL     1      -3.227 -11.872   0.765  0.00  0.00    +0.137 C 
BRANCH  19  20
ATOM     20  C   UNL     1      -2.983 -12.825   1.937  0.00  0.00    +0.149 C 
ATOM     21  C   UNL     1      -2.564 -14.197   1.402  0.00  0.00    +0.118 C 
ATOM     22  N   UNL     1      -2.406 -15.129   2.528  0.00  0.00    -0.293 NA
ATOM     23  C   UNL     1      -3.659 -15.245   3.288  0.00  0.00    +0.113 C 
ATOM     24  C   UNL     1      -4.066 -13.862   3.805  0.00  0.00    +0.175 C 
ATOM     25  O   UNL     1      -4.184 -12.961   2.700  0.00  0.00    -0.372 OA
BRANCH  22  26
ATOM     26  C   UNL     1      -1.949 -16.445   2.062  0.00  0.00    +0.119 C 
BRANCH  26  27
ATOM     27  C   UNL     1      -1.564 -17.292   3.247  0.00  0.00    -0.033 A 
ATOM     28  C   UNL     1      -0.267 -17.262   3.725  0.00  0.00    +0.005 A 
ATOM     29  C   UNL     1       0.087 -18.039   4.813  0.00  0.00    +0.000 A 
ATOM     30  C   UNL     1      -0.857 -18.845   5.422  0.00  0.00    +0.000 A 
ATOM     31  C   UNL     1      -2.153 -18.873   4.945  0.00  0.00    +0.000 A 
ATOM     32  C   UNL     1      -2.508 -18.093   3.860  0.00  0.00    +0.005 A 
ENDBRANCH  26  27
ENDBRANCH  22  26
ENDBRANCH  19  20
ENDBRANCH  17  19
ENDBRANCH   5  15
BRANCH   1  33
ATOM     33  C   UNL     1      -3.006  -4.107  -0.133  0.00  0.00    +0.096 C 
BRANCH  33  34
ATOM     34  C   UNL     1      -3.068  -2.579  -0.144  0.00  0.00    +0.009 C 
BRANCH  34  35
ATOM     35  C   UNL     1      -1.652  -2.012  -0.264  0.00  0.00    +0.000 C 
BRANCH  35  36
ATOM     36  C   UNL     1      -1.714  -0.483  -0.275  0.00  0.00    -0.000 C 
BRANCH  36  38
ATOM     37  C   UNL     1      -0.359   1.612  -0.406  0.00  0.00    +0.004 C 
ATOM     38  C   UNL     1      -0.297   0.084  -0.394  0.00  0.00    -0.003 C 
ENDBRANCH  36  38
ENDBRANCH  35  36
ENDBRANCH  34  35
ENDBRANCH  33  34
ENDBRANCH   1  33
TORSDOF 10
