REMARK  Name = ZINC14465156
REMARK  4 active torsions:
REMARK  status: ('A' for Active; 'I' for Inactive)
REMARK    1  A    between atoms: C_4  and  C_7
REMARK    2  A    between atoms: C_7  and  N_8
REMARK    3  A    between atoms: C_9  and  C_11
REMARK    4  A    between atoms: C_18  and  C_27
REMARK                            x       y       z     vdW  Elec       q    Type
REMARK                         _______ _______ _______ _____ _____    ______ ____
ROOT
ATOM      1  C   UNL     1      -4.766   5.333  -3.819  0.00  0.00    +0.058 A 
ATOM      2  C   UNL     1      -4.194   5.133  -5.076  0.00  0.00    +0.015 A 
ATOM      3  C   UNL     1      -4.928   5.407  -6.209  0.00  0.00    +0.001 A 
ATOM      4  C   UNL     1      -6.220   5.888  -6.103  0.00  0.00    +0.006 A 
ATOM      5  C   UNL     1      -6.805   6.097  -4.862  0.00  0.00    -0.019 A 
ATOM      6  C   UNL     1      -6.082   5.824  -3.714  0.00  0.00    +0.044 A 
ATOM      7  N   UNL     1      -6.605   6.018  -2.445  0.00  0.00    -0.336 N 
ATOM      8  C   UNL     1      -8.065   5.924  -2.428  0.00  0.00    +0.105 C 
ATOM      9  C   UNL     1      -8.652   6.960  -3.389  0.00  0.00    +0.029 C 
ATOM     10  C   UNL     1      -8.214   6.613  -4.827  0.00  0.00    +0.049 C 
ATOM     11  C   UNL     1      -9.184   5.538  -5.260  0.00  0.00    -0.023 C 
ATOM     12  C   UNL     1     -10.268   5.577  -4.527  0.00  0.00    -0.030 C 
ATOM     13  C   UNL     1     -10.179   6.692  -3.504  0.00  0.00    +0.033 C 
ATOM     14  H   UNL     1      -6.194   5.377  -1.783  0.00  0.00    +0.147 HD
ENDROOT
BRANCH   8  15
ATOM     15  C   UNL     1      -8.486   4.543  -2.859  0.00  0.00    -0.027 A 
ATOM     16  C   UNL     1      -9.744   4.071  -2.535  0.00  0.00    +0.007 A 
ATOM     17  C   UNL     1     -10.132   2.807  -2.936  0.00  0.00    +0.020 A 
ATOM     18  C   UNL     1      -9.257   2.009  -3.651  0.00  0.00    +0.041 A 
ATOM     19  C   UNL     1      -7.996   2.480  -3.971  0.00  0.00    +0.020 A 
ATOM     20  C   UNL     1      -7.611   3.747  -3.575  0.00  0.00    +0.007 A 
ATOM     21 CL   UNL     1      -9.742   0.417  -4.148  0.00  0.00    -0.084 Cl
ENDBRANCH   8  15
BRANCH   1  23
ATOM     22  N   UNL     1      -2.780   4.452  -2.698  0.00  0.00    -0.307 N 
ATOM     23  C   UNL     1      -3.990   5.037  -2.601  0.00  0.00    +0.246 C 
ATOM     24  O   UNL     1      -4.442   5.321  -1.508  0.00  0.00    -0.270 OA
ATOM     25  H   UNL     1      -2.419   4.225  -3.569  0.00  0.00    +0.149 HD
BRANCH  22  26
ATOM     26  C   UNL     1      -2.009   4.157  -1.487  0.00  0.00    +0.139 C 
BRANCH  26  30
ATOM     27  C   UNL     1       1.692   2.319  -2.568  0.00  0.00    +0.000 A 
ATOM     28  C   UNL     1       0.577   1.538  -2.327  0.00  0.00    +0.000 A 
ATOM     29  C   UNL     1      -0.622   2.134  -1.982  0.00  0.00    +0.005 A 
ATOM     30  C   UNL     1      -0.703   3.509  -1.868  0.00  0.00    -0.030 A 
ATOM     31  C   UNL     1       0.412   4.290  -2.110  0.00  0.00    +0.005 A 
ATOM     32  C   UNL     1       1.610   3.695  -2.460  0.00  0.00    +0.000 A 
ENDBRANCH  26  30
ENDBRANCH  22  26
ENDBRANCH   1  23
TORSDOF 4
