REMARK  Name = ZINC39984067
REMARK  6 active torsions:
REMARK  status: ('A' for Active; 'I' for Inactive)
REMARK    1  A    between atoms: C_1  and  C_2
REMARK    2  A    between atoms: C_2  and  C_3
REMARK    3  A    between atoms: C_2  and  C_4
REMARK    4  A    between atoms: C_7  and  C_10
REMARK    5  A    between atoms: C_11  and  C_12
REMARK    6  A    between atoms: C_11  and  C_14
REMARK                            x       y       z     vdW  Elec       q    Type
REMARK                         _______ _______ _______ _____ _____    ______ ____
ROOT
ATOM      1  C   UNL     1      -5.388  -1.993   0.043  0.00  0.00    +0.030 C 
ATOM      2  C   UNL     1      -6.357  -1.323   0.728  0.00  0.00    +0.096 C 
ENDROOT
BRANCH   2   3
ATOM      3  C   UNL     1      -7.718  -1.893   0.832  0.00  0.00    +0.176 A 
ATOM      4  N   UNL     1      -8.637  -1.217   1.499  0.00  0.00    -0.207 NA
ATOM      5  C   UNL     1      -9.882  -1.697   1.615  0.00  0.00    +0.167 A 
ATOM      6  C   UNL     1     -10.186  -2.942   1.009  0.00  0.00    +0.085 A 
ATOM      7  C   UNL     1     -11.483  -3.460   1.122  0.00  0.00    +0.018 A 
ATOM      8  C   UNL     1     -12.408  -2.732   1.821  0.00  0.00    +0.021 A 
ATOM      9  C   UNL     1     -12.046  -1.517   2.392  0.00  0.00    +0.113 A 
ATOM     10  N   UNL     1     -10.829  -1.036   2.284  0.00  0.00    -0.235 NA
ATOM     11  C   UNL     1      -9.163  -3.622   0.307  0.00  0.00    +0.283 A 
ATOM     12  N   UNL     1      -7.967  -3.062   0.244  0.00  0.00    -0.188 NA
ATOM     13  O   UNL     1      -9.404  -4.813  -0.288  0.00  0.00    -0.265 OA
ENDBRANCH   2   3
BRANCH   1  17
ATOM     14  C   UNL     1      -1.389  -0.589   0.106  0.00  0.00    -0.045 A 
ATOM     15  C   UNL     1      -2.216  -0.362   1.193  0.00  0.00    +0.004 A 
ATOM     16  C   UNL     1      -3.518  -0.815   1.181  0.00  0.00    +0.008 A 
ATOM     17  C   UNL     1      -4.003  -1.506   0.065  0.00  0.00    -0.024 A 
ATOM     18  C   UNL     1      -3.161  -1.732  -1.030  0.00  0.00    +0.008 A 
ATOM     19  C   UNL     1      -1.863  -1.267  -1.004  0.00  0.00    +0.004 A 
BRANCH  14  21
ATOM     20  C   UNL     1       0.036   1.431   0.294  0.00  0.00    +0.012 C 
ATOM     21  C   UNL     1       0.032  -0.090   0.128  0.00  0.00    +0.013 C 
ATOM     22  C   UNL     1       0.780  -0.732   1.298  0.00  0.00    +0.012 C 
ENDBRANCH  14  21
ENDBRANCH   1  17
BRANCH   2  23
ATOM     23  C   UNL     1      -6.056  -0.068   1.349  0.00  0.00    +0.103 C 
ATOM     24  N   UNL     1      -5.818   0.928   1.841  0.00  0.00    -0.191 NA
ENDBRANCH   2  23
TORSDOF 4
