REMARK  Name = ZINC19851208
REMARK  6 active torsions:
REMARK  status: ('A' for Active; 'I' for Inactive)
REMARK    1  A    between atoms: C_6  and  C_7
REMARK    2  A    between atoms: C_10  and  S_15
REMARK    3  A    between atoms: N_11  and  C_12
REMARK    4  A    between atoms: S_15  and  C_16
REMARK    5  A    between atoms: C_16  and  C_17
REMARK    6  A    between atoms: N_19  and  C_20
REMARK                            x       y       z     vdW  Elec       q    Type
REMARK                         _______ _______ _______ _____ _____    ______ ____
ROOT
ATOM      1  C   UNL     1      -1.278  -0.747  -0.046  0.00  0.00    +0.165 A 
ATOM      2  N   UNL     1      -2.450  -0.304   0.346  0.00  0.00    -0.128 NA
ATOM      3  N   UNL     1      -3.317  -1.251   0.293  0.00  0.00    -0.122 NA
ATOM      4  C   UNL     1      -2.752  -2.357  -0.138  0.00  0.00    +0.193 A 
ATOM      5  N   UNL     1      -1.437  -2.074  -0.374  0.00  0.00    -0.299 N 
ENDROOT
BRANCH   1  11
ATOM      6  C   UNL     1      -0.071   1.409  -0.366  0.00  0.00    +0.012 A 
ATOM      7  C   UNL     1       1.101   2.132  -0.441  0.00  0.00    +0.016 A 
ATOM      8  C   UNL     1       2.321   1.497  -0.278  0.00  0.00    +0.018 A 
ATOM      9  C   UNL     1       2.372   0.134  -0.040  0.00  0.00    +0.016 A 
ATOM     10  C   UNL     1       1.207  -0.600   0.036  0.00  0.00    +0.012 A 
ATOM     11  C   UNL     1      -0.026   0.034  -0.127  0.00  0.00    +0.019 A 
ATOM     12 BR   UNL     1       3.923   2.496  -0.383  0.00  0.00    -0.050 Br
ENDBRANCH   1  11
BRANCH   5  13
ATOM     13  C   UNL     1      -0.409  -2.992  -0.869  0.00  0.00    +0.091 C 
ATOM     14  C   UNL     1      -0.880  -4.289  -1.531  0.00  0.00    +0.027 C 
ATOM     15  C   UNL     1      -0.244  -4.327  -0.140  0.00  0.00    +0.027 C 
ENDBRANCH   5  13
BRANCH   4  16
ATOM     16  S   UNL     1      -3.545  -3.913  -0.373  0.00  0.00    -0.076 S 
BRANCH  16  17
ATOM     17  C   UNL     1      -5.266  -3.605   0.111  0.00  0.00    +0.178 C 
BRANCH  17  18
ATOM     18  C   UNL     1      -6.066  -4.873  -0.045  0.00  0.00    +0.260 C 
ATOM     19  O   UNL     1      -7.379  -4.883   0.258  0.00  0.00    -0.270 OA
ATOM     20  N   UNL     1      -5.488  -5.959  -0.472  0.00  0.00    -0.175 NA
BRANCH  20  21
ATOM     21  C   UNL     1      -6.211  -7.106  -0.614  0.00  0.00    +0.249 A 
ATOM     22  N   UNL     1      -7.497  -7.253  -0.354  0.00  0.00    -0.198 NA
ATOM     23  C   UNL     1      -7.866  -8.507  -0.606  0.00  0.00    +0.247 A 
ATOM     24  N   UNL     1      -6.831  -9.183  -1.029  0.00  0.00    -0.159 NA
ATOM     25  N   UNL     1      -5.741  -8.299  -1.050  0.00  0.00    -0.243 N 
ATOM     26  H   UNL     1      -4.832  -8.501  -1.322  0.00  0.00    +0.192 HD
ENDBRANCH  20  21
ENDBRANCH  17  18
ENDBRANCH  16  17
ENDBRANCH   4  16
TORSDOF 6
