REMARK  Name = ZINC20729675
REMARK  5 active torsions:
REMARK  status: ('A' for Active; 'I' for Inactive)
REMARK    1  A    between atoms: C_4  and  C_7
REMARK    2  A    between atoms: C_7  and  C_8
REMARK    3  A    between atoms: C_8  and  N_9
REMARK    4  A    between atoms: C_10  and  C_12
REMARK    5  A    between atoms: C_15  and  C_18
REMARK                            x       y       z     vdW  Elec       q    Type
REMARK                         _______ _______ _______ _____ _____    ______ ____
ROOT
ATOM      1  C   UNL     1       1.555   1.760  -0.741  0.00  0.00    +0.037 A 
ATOM      2  C   UNL     1       2.849   1.237  -0.812  0.00  0.00    +0.013 A 
ATOM      3  C   UNL     1       3.926   2.046  -0.586  0.00  0.00    +0.009 A 
ATOM      4  C   UNL     1       3.733   3.396  -0.270  0.00  0.00    -0.021 A 
ATOM      5  C   UNL     1       2.436   3.917  -0.193  0.00  0.00    +0.009 A 
ATOM      6  C   UNL     1       1.360   3.108  -0.426  0.00  0.00    +0.013 A 
ENDROOT
BRANCH   4   7
ATOM      7  C   UNL     1       4.891   4.266  -0.019  0.00  0.00    +0.059 C 
ATOM      8  C   UNL     1       5.969   3.784   0.640  0.00  0.00    +0.191 C 
ATOM      9  C   UNL     1       5.945   2.455   1.293  0.00  0.00    +0.284 C 
ATOM     10  O   UNL     1       4.902   1.953   1.664  0.00  0.00    -0.266 OA
ATOM     11  N   UNL     1       7.133   1.820   1.454  0.00  0.00    -0.276 N 
ATOM     12  C   UNL     1       8.301   2.444   0.998  0.00  0.00    +0.077 A 
ATOM     13  C   UNL     1       9.481   1.721   0.898  0.00  0.00    +0.027 A 
ATOM     14  C   UNL     1      10.632   2.338   0.446  0.00  0.00    +0.002 A 
ATOM     15  C   UNL     1      10.612   3.675   0.092  0.00  0.00    +0.004 A 
ATOM     16  C   UNL     1       9.440   4.403   0.190  0.00  0.00    +0.048 A 
ATOM     17  C   UNL     1       8.283   3.792   0.642  0.00  0.00    +0.150 A 
ATOM     18  O   UNL     1       7.126   4.505   0.739  0.00  0.00    -0.449 OA
ATOM     19  H   UNL     1       7.168   0.832   1.937  0.00  0.00    +0.155 HD
ENDBRANCH   4   7
BRANCH   1  21
ATOM     20  N   UNL     1       0.578  -0.414  -1.295  0.00  0.00    -0.311 N 
ATOM     21  C   UNL     1       0.391   0.885  -0.991  0.00  0.00    +0.244 C 
ATOM     22  O   UNL     1      -0.735   1.339  -0.929  0.00  0.00    -0.270 OA
ATOM     23  H   UNL     1       1.597  -0.824  -1.356  0.00  0.00    +0.149 HD
BRANCH  20  24
ATOM     24  C   UNL     1      -0.576  -1.282  -1.543  0.00  0.00    +0.109 C 
BRANCH  24  25
ATOM     25  C   UNL     1      -0.091  -2.697  -1.864  0.00  0.00    +0.054 C 
BRANCH  25  29
ATOM     26  C   UNL     1      -3.456  -5.226  -2.589  0.00  0.00    +0.000 A 
ATOM     27  C   UNL     1      -2.869  -4.539  -3.635  0.00  0.00    +0.000 A 
ATOM     28  C   UNL     1      -1.781  -3.721  -3.401  0.00  0.00    +0.004 A 
ATOM     29  C   UNL     1      -1.278  -3.589  -2.119  0.00  0.00    -0.046 A 
ATOM     30  C   UNL     1      -1.861  -4.280  -1.074  0.00  0.00    +0.004 A 
ATOM     31  C   UNL     1      -2.954  -5.095  -1.308  0.00  0.00    +0.000 A 
ENDBRANCH  25  29
ENDBRANCH  24  25
ENDBRANCH  20  24
ENDBRANCH   1  21
TORSDOF 5
