REMARK  Name = ZINC05555499
REMARK  3 active torsions:
REMARK  status: ('A' for Active; 'I' for Inactive)
REMARK    1  A    between atoms: C_6  and  S_11
REMARK    2  A    between atoms: S_11  and  O_14
REMARK    3  A    between atoms: O_14  and  N_15
REMARK                            x       y       z     vdW  Elec       q    Type
REMARK                         _______ _______ _______ _____ _____    ______ ____
ROOT
ATOM      1  S   UNL     1       1.040   7.702   0.031  0.00  0.00    +0.170 S 
ATOM      2  O   UNL     1       2.275   8.128  -0.529  0.00  0.00    -0.130 OA
ATOM      3  O   UNL     1      -0.216   8.094  -0.506  0.00  0.00    -0.130 OA
ENDROOT
BRANCH   1   9
ATOM      4  C   UNL     1      -0.013   1.076   0.008  0.00  0.00    +0.001 A 
ATOM      5  C   UNL     1      -1.235   1.746   0.017  0.00  0.00    +0.001 A 
ATOM      6  C   UNL     1      -1.288   3.106   0.030  0.00  0.00    +0.008 A 
ATOM      7  C   UNL     1      -0.096   3.849   0.023  0.00  0.00    -0.016 A 
ATOM      8  C   UNL     1      -0.111   5.254   0.030  0.00  0.00    +0.039 A 
ATOM      9  C   UNL     1       1.064   5.940   0.022  0.00  0.00    +0.131 A 
ATOM     10  C   UNL     1       2.286   5.270   0.008  0.00  0.00    +0.031 A 
ATOM     11  C   UNL     1       2.340   3.910  -0.000  0.00  0.00    +0.010 A 
ATOM     12  C   UNL     1       1.147   3.167   0.008  0.00  0.00    -0.018 A 
ATOM     13  C   UNL     1       1.163   1.762   0.000  0.00  0.00    +0.008 A 
ENDBRANCH   1   9
BRANCH   1  14
ATOM     14  O   UNL     1       1.048   8.167   1.562  0.00  0.00    -0.225 OA
BRANCH  14  15
ATOM     15  N   UNL     1       2.103   8.074   2.163  0.00  0.00    -0.052 NA
ATOM     16  C   UNL     1       2.176   8.439   3.421  0.00  0.00    +0.106 C 
ATOM     17  C   UNL     1       0.988   8.966   4.105  0.00  0.00    +0.035 C 
ATOM     18  C   UNL     1       1.066   9.335   5.400  0.00  0.00    +0.053 C 
ATOM     19  C   UNL     1       2.333   9.222   6.119  0.00  0.00    +0.179 C 
ATOM     20  O   UNL     1       2.401   9.561   7.289  0.00  0.00    -0.288 OA
ATOM     21  C   UNL     1       3.519   8.703   5.441  0.00  0.00    +0.053 C 
ATOM     22  C   UNL     1       3.448   8.327   4.148  0.00  0.00    +0.035 C 
ENDBRANCH  14  15
ENDBRANCH   1  14
TORSDOF 3
