REMARK  Name = ZINC30630530
REMARK  7 active torsions:
REMARK  status: ('A' for Active; 'I' for Inactive)
REMARK    1  A    between atoms: C_1  and  C_2
REMARK    2  A    between atoms: C_2  and  C_4
REMARK    3  A    between atoms: C_2  and  N_15
REMARK    4  A    between atoms: C_10  and  O_13
REMARK    5  A    between atoms: O_13  and  C_14
REMARK    6  A    between atoms: N_15  and  C_16
REMARK    7  A    between atoms: C_16  and  C_17
REMARK                            x       y       z     vdW  Elec       q    Type
REMARK                         _______ _______ _______ _____ _____    ______ ____
ROOT
ATOM      1  C   UNL     1       6.585   1.321   1.259  0.00  0.00    -0.006 C 
ATOM      2  C   UNL     1       5.617   2.499   1.387  0.00  0.00    -0.007 C 
ENDROOT
BRANCH   2   3
ATOM      3  C   UNL     1       5.867   3.215   2.689  0.00  0.00    +0.092 A 
ATOM      4  C   UNL     1       6.577   4.343   2.821  0.00  0.00    +0.051 A 
ATOM      5  C   UNL     1       6.555   4.676   4.250  0.00  0.00    +0.024 A 
ATOM      6  C   UNL     1       7.095   5.708   5.019  0.00  0.00    +0.012 A 
ATOM      7  C   UNL     1       6.890   5.728   6.371  0.00  0.00    +0.004 A 
ATOM      8  C   UNL     1       6.149   4.728   6.984  0.00  0.00    +0.049 A 
ATOM      9  C   UNL     1       5.604   3.698   6.240  0.00  0.00    +0.163 A 
ATOM     10  C   UNL     1       5.804   3.661   4.861  0.00  0.00    +0.176 A 
ATOM     11  O   UNL     1       5.414   2.811   3.889  0.00  0.00    -0.458 OA
BRANCH   9  12
ATOM     12  O   UNL     1       4.879   2.723   6.851  0.00  0.00    -0.491 OA
ATOM     13  C   UNL     1       4.717   2.827   8.267  0.00  0.00    +0.277 C 
ENDBRANCH   9  12
ENDBRANCH   2   3
BRANCH   2  14
ATOM     14  N   UNL     1       4.235   2.003   1.358  0.00  0.00    +0.388 N 
ATOM     15  H   UNL     1       4.185   1.026   1.862  0.00  0.00    -0.084 HD
ATOM     16  H   UNL     1       3.578   2.717   1.877  0.00  0.00    -0.084 HD
BRANCH  14  17
ATOM     17  C   UNL     1       3.761   1.845  -0.024  0.00  0.00    -0.038 C 
BRANCH  17  18
ATOM     18  C   UNL     1       2.343   1.336  -0.013  0.00  0.00    -0.026 A 
ATOM     19  C   UNL     1       1.184   2.038   0.002  0.00  0.00    +0.010 A 
ATOM     20  C   UNL     1      -0.016   1.352   0.009  0.00  0.00    +0.023 A 
ATOM     21  C   UNL     1       0.002  -0.004   0.002  0.00  0.00    +0.055 A 
ATOM     22  S   UNL     1       1.754  -0.349  -0.017  0.00  0.00    -0.088 S 
ATOM     23 BR   UNL     1      -1.450  -1.215   0.009  0.00  0.00    -0.043 Br
ENDBRANCH  17  18
ENDBRANCH  14  17
ENDBRANCH   2  14
TORSDOF 5
