REMARK  Name = ZINC56384200
REMARK  4 active torsions:
REMARK  status: ('A' for Active; 'I' for Inactive)
REMARK    1  A    between atoms: C_1  and  C_2
REMARK    2  A    between atoms: C_6  and  N_8
REMARK    3  A    between atoms: C_9  and  C_11
REMARK    4  A    between atoms: N_19  and  C_20
REMARK                            x       y       z     vdW  Elec       q    Type
REMARK                         _______ _______ _______ _____ _____    ______ ____
ROOT
ATOM      1  C   UNL     1      -0.134  -4.685   3.796  0.00  0.00    +0.078 C 
ATOM      2  C   UNL     1       1.106  -4.358   4.632  0.00  0.00    +0.032 C 
ATOM      3  C   UNL     1       0.989  -5.038   6.000  0.00  0.00    +0.110 C 
ATOM      4  N   UNL     1       0.760  -6.475   5.795  0.00  0.00    -0.286 N 
ATOM      5  C   UNL     1      -0.353  -6.898   4.934  0.00  0.00    +0.110 C 
ATOM      6  C   UNL     1      -0.220  -6.197   3.578  0.00  0.00    +0.032 C 
ATOM      7  C   UNL     1       1.556  -7.388   6.387  0.00  0.00    +0.303 C 
ATOM      8  O   UNL     1       1.417  -8.569   6.135  0.00  0.00    -0.253 OA
ATOM      9  N   UNL     1       2.505  -6.991   7.257  0.00  0.00    -0.292 N 
ATOM     10  H   UNL     1       2.664  -6.045   7.403  0.00  0.00    +0.151 HD
ENDROOT
BRANCH   9  11
ATOM     11  C   UNL     1       3.297  -7.988   7.981  0.00  0.00    +0.105 C 
ATOM     12  C   UNL     1       3.860  -7.381   9.284  0.00  0.00    +0.032 C 
ATOM     13  C   UNL     1       5.245  -6.867   8.838  0.00  0.00    +0.037 C 
ATOM     14  C   UNL     1       5.633  -7.739   7.663  0.00  0.00    -0.042 A 
ATOM     15  C   UNL     1       4.512  -8.385   7.170  0.00  0.00    -0.024 A 
ATOM     16  C   UNL     1       4.627  -9.242   6.088  0.00  0.00    +0.006 A 
ATOM     17  C   UNL     1       5.858  -9.455   5.498  0.00  0.00    +0.000 A 
ATOM     18  C   UNL     1       6.979  -8.811   5.989  0.00  0.00    +0.000 A 
ATOM     19  C   UNL     1       6.866  -7.952   7.072  0.00  0.00    +0.004 A 
ENDBRANCH   9  11
BRANCH   1  21
ATOM     20  N   UNL     1       0.049  -2.646   2.407  0.00  0.00    -0.270 N 
ATOM     21  C   UNL     1      -0.037  -3.990   2.462  0.00  0.00    +0.221 C 
ATOM     22  O   UNL     1      -0.038  -4.640   1.438  0.00  0.00    -0.275 OA
ATOM     23  H   UNL     1       0.123  -2.131   3.226  0.00  0.00    +0.156 HD
BRANCH  20  29
ATOM     24  C   UNL     1       0.019  -2.988  -2.370  0.00  0.00    +0.065 C 
ATOM     25  C   UNL     1       0.018  -2.133  -1.129  0.00  0.00    +0.040 A 
ATOM     26  C   UNL     1       0.001  -0.757  -1.250  0.00  0.00    +0.023 A 
ATOM     27  C   UNL     1      -0.000   0.025  -0.103  0.00  0.00    +0.005 A 
ATOM     28  C   UNL     1       0.016  -0.607   1.128  0.00  0.00    +0.044 A 
ATOM     29  C   UNL     1       0.033  -1.996   1.174  0.00  0.00    +0.125 A 
ATOM     30  N   UNL     1       0.027  -2.708   0.058  0.00  0.00    -0.237 NA
ENDBRANCH  20  29
ENDBRANCH   1  21
TORSDOF 3
