REMARK  Name = ZINC24343965
REMARK  8 active torsions:
REMARK  status: ('A' for Active; 'I' for Inactive)
REMARK    1  A    between atoms: C_1  and  C_2
REMARK    2  A    between atoms: C_2  and  C_3
REMARK    3  A    between atoms: C_2  and  C_4
REMARK    4  A    between atoms: C_10  and  C_12
REMARK    5  A    between atoms: N_15  and  S_18
REMARK    6  A    between atoms: S_18  and  C_21
REMARK    7  A    between atoms: C_25  and  C_27
REMARK    8  A    between atoms: C_27  and  C_29
REMARK                            x       y       z     vdW  Elec       q    Type
REMARK                         _______ _______ _______ _____ _____    ______ ____
ROOT
ATOM      1  C   UNL     1      -4.675  -0.360   3.788  0.00  0.00    +0.078 C 
ATOM      2  C   UNL     1      -5.179   0.802   2.930  0.00  0.00    +0.030 C 
ATOM      3  C   UNL     1      -3.982   1.544   2.326  0.00  0.00    +0.110 C 
ATOM      4  N   UNL     1      -3.144   0.578   1.602  0.00  0.00    -0.177 NA
ATOM      5  C   UNL     1      -2.684  -0.626   2.307  0.00  0.00    +0.110 C 
ATOM      6  C   UNL     1      -3.891  -1.341   2.912  0.00  0.00    +0.030 C 
ENDROOT
BRANCH   1  13
ATOM      7  C   UNL     1      -7.859  -4.341   7.050  0.00  0.00    +0.053 A 
ATOM      8  C   UNL     1      -9.025  -3.758   6.679  0.00  0.00    +0.072 A 
ATOM      9  S   UNL     1      -8.420  -2.438   5.637  0.00  0.00    -0.060 S 
ATOM     10  C   UNL     1      -6.726  -2.791   5.787  0.00  0.00    +0.165 A 
ATOM     11  N   UNL     1      -6.730  -3.838   6.589  0.00  0.00    -0.229 NA
ATOM     12  N   UNL     1      -5.644  -2.135   5.212  0.00  0.00    -0.264 N 
ATOM     13  C   UNL     1      -5.848  -1.072   4.410  0.00  0.00    +0.222 C 
ATOM     14  O   UNL     1      -6.977  -0.687   4.190  0.00  0.00    -0.275 OA
ATOM     15  H   UNL     1      -4.620  -2.484   5.412  0.00  0.00    +0.157 HD
BRANCH   7  17
ATOM     16  C   UNL     1      -7.900  -5.065   9.421  0.00  0.00    +0.014 C 
ATOM     17  C   UNL     1      -7.852  -5.537   7.967  0.00  0.00    +0.032 C 
ATOM     18  C   UNL     1      -9.073  -6.411   7.674  0.00  0.00    +0.014 C 
ENDBRANCH   7  17
ENDBRANCH   1  13
BRANCH   4  19
ATOM     19  S   UNL     1      -2.732   0.839   0.020  0.00  0.00    +0.061 S 
ATOM     20  O   UNL     1      -3.725   1.700  -0.522  0.00  0.00    -0.153 OA
ATOM     21  O   UNL     1      -2.441  -0.434  -0.540  0.00  0.00    -0.153 OA
BRANCH  19  22
ATOM     22  C   UNL     1      -1.223   1.748   0.017  0.00  0.00    +0.106 A 
ATOM     23  C   UNL     1      -0.013   1.076   0.008  0.00  0.00    +0.028 A 
ATOM     24  C   UNL     1       1.179   1.780   0.000  0.00  0.00    +0.003 A 
ATOM     25  C   UNL     1       1.168   3.159   0.007  0.00  0.00    +0.011 A 
ATOM     26  C   UNL     1      -0.050   3.846   0.022  0.00  0.00    +0.019 A 
ATOM     27  C   UNL     1      -1.250   3.126   0.030  0.00  0.00    +0.040 A 
BRANCH  26  28
ATOM     28  C   UNL     1      -0.070   5.317   0.029  0.00  0.00    +0.160 C 
ATOM     29  O   UNL     1      -1.128   5.909   0.042  0.00  0.00    -0.292 OA
ATOM     30  C   UNL     1       1.225   6.088   0.021  0.00  0.00    +0.091 C 
ENDBRANCH  26  28
ENDBRANCH  19  22
ENDBRANCH   4  19
TORSDOF 5
