REMARK  Name = ZINC12052878
REMARK  9 active torsions:
REMARK  status: ('A' for Active; 'I' for Inactive)
REMARK    1  A    between atoms: C_1  and  C_2
REMARK    2  A    between atoms: C_10  and  C_13
REMARK    3  A    between atoms: C_13  and  N_62
REMARK    4  A    between atoms: C_16  and  C_19
REMARK    5  A    between atoms: C_19  and  C_26
REMARK    6  A    between atoms: C_26  and  C_27
REMARK    7  A    between atoms: C_27  and  C_28
REMARK    8  A    between atoms: C_28  and  C_29
REMARK    9  A    between atoms: C_28  and  C_30
REMARK                            x       y       z     vdW  Elec       q    Type
REMARK                         _______ _______ _______ _____ _____    ______ ____
ROOT
ATOM      1  C   UNL     1       1.579  -2.558  -2.409  0.00  0.00    -0.078 C 
ATOM      2  C   UNL     1       0.765  -2.050  -1.216  0.00  0.00    -0.013 C 
ATOM      3  C   UNL     1       0.863  -0.523  -1.151  0.00  0.00    +0.018 C 
ATOM      4  C   UNL     1       0.362   0.071  -2.471  0.00  0.00    -0.013 C 
ATOM      5  C   UNL     1       1.187  -0.500  -3.627  0.00  0.00    -0.078 C 
ATOM      6  N   UNL     1       1.031  -1.970  -3.650  0.00  0.00    +0.383 N 
ATOM      7  H   UNL     1       0.032  -2.198  -3.713  0.00  0.00    -0.081 HD
ENDROOT
BRANCH   3   8
ATOM      8  C   UNL     1       0.002  -0.004   0.002  0.00  0.00    +0.115 C 
ATOM      9  C   UNL     1      -1.406  -0.556  -0.094  0.00  0.00    +0.244 C 
ATOM     10  O   UNL     1      -2.199  -0.388  -0.996  0.00  0.00    -0.273 OA
ATOM     11  N   UNL     1      -1.594  -1.273   1.032  0.00  0.00    -0.238 N 
ATOM     12  C   UNL     1      -0.511  -1.251   1.817  0.00  0.00    +0.307 C 
ATOM     13  O   UNL     1      -0.440  -1.825   2.886  0.00  0.00    -0.252 OA
ATOM     14  N   UNL     1       0.490  -0.523   1.292  0.00  0.00    -0.285 N 
ATOM     15  H   UNL     1      -2.413  -1.747   1.246  0.00  0.00    +0.159 HD
ATOM     16  H   UNL     1       1.364  -0.370   1.685  0.00  0.00    +0.151 HD
BRANCH   8  17
ATOM     17  C   UNL     1      -0.019   1.526   0.010  0.00  0.00    +0.036 C 
BRANCH  17  18
ATOM     18  C   UNL     1      -0.735   2.019   1.269  0.00  0.00    +0.005 C 
BRANCH  18  19
ATOM     19  C   UNL     1      -0.756   3.549   1.278  0.00  0.00    -0.017 C 
ATOM     20  C   UNL     1      -1.601   4.054   0.107  0.00  0.00    +0.007 C 
ATOM     21  C   UNL     1      -1.359   4.044   2.594  0.00  0.00    +0.007 C 
ENDBRANCH  18  19
ENDBRANCH  17  18
ENDBRANCH   8  17
ENDBRANCH   3   8
BRANCH   6  22
ATOM     22  C   UNL     1       1.727  -2.533  -4.825  0.00  0.00    -0.036 C 
BRANCH  22  32
ATOM     23  C   UNL     1       0.127   2.462 -10.237  0.00  0.00    +0.044 C 
ATOM     24  C   UNL     1      -0.043   1.117  -9.579  0.00  0.00    -0.050 A 
ATOM     25  C   UNL     1      -0.916   0.187 -10.124  0.00  0.00    +0.007 A 
ATOM     26  C   UNL     1      -1.085  -1.049  -9.537  0.00  0.00    +0.047 A 
ATOM     27  C   UNL     1      -0.377  -1.372  -8.386  0.00  0.00    +0.138 A 
ATOM     28  C   UNL     1       0.506  -0.429  -7.835  0.00  0.00    +0.064 A 
ATOM     29  C   UNL     1       0.669   0.817  -8.438  0.00  0.00    +0.018 A 
ATOM     30  C   UNL     1       1.241  -0.793  -6.608  0.00  0.00    +0.194 A 
ATOM     31  O   UNL     1       2.018  -0.017  -6.078  0.00  0.00    -0.287 OA
ATOM     32  C   UNL     1       1.009  -2.088  -6.073  0.00  0.00    +0.018 A 
ATOM     33  C   UNL     1       0.140  -2.913  -6.684  0.00  0.00    +0.201 A 
ATOM     34  O   UNL     1      -0.526  -2.574  -7.793  0.00  0.00    -0.462 OA
ENDBRANCH  22  32
ENDBRANCH   6  22
TORSDOF 6
