REMARK  Name = ZINC49425402
REMARK  6 active torsions:
REMARK  status: ('A' for Active; 'I' for Inactive)
REMARK    1  A    between atoms: C_4  and  C_7
REMARK    2  A    between atoms: C_7  and  C_8
REMARK    3  A    between atoms: C_7  and  N_14
REMARK    4  A    between atoms: C_15  and  C_17
REMARK    5  A    between atoms: N_26  and  C_27
REMARK    6  A    between atoms: C_27  and  C_28
REMARK                            x       y       z     vdW  Elec       q    Type
REMARK                         _______ _______ _______ _____ _____    ______ ____
ROOT
ATOM      1  N   UNL     1       3.609  -1.863  -0.933  0.00  0.00    -0.304 N 
ATOM      2  C   UNL     1       4.719  -2.369  -1.507  0.00  0.00    +0.218 C 
ATOM      3  O   UNL     1       5.800  -1.865  -1.286  0.00  0.00    -0.275 OA
ATOM      4  H   UNL     1       2.745  -2.266  -1.110  0.00  0.00    +0.150 HD
ENDROOT
BRANCH   2   5
ATOM      5  C   UNL     1       4.617  -3.560  -2.425  0.00  0.00    +0.092 C 
ATOM      6  C   UNL     1       6.010  -3.931  -2.937  0.00  0.00    +0.016 C 
ATOM      7  C   UNL     1       5.903  -5.120  -3.895  0.00  0.00    +0.020 C 
ATOM      8  C   UNL     1       5.327  -6.325  -3.144  0.00  0.00    +0.109 C 
ATOM      9  N   UNL     1       4.054  -5.932  -2.526  0.00  0.00    -0.285 N 
ATOM     10  C   UNL     1       4.025  -4.747  -1.658  0.00  0.00    +0.122 C 
ATOM     11  C   UNL     1       2.932  -6.645  -2.751  0.00  0.00    +0.302 C 
ATOM     12  O   UNL     1       1.906  -6.365  -2.162  0.00  0.00    -0.253 OA
ATOM     13  N   UNL     1       2.949  -7.668  -3.627  0.00  0.00    -0.295 N 
ATOM     14  H   UNL     1       3.783  -7.939  -4.042  0.00  0.00    +0.151 HD
BRANCH  13  15
ATOM     15  C   UNL     1       1.707  -8.372  -3.955  0.00  0.00    +0.148 C 
BRANCH  15  16
ATOM     16  C   UNL     1       1.996  -9.465  -4.952  0.00  0.00    +0.007 A 
ATOM     17  C   UNL     1       2.329 -10.760  -4.726  0.00  0.00    +0.013 A 
ATOM     18  C   UNL     1       2.551 -11.592  -5.807  0.00  0.00    +0.008 A 
ATOM     19  C   UNL     1       2.430 -11.090  -7.060  0.00  0.00    +0.045 A 
ATOM     20  S   UNL     1       1.983  -9.392  -6.736  0.00  0.00    -0.100 S 
ENDBRANCH  15  16
ENDBRANCH  13  15
ENDBRANCH   2   5
BRANCH   1  21
ATOM     21  C   UNL     1       3.709  -0.705  -0.041  0.00  0.00    +0.134 C 
BRANCH  21  25
ATOM     22  C   UNL     1      -0.021   1.377   0.007  0.00  0.00    +0.000 A 
ATOM     23  C   UNL     1       1.166   2.086  -0.001  0.00  0.00    +0.000 A 
ATOM     24  C   UNL     1       2.373   1.412  -0.017  0.00  0.00    +0.006 A 
ATOM     25  C   UNL     1       2.393   0.030  -0.023  0.00  0.00    -0.023 A 
ATOM     26  C   UNL     1       1.206  -0.679  -0.014  0.00  0.00    +0.006 A 
ATOM     27  C   UNL     1      -0.001  -0.005   0.000  0.00  0.00    +0.000 A 
ENDBRANCH  21  25
BRANCH  21  28
ATOM     28  C   UNL     1       4.042  -1.172   1.352  0.00  0.00    -0.023 A 
ATOM     29  C   UNL     1       3.455  -2.317   1.857  0.00  0.00    +0.006 A 
ATOM     30  C   UNL     1       3.761  -2.745   3.135  0.00  0.00    +0.000 A 
ATOM     31  C   UNL     1       4.655  -2.028   3.909  0.00  0.00    +0.000 A 
ATOM     32  C   UNL     1       5.243  -0.883   3.404  0.00  0.00    +0.000 A 
ATOM     33  C   UNL     1       4.940  -0.458   2.124  0.00  0.00    +0.006 A 
ENDBRANCH  21  28
ENDBRANCH   1  21
TORSDOF 6
