REMARK  Name = ZINC27533605
REMARK  4 active torsions:
REMARK  status: ('A' for Active; 'I' for Inactive)
REMARK    1  A    between atoms: C_3  and  C_6
REMARK    2  A    between atoms: C_7  and  C_8
REMARK    3  A    between atoms: N_12  and  C_16
REMARK    4  A    between atoms: C_19  and  O_22
REMARK                            x       y       z     vdW  Elec       q    Type
REMARK                         _______ _______ _______ _____ _____    ______ ____
ROOT
ATOM      1  C   UNL     1      -1.052   4.958   0.942  0.00  0.00    +0.020 C 
ATOM      2  C   UNL     1      -0.549   3.756   0.495  0.00  0.00    +0.080 C 
ATOM      3  C   UNL     1       0.795   3.279   0.495  0.00  0.00    +0.265 C 
ATOM      4  O   UNL     1       1.703   3.961   0.936  0.00  0.00    -0.269 OA
ATOM      5  N   UNL     1       1.027   2.074   0.003  0.00  0.00    -0.197 N 
ATOM      6  C   UNL     1       0.020   1.317  -0.486  0.00  0.00    +0.290 C 
ATOM      7  O   UNL     1       0.069   0.201  -0.968  0.00  0.00    -0.262 OA
ATOM      8  S   UNL     1      -1.401   2.374  -0.252  0.00  0.00    -0.025 S 
ENDROOT
BRANCH   5   9
ATOM      9  C   UNL     1       2.338   1.574  -0.011  0.00  0.00    +0.045 A 
ATOM     10  C   UNL     1       3.156   1.802  -1.110  0.00  0.00    +0.027 A 
ATOM     11  C   UNL     1       4.447   1.313  -1.122  0.00  0.00    +0.047 A 
ATOM     12  C   UNL     1       4.924   0.586  -0.041  0.00  0.00    +0.117 A 
ATOM     13  C   UNL     1       4.106   0.354   1.055  0.00  0.00    +0.047 A 
ATOM     14  C   UNL     1       2.816   0.846   1.070  0.00  0.00    +0.027 A 
BRANCH  12  15
ATOM     15  O   UNL     1       6.194   0.101  -0.055  0.00  0.00    -0.507 OA
ATOM     16  H   UNL     1       6.573  -0.475   0.802  0.00  0.00    +0.292 HD
ENDBRANCH  12  15
ENDBRANCH   5   9
BRANCH   1  18
ATOM     17  C   UNL     1      -0.687   7.104   1.938  0.00  0.00    +0.046 C 
ATOM     18  C   UNL     1      -0.190   5.917   1.496  0.00  0.00    +0.005 C 
BRANCH  17  21
ATOM     19  C   UNL     1       0.993   9.925   3.436  0.00  0.00    +0.042 A 
ATOM     20  C   UNL     1      -0.185   9.310   2.982  0.00  0.00    +0.049 A 
ATOM     21  C   UNL     1       0.182   8.071   2.497  0.00  0.00    +0.128 A 
ATOM     22  O   UNL     1       1.516   7.944   2.655  0.00  0.00    -0.464 OA
ATOM     23  C   UNL     1       2.006   9.059   3.215  0.00  0.00    +0.195 A 
ENDBRANCH  17  21
ENDBRANCH   1  18
TORSDOF 4
