REMARK  Name = ZINC12873078
REMARK  6 active torsions:
REMARK  status: ('A' for Active; 'I' for Inactive)
REMARK    1  A    between atoms: C_4  and  C_7
REMARK    2  A    between atoms: C_7  and  C_8
REMARK    3  A    between atoms: C_8  and  N_9
REMARK    4  A    between atoms: C_14  and  C_30
REMARK    5  A    between atoms: C_30  and  C_31
REMARK    6  A    between atoms: C_31  and  C_32
REMARK                            x       y       z     vdW  Elec       q    Type
REMARK                         _______ _______ _______ _____ _____    ______ ____
ROOT
ATOM      1  N   UNL     1      -1.117   1.966   0.018  0.00  0.00    -0.241 N 
ATOM      2  C   UNL     1      -0.014   1.208   0.009  0.00  0.00    +0.224 C 
ATOM      3  O   UNL     1       0.002  -0.004   0.002  0.00  0.00    -0.275 OA
ATOM      4  C   UNL     1       1.207   2.098   0.002  0.00  0.00    +0.073 C 
ATOM      5  C   UNL     1       1.949   1.958   1.348  0.00  0.00    -0.057 C 
ATOM      6  C   UNL     1       1.039   4.109   1.378  0.00  0.00    +0.050 C 
ATOM      7  C   UNL     1       0.607   3.532   0.024  0.00  0.00    +0.088 C 
ATOM      8  C   UNL     1      -0.884   3.284   0.031  0.00  0.00    +0.225 C 
ATOM      9  O   UNL     1      -1.738   4.145   0.042  0.00  0.00    -0.275 OA
ATOM     10  C   UNL     1       2.256   4.979   1.242  0.00  0.00    -0.028 A 
ATOM     11  C   UNL     1       3.536   4.754   0.787  0.00  0.00    +0.004 A 
ATOM     12  C   UNL     1       4.461   5.784   0.784  0.00  0.00    +0.000 A 
ATOM     13  C   UNL     1       4.096   7.038   1.239  0.00  0.00    +0.002 A 
ATOM     14  C   UNL     1       2.815   7.267   1.697  0.00  0.00    +0.023 A 
ATOM     15  C   UNL     1       1.879   6.236   1.705  0.00  0.00    +0.036 A 
ATOM     16  N   UNL     1       0.543   6.219   2.113  0.00  0.00    -0.286 N 
ATOM     17  C   UNL     1      -0.021   5.006   1.956  0.00  0.00    +0.211 C 
ATOM     18  O   UNL     1      -1.161   4.697   2.228  0.00  0.00    -0.277 OA
ATOM     19  H   UNL     1       0.076   6.991   2.469  0.00  0.00    +0.155 HD
ATOM     20  N   UNL     1       1.307   2.951   2.212  0.00  0.00    +0.394 N 
ATOM     21  H   UNL     1       1.933   3.206   2.985  0.00  0.00    -0.083 HD
ATOM     22  H   UNL     1       0.429   2.576   2.592  0.00  0.00    -0.083 HD
ENDROOT
BRANCH   1  23
ATOM     23  C   UNL     1      -2.468   1.400   0.016  0.00  0.00    +0.121 C 
BRANCH  23  24
ATOM     24  C   UNL     1      -2.935   1.192   1.458  0.00  0.00    +0.054 C 
BRANCH  24  28
ATOM     25  C   UNL     1      -6.874  -0.460   1.456  0.00  0.00    +0.000 A 
ATOM     26  C   UNL     1      -5.774  -1.296   1.446  0.00  0.00    +0.000 A 
ATOM     27  C   UNL     1      -4.499  -0.762   1.448  0.00  0.00    +0.004 A 
ATOM     28  C   UNL     1      -4.325   0.609   1.457  0.00  0.00    -0.046 A 
ATOM     29  C   UNL     1      -5.425   1.446   1.472  0.00  0.00    +0.004 A 
ATOM     30  C   UNL     1      -6.700   0.912   1.467  0.00  0.00    +0.000 A 
ENDBRANCH  24  28
ENDBRANCH  23  24
ENDBRANCH   1  23
BRANCH   5  31
ATOM     31  C   UNL     1       1.780   0.542   1.903  0.00  0.00    -0.006 C 
BRANCH  31  32
ATOM     32  C   UNL     1       2.623   0.387   3.171  0.00  0.00    +0.094 C 
BRANCH  32  33
ATOM     33  C   UNL     1       2.457  -1.007   3.717  0.00  0.00    +0.210 C 
ATOM     34  O   UNL     1       1.735  -1.799   3.149  0.00  0.00    -0.276 OA
ATOM     35  N   UNL     1       3.110  -1.374   4.838  0.00  0.00    -0.329 N 
ATOM     36  H   UNL     1       3.687  -0.740   5.292  0.00  0.00    +0.145 HD
ATOM     37  H   UNL     1       3.003  -2.271   5.190  0.00  0.00    +0.145 HD
ENDBRANCH  32  33
ENDBRANCH  31  32
ENDBRANCH   5  31
TORSDOF 6
