REMARK  Name = ZINC14459788
REMARK  8 active torsions:
REMARK  status: ('A' for Active; 'I' for Inactive)
REMARK    1  A    between atoms: C_1  and  O_2
REMARK    2  A    between atoms: O_2  and  C_3
REMARK    3  A    between atoms: C_7  and  C_10
REMARK    4  A    between atoms: C_8  and  O_9
REMARK    5  A    between atoms: C_21  and  S_26
REMARK    6  A    between atoms: S_26  and  N_29
REMARK    7  A    between atoms: N_29  and  C_30
REMARK    8  A    between atoms: C_30  and  C_31
REMARK                            x       y       z     vdW  Elec       q    Type
REMARK                         _______ _______ _______ _____ _____    ______ ____
ROOT
ATOM      1  C   UNL     1      -0.767   0.772   2.477  0.00  0.00    +0.109 C 
ATOM      2  C   UNL     1      -0.807   1.618   1.208  0.00  0.00    +0.029 C 
ATOM      3  C   UNL     1      -0.013   1.086   0.008  0.00  0.00    +0.033 C 
ATOM      4  C   UNL     1      -0.827   1.630  -1.167  0.00  0.00    -0.030 C 
ATOM      5  C   UNL     1      -2.088   1.820  -0.796  0.00  0.00    -0.023 C 
ATOM      6  C   UNL     1      -2.234   1.398   0.620  0.00  0.00    +0.049 C 
ATOM      7  C   UNL     1      -3.189   2.058   1.538  0.00  0.00    -0.018 A 
ATOM      8  C   UNL     1      -4.331   2.686   1.091  0.00  0.00    +0.034 A 
ATOM      9  C   UNL     1      -5.199   3.277   1.989  0.00  0.00    +0.106 A 
ATOM     10  C   UNL     1      -4.923   3.240   3.344  0.00  0.00    +0.030 A 
ATOM     11  C   UNL     1      -3.780   2.618   3.801  0.00  0.00    +0.025 A 
ATOM     12  C   UNL     1      -2.897   2.025   2.906  0.00  0.00    +0.031 A 
ATOM     13  N   UNL     1      -1.733   1.418   3.392  0.00  0.00    -0.336 N 
ATOM     14  H   UNL     1      -1.557   1.421   4.346  0.00  0.00    +0.147 HD
ENDROOT
BRANCH   1  19
ATOM     15  C   UNL     1       2.858  -0.062   3.181  0.00  0.00    +0.162 A 
ATOM     16  C   UNL     1       3.155   0.845   4.186  0.00  0.00    +0.049 A 
ATOM     17  C   UNL     1       2.185   1.723   4.633  0.00  0.00    +0.004 A 
ATOM     18  C   UNL     1       0.919   1.702   4.077  0.00  0.00    +0.009 A 
ATOM     19  C   UNL     1       0.615   0.796   3.078  0.00  0.00    +0.018 A 
ATOM     20  C   UNL     1       1.583  -0.087   2.624  0.00  0.00    +0.163 A 
BRANCH  15  22
ATOM     21  C   UNL     1       5.097  -0.843   3.356  0.00  0.00    +0.277 C 
ATOM     22  O   UNL     1       3.811  -0.925   2.739  0.00  0.00    -0.491 OA
ENDBRANCH  15  22
BRANCH  20  23
ATOM     23  O   UNL     1       1.287  -0.975   1.638  0.00  0.00    -0.503 OA
ATOM     24  H   UNL     1       1.455  -0.642   0.746  0.00  0.00    +0.292 HD
ENDBRANCH  20  23
ENDBRANCH   1  19
BRANCH   9  25
ATOM     25  S   UNL     1      -6.657   4.079   1.409  0.00  0.00    +0.059 S 
ATOM     26  O   UNL     1      -6.963   3.502   0.147  0.00  0.00    -0.153 OA
ATOM     27  O   UNL     1      -7.579   4.077   2.490  0.00  0.00    -0.153 OA
BRANCH  25  28
ATOM     28  N   UNL     1      -6.265   5.662   1.123  0.00  0.00    -0.186 NA
ATOM     29  H   UNL     1      -6.673   6.365   1.653  0.00  0.00    +0.148 HD
BRANCH  28  30
ATOM     30  C   UNL     1      -5.304   6.000   0.071  0.00  0.00    +0.141 C 
BRANCH  30  31
ATOM     31  C   UNL     1      -5.394   7.473  -0.237  0.00  0.00    -0.032 A 
ATOM     32  C   UNL     1      -6.261   7.922  -1.214  0.00  0.00    +0.005 A 
ATOM     33  C   UNL     1      -6.347   9.273  -1.494  0.00  0.00    +0.000 A 
ATOM     34  C   UNL     1      -5.558  10.174  -0.803  0.00  0.00    +0.000 A 
ATOM     35  C   UNL     1      -4.686   9.723   0.171  0.00  0.00    +0.000 A 
ATOM     36  C   UNL     1      -4.604   8.373   0.453  0.00  0.00    +0.005 A 
ENDBRANCH  30  31
ENDBRANCH  28  30
ENDBRANCH  25  28
ENDBRANCH   9  25
TORSDOF 7
