REMARK  Name = ZINC09007852
REMARK  12 active torsions:
REMARK  status: ('A' for Active; 'I' for Inactive)
REMARK    1  A    between atoms: C_1  and  C_2
REMARK    2  A    between atoms: C_2  and  N_63
REMARK    3  A    between atoms: C_3  and  C_4
REMARK    4  A    between atoms: C_3  and  N_63
REMARK    5  A    between atoms: C_5  and  C_6
REMARK    6  A    between atoms: C_5  and  N_63
REMARK    7  A    between atoms: C_6  and  C_7
REMARK    8  A    between atoms: C_7  and  N_8
REMARK    9  A    between atoms: C_9  and  C_28
REMARK   10  A    between atoms: C_12  and  C_13
REMARK   11  A    between atoms: C_12  and  O_23
REMARK   12  A    between atoms: C_14  and  C_22
REMARK                            x       y       z     vdW  Elec       q    Type
REMARK                         _______ _______ _______ _____ _____    ______ ____
ROOT
ATOM      1  N   UNL     1       4.106   6.114   0.070  0.00  0.00    -0.284 N 
ATOM      2  C   UNL     1       4.943   6.407   1.238  0.00  0.00    +0.145 C 
ATOM      3  C   UNL     1       6.263   6.913   0.705  0.00  0.00    +0.073 C 
ATOM      4  C   UNL     1       7.369   7.312   1.452  0.00  0.00    +0.151 C 
ATOM      5  C   UNL     1       6.151   6.907  -0.685  0.00  0.00    +0.249 C 
ATOM      6  O   UNL     1       7.016   7.255  -1.473  0.00  0.00    -0.282 OA
ATOM      7  C   UNL     1       4.800   6.406  -1.043  0.00  0.00    +0.288 C 
ATOM      8  O   UNL     1       4.383   6.279  -2.177  0.00  0.00    -0.266 OA
ENDROOT
BRANCH   4   9
ATOM      9  C   UNL     1       8.532   7.768   0.800  0.00  0.00    +0.111 A 
ATOM     10  C   UNL     1       9.423   7.005   0.051  0.00  0.00    +0.068 A 
ATOM     11  N   UNL     1      10.379   7.803  -0.390  0.00  0.00    -0.232 NA
ATOM     12  C   UNL     1      10.160   9.049   0.032  0.00  0.00    +0.138 A 
ATOM     13  N   UNL     1       9.013   9.066   0.773  0.00  0.00    -0.297 N 
ATOM     14  C   UNL     1       8.564  10.221   1.331  0.00  0.00    +0.093 A 
ATOM     15  C   UNL     1       9.239  11.381   1.153  0.00  0.00    +0.018 A 
ATOM     16  C   UNL     1      10.416  11.399   0.393  0.00  0.00    +0.005 A 
ATOM     17  C   UNL     1      10.876  10.242  -0.165  0.00  0.00    +0.047 A 
ATOM     18  C   UNL     1       9.316   5.525  -0.211  0.00  0.00    +0.068 C 
ENDBRANCH   4   9
BRANCH   2  19
ATOM     19  C   UNL     1       5.162   5.152   2.043  0.00  0.00    -0.021 A 
ATOM     20  C   UNL     1       5.379   3.947   1.401  0.00  0.00    +0.006 A 
ATOM     21  C   UNL     1       5.585   2.797   2.139  0.00  0.00    +0.001 A 
ATOM     22  C   UNL     1       5.564   2.849   3.520  0.00  0.00    +0.015 A 
ATOM     23  C   UNL     1       5.342   4.053   4.163  0.00  0.00    +0.018 A 
ATOM     24  C   UNL     1       5.141   5.205   3.424  0.00  0.00    +0.021 A 
ATOM     25 BR   UNL     1       5.313   4.124   6.053  0.00  0.00    -0.050 Br
ENDBRANCH   2  19
BRANCH   4  26
ATOM     26  O   UNL     1       7.326   7.261   2.802  0.00  0.00    -0.504 OA
ATOM     27  H   UNL     1       8.197   7.580   3.176  0.00  0.00    +0.292 HD
ENDBRANCH   4  26
BRANCH   1  28
ATOM     28  C   UNL     1       2.737   5.596   0.110  0.00  0.00    +0.107 C 
BRANCH  28  29
ATOM     29  C   UNL     1       2.769   4.066   0.089  0.00  0.00    +0.000 C 
BRANCH  29  30
ATOM     30  C   UNL     1       1.339   3.525   0.131  0.00  0.00    -0.077 C 
BRANCH  30  31
ATOM     31  N   UNL     1       1.390   2.048   0.129  0.00  0.00    +0.379 N 
ATOM     32  H   UNL     1       2.096   1.738   0.806  0.00  0.00    -0.082 HD
BRANCH  31  34
ATOM     33  C   UNL     1       0.215  -0.013   0.725  0.00  0.00    -0.017 C 
ATOM     34  C   UNL     1       0.076   1.496   0.519  0.00  0.00    -0.082 C 
ENDBRANCH  31  34
BRANCH  31  35
ATOM     35  C   UNL     1       1.766   1.558  -1.214  0.00  0.00    -0.082 C 
ATOM     36  C   UNL     1       0.722   1.979  -2.250  0.00  0.00    -0.017 C 
ENDBRANCH  31  35
ENDBRANCH  30  31
ENDBRANCH  29  30
ENDBRANCH  28  29
ENDBRANCH   1  28
TORSDOF 9
