REMARK  Name = ZINC19342263
REMARK  4 active torsions:
REMARK  status: ('A' for Active; 'I' for Inactive)
REMARK    1  A    between atoms: C_3  and  C_6
REMARK    2  A    between atoms: N_15  and  C_16
REMARK    3  A    between atoms: C_16  and  C_17
REMARK    4  A    between atoms: N_19  and  C_20
REMARK                            x       y       z     vdW  Elec       q    Type
REMARK                         _______ _______ _______ _____ _____    ______ ____
ROOT
ATOM      1  C   UNL     1       0.826   4.950   2.285  0.00  0.00    +0.020 C 
ENDROOT
BRANCH   1  10
ATOM      2  C   UNL     1       1.988   6.381   0.717  0.00  0.00    +0.031 C 
ATOM      3  C   UNL     1       1.973   6.883  -0.724  0.00  0.00    -0.044 A 
ATOM      4  C   UNL     1       3.065   7.476  -1.352  0.00  0.00    +0.010 A 
ATOM      5  C   UNL     1       2.965   7.890  -2.636  0.00  0.00    +0.045 A 
ATOM      6  S   UNL     1       1.279   7.454  -3.035  0.00  0.00    -0.101 S 
ATOM      7  C   UNL     1       0.838   6.756  -1.468  0.00  0.00    -0.010 A 
ATOM      8  C   UNL     1      -0.458   6.161  -1.024  0.00  0.00    +0.024 C 
ATOM      9  C   UNL     1      -0.416   6.037   0.508  0.00  0.00    -0.072 C 
ATOM     10  N   UNL     1       0.872   5.445   0.903  0.00  0.00    +0.395 N 
ATOM     11  H   UNL     1       1.053   4.588   0.238  0.00  0.00    -0.080 HD
BRANCH   2  14
ATOM     12  C   UNL     1       5.345   5.201   1.674  0.00  0.00    +0.041 A 
ATOM     13  C   UNL     1       4.347   6.202   1.640  0.00  0.00    +0.043 A 
ATOM     14  C   UNL     1       3.291   5.677   0.994  0.00  0.00    +0.096 A 
ATOM     15  O   UNL     1       3.595   4.418   0.636  0.00  0.00    -0.469 OA
ATOM     16  C   UNL     1       4.841   4.126   1.042  0.00  0.00    +0.195 A 
ENDBRANCH   2  14
ENDBRANCH   1  10
BRANCH   1  17
ATOM     17  C   UNL     1       0.543   6.096   3.221  0.00  0.00    +0.201 C 
ATOM     18  O   UNL     1       0.308   7.199   2.775  0.00  0.00    -0.278 OA
ATOM     19  N   UNL     1       0.550   5.896   4.554  0.00  0.00    -0.287 N 
ATOM     20  H   UNL     1       0.835   4.915   4.961  0.00  0.00    +0.155 HD
BRANCH  19  21
ATOM     21  C   UNL     1       0.196   6.938   5.421  0.00  0.00    +0.037 A 
ATOM     22  C   UNL     1      -0.490   6.660   6.596  0.00  0.00    +0.027 A 
ATOM     23  C   UNL     1      -0.842   7.686   7.454  0.00  0.00    +0.051 A 
ATOM     24  C   UNL     1      -0.507   8.992   7.139  0.00  0.00    +0.162 A 
ATOM     25  C   UNL     1       0.178   9.273   5.965  0.00  0.00    +0.164 A 
ATOM     26  C   UNL     1       0.535   8.248   5.107  0.00  0.00    +0.072 A 
ATOM     27  O   UNL     1       0.501  10.565   5.667  0.00  0.00    -0.488 OA
ATOM     28  C   UNL     1      -0.595  11.428   5.357  0.00  0.00    +0.232 C 
ATOM     29  C   UNL     1      -1.211  11.995   6.627  0.00  0.00    +0.082 C 
ATOM     30  C   UNL     1      -1.842  10.917   7.495  0.00  0.00    +0.232 C 
ATOM     31  O   UNL     1      -0.850  10.011   7.981  0.00  0.00    -0.488 OA
ENDBRANCH  19  21
ENDBRANCH   1  17
TORSDOF 4
