REMARK  Name = ZINC13164103
REMARK  5 active torsions:
REMARK  status: ('A' for Active; 'I' for Inactive)
REMARK    1  A    between atoms: C_1  and  C_2
REMARK    2  A    between atoms: C_5  and  C_17
REMARK    3  A    between atoms: N_8  and  C_10
REMARK    4  A    between atoms: C_21  and  C_30
REMARK    5  A    between atoms: N_32  and  C_33
REMARK                            x       y       z     vdW  Elec       q    Type
REMARK                         _______ _______ _______ _____ _____    ______ ____
ROOT
ATOM      1  C   UNL     1       4.710  -5.539  -2.487  0.00  0.00    +0.258 C 
ATOM      2  O   UNL     1       4.732  -6.747  -2.337  0.00  0.00    -0.269 OA
ATOM      3  N   UNL     1       5.628  -4.941  -3.271  0.00  0.00    -0.260 N 
ATOM      4  C   UNL     1       5.720  -3.473  -3.353  0.00  0.00    +0.168 C 
ATOM      5  C   UNL     1       7.214  -3.103  -3.333  0.00  0.00    +0.276 C 
ATOM      6  O   UNL     1       7.859  -3.745  -4.435  0.00  0.00    -0.476 OA
ATOM      7  C   UNL     1       7.638  -5.075  -4.611  0.00  0.00    +0.143 A 
ATOM      8  C   UNL     1       6.529  -5.695  -4.042  0.00  0.00    +0.079 A 
ATOM      9  C   UNL     1       6.313  -7.050  -4.234  0.00  0.00    +0.027 A 
ATOM     10  C   UNL     1       7.204  -7.788  -4.992  0.00  0.00    +0.002 A 
ATOM     11  C   UNL     1       8.306  -7.176  -5.557  0.00  0.00    +0.004 A 
ATOM     12  C   UNL     1       8.526  -5.824  -5.369  0.00  0.00    +0.047 A 
ENDROOT
BRANCH   1  17
ATOM     13  C   UNL     1       0.273  -5.295   1.393  0.00  0.00    +0.068 C 
ATOM     14  C   UNL     1       0.788  -4.134   0.583  0.00  0.00    +0.069 A 
ATOM     15  C   UNL     1       1.865  -4.192  -0.360  0.00  0.00    +0.031 A 
ATOM     16  C   UNL     1       2.771  -5.129  -0.883  0.00  0.00    +0.032 A 
ATOM     17  C   UNL     1       3.684  -4.736  -1.816  0.00  0.00    +0.077 A 
ATOM     18  S   UNL     1       3.318  -3.001  -2.016  0.00  0.00    -0.064 S 
ATOM     19  C   UNL     1       1.976  -2.886  -0.862  0.00  0.00    +0.113 A 
ATOM     20  N   UNL     1       1.048  -2.114  -0.261  0.00  0.00    -0.225 N 
ATOM     21  N   UNL     1       0.325  -2.920   0.627  0.00  0.00    -0.170 NA
BRANCH  20  22
ATOM     22  C   UNL     1       0.838  -0.747  -0.490  0.00  0.00    +0.067 A 
ATOM     23  C   UNL     1      -0.447  -0.224  -0.450  0.00  0.00    +0.030 A 
ATOM     24  C   UNL     1      -0.651   1.123  -0.677  0.00  0.00    +0.040 A 
ATOM     25  C   UNL     1       0.425   1.952  -0.944  0.00  0.00    +0.124 A 
ATOM     26  C   UNL     1       1.708   1.433  -0.984  0.00  0.00    +0.040 A 
ATOM     27  C   UNL     1       1.917   0.086  -0.758  0.00  0.00    +0.030 A 
ATOM     28  F   UNL     1       0.224   3.269  -1.165  0.00  0.00    -0.205 F 
ENDBRANCH  20  22
ENDBRANCH   1  17
BRANCH   5  29
ATOM     29  C   UNL     1       7.365  -1.609  -3.460  0.00  0.00    +0.255 C 
ATOM     30  O   UNL     1       7.887  -1.134  -4.446  0.00  0.00    -0.272 OA
ATOM     31  N   UNL     1       6.921  -0.801  -2.477  0.00  0.00    -0.315 N 
ATOM     32  C   UNL     1       7.068   0.651  -2.600  0.00  0.00    +0.128 C 
ATOM     33  H   UNL     1       6.503  -1.181  -1.688  0.00  0.00    +0.148 HD
ENDBRANCH   5  29
TORSDOF 3
