REMARK  Name = ZINC12498029
REMARK  8 active torsions:
REMARK  status: ('A' for Active; 'I' for Inactive)
REMARK    1  A    between atoms: C_1  and  O_2
REMARK    2  A    between atoms: O_2  and  C_3
REMARK    3  A    between atoms: C_3  and  C_5
REMARK    4  A    between atoms: C_5  and  C_32
REMARK    5  A    between atoms: C_10  and  C_12
REMARK    6  A    between atoms: N_19  and  C_22
REMARK    7  A    between atoms: C_32  and  C_33
REMARK    8  A    between atoms: C_36  and  O_39
REMARK                            x       y       z     vdW  Elec       q    Type
REMARK                         _______ _______ _______ _____ _____    ______ ____
ROOT
ATOM      1  C   UNL     1      -1.113  -7.610   0.503  0.00  0.00    +0.048 C 
ATOM      2  C   UNL     1      -0.685  -6.331  -0.176  0.00  0.00    +0.086 C 
ATOM      3  C   UNL     1       0.865  -6.439   0.114  0.00  0.00    +0.078 C 
ATOM      4  C   UNL     1       1.142  -7.828  -0.334  0.00  0.00    -0.020 C 
ATOM      5  C   UNL     1       1.291  -5.124  -0.357  0.00  0.00    +0.229 C 
ATOM      6  O   UNL     1       2.324  -4.841  -0.925  0.00  0.00    -0.275 OA
ATOM      7  N   UNL     1       0.264  -4.279  -0.017  0.00  0.00    -0.210 N 
ATOM      8  C   UNL     1      -0.878  -4.951   0.328  0.00  0.00    +0.229 C 
ATOM      9  O   UNL     1      -1.842  -4.511   0.917  0.00  0.00    -0.275 OA
ATOM     10  N   UNL     1      -0.091  -8.581   0.009  0.00  0.00    +0.396 N 
ATOM     11  H   UNL     1      -0.446  -9.064  -0.825  0.00  0.00    -0.083 HD
ATOM     12  H   UNL     1       0.115  -9.270   0.741  0.00  0.00    -0.083 HD
ENDROOT
BRANCH   7  13
ATOM     13  C   UNL     1       0.375  -2.880  -0.016  0.00  0.00    +0.048 A 
ATOM     14  C   UNL     1      -0.714  -2.097   0.344  0.00  0.00    +0.028 A 
ATOM     15  C   UNL     1      -0.606  -0.720   0.344  0.00  0.00    +0.051 A 
ATOM     16  C   UNL     1       0.590  -0.115  -0.015  0.00  0.00    +0.162 A 
ATOM     17  C   UNL     1       1.683  -0.896  -0.373  0.00  0.00    +0.164 A 
ATOM     18  C   UNL     1       1.573  -2.278  -0.374  0.00  0.00    +0.073 A 
ATOM     19  O   UNL     1       2.866  -0.321  -0.720  0.00  0.00    -0.485 OA
ATOM     20  C   UNL     1       2.829   1.067  -1.069  0.00  0.00    +0.270 C 
ATOM     21  C   UNL     1       1.994   1.805  -0.013  0.00  0.00    +0.270 C 
ATOM     22  O   UNL     1       0.677   1.244  -0.012  0.00  0.00    -0.485 OA
ENDBRANCH   7  13
BRANCH   4  23
ATOM     23  C   UNL     1       1.370  -7.864  -1.824  0.00  0.00    -0.023 A 
ATOM     24  C   UNL     1       2.540  -7.911  -2.507  0.00  0.00    +0.009 A 
ATOM     25  C   UNL     1       2.508  -7.939  -3.889  0.00  0.00    +0.008 A 
ATOM     26  C   UNL     1       1.308  -7.917  -4.519  0.00  0.00    +0.045 A 
ATOM     27  S   UNL     1       0.170  -7.863  -3.145  0.00  0.00    -0.103 S 
ENDBRANCH   4  23
BRANCH   1  28
ATOM     28  C   UNL     1      -2.499  -8.009   0.069  0.00  0.00    +0.297 C 
ATOM     29  O   UNL     1      -3.272  -7.171  -0.333  0.00  0.00    -0.252 OA
BRANCH  28  31
ATOM     30  C   UNL     1      -4.226  -9.608  -0.307  0.00  0.00    +0.280 C 
ATOM     31  O   UNL     1      -2.876  -9.296   0.128  0.00  0.00    -0.469 OA
ENDBRANCH  28  31
ENDBRANCH   1  28
BRANCH   1  32
ATOM     32  C   UNL     1      -1.042  -7.467   2.025  0.00  0.00    +0.034 C 
BRANCH  32  33
ATOM     33  C   UNL     1      -1.369  -8.789   2.669  0.00  0.00    -0.048 A 
ATOM     34  C   UNL     1      -2.678  -9.094   2.995  0.00  0.00    +0.007 A 
ATOM     35  C   UNL     1      -2.980 -10.308   3.581  0.00  0.00    +0.045 A 
ATOM     36  C   UNL     1      -1.968 -11.217   3.852  0.00  0.00    +0.117 A 
ATOM     37  C   UNL     1      -0.655 -10.907   3.529  0.00  0.00    +0.045 A 
ATOM     38  C   UNL     1      -0.359  -9.694   2.939  0.00  0.00    +0.007 A 
BRANCH  36  39
ATOM     39  O   UNL     1      -2.263 -12.410   4.433  0.00  0.00    -0.507 OA
ATOM     40  H   UNL     1      -2.237 -12.394   5.399  0.00  0.00    +0.292 HD
ENDBRANCH  36  39
ENDBRANCH  32  33
ENDBRANCH   1  32
TORSDOF 7
