REMARK  Name = ZINC19522399
REMARK  10 active torsions:
REMARK  status: ('A' for Active; 'I' for Inactive)
REMARK    1  A    between atoms: C_1  and  C_2
REMARK    2  A    between atoms: C_2  and  C_3
REMARK    3  A    between atoms: C_10  and  C_12
REMARK    4  A    between atoms: N_16  and  C_18
REMARK    5  A    between atoms: C_18  and  C_19
REMARK    6  A    between atoms: C_19  and  C_20
REMARK    7  A    between atoms: C_19  and  C_21
REMARK    8  A    between atoms: C_19  and  C_22
REMARK    9  A    between atoms: C_22  and  N_23
REMARK   10  A    between atoms: C_26  and  C_29
REMARK                            x       y       z     vdW  Elec       q    Type
REMARK                         _______ _______ _______ _____ _____    ______ ____
ROOT
ATOM      1  C   UNL     1       4.934  -4.912   5.039  0.00  0.00    +0.021 C 
ATOM      2  C   UNL     1       5.248  -3.550   4.366  0.00  0.00    -0.011 C 
ATOM      3  C   UNL     1       6.787  -3.472   4.440  0.00  0.00    -0.078 C 
ATOM      4  N   UNL     1       7.289  -4.851   4.581  0.00  0.00    +0.380 N 
ATOM      5  C   UNL     1       6.134  -5.775   4.574  0.00  0.00    -0.069 C 
ATOM      6  H   UNL     1       7.791  -4.942   5.452  0.00  0.00    -0.082 HD
ENDROOT
BRANCH   1  14
ATOM      7  C   UNL     1      -0.136  -6.843   2.384  0.00  0.00    +0.022 A 
ATOM      8  C   UNL     1      -0.336  -7.445   3.579  0.00  0.00    +0.093 A 
ATOM      9  C   UNL     1       0.616  -7.298   4.607  0.00  0.00    +0.275 A 
ATOM     10  N   UNL     1       1.722  -6.557   4.396  0.00  0.00    -0.180 N 
ATOM     11  C   UNL     1       1.918  -5.952   3.188  0.00  0.00    +0.138 A 
ATOM     12  N   UNL     1       0.988  -6.100   2.177  0.00  0.00    -0.343 N 
ATOM     13  C   UNL     1       3.100  -5.279   3.257  0.00  0.00    +0.071 A 
ATOM     14  C   UNL     1       3.633  -5.479   4.532  0.00  0.00    +0.067 A 
ATOM     15  N   UNL     1       2.814  -6.240   5.213  0.00  0.00    -0.167 NA
ATOM     16  O   UNL     1       0.440  -7.838   5.685  0.00  0.00    -0.266 OA
ATOM     17  H   UNL     1       1.133  -5.671   1.319  0.00  0.00    +0.167 HD
BRANCH   7  19
ATOM     18  C   UNL     1      -2.112  -5.808   1.302  0.00  0.00    +0.010 C 
ATOM     19  C   UNL     1      -1.151  -6.999   1.282  0.00  0.00    +0.050 C 
ENDBRANCH   7  19
ENDBRANCH   1  14
BRANCH   4  20
ATOM     20  C   UNL     1       8.184  -5.169   3.461  0.00  0.00    -0.074 C 
BRANCH  20  21
ATOM     21  C   UNL     1       9.517  -4.444   3.651  0.00  0.00    -0.064 C 
ATOM     22  C   UNL     1       9.296  -2.933   3.547  0.00  0.00    +0.007 C 
ATOM     23  C   UNL     1      10.089  -4.781   5.030  0.00  0.00    +0.007 C 
BRANCH  21  24
ATOM     24  C   UNL     1      10.501  -4.891   2.568  0.00  0.00    -0.074 C 
BRANCH  24  25
ATOM     25  N   UNL     1      11.870  -4.837   3.097  0.00  0.00    +0.380 N 
ATOM     26  C   UNL     1      12.799  -5.389   2.103  0.00  0.00    -0.079 C 
ATOM     27  C   UNL     1      14.216  -5.410   2.680  0.00  0.00    -0.016 C 
ATOM     28  C   UNL     1      14.637  -3.981   3.037  0.00  0.00    -0.018 C 
ATOM     29  C   UNL     1      13.620  -3.389   4.017  0.00  0.00    -0.016 C 
ATOM     30  C   UNL     1      12.225  -3.443   3.390  0.00  0.00    -0.079 C 
ATOM     31  C   UNL     1      16.021  -4.003   3.688  0.00  0.00    +0.007 C 
ATOM     32  H   UNL     1      11.924  -5.382   3.944  0.00  0.00    -0.082 HD
ENDBRANCH  24  25
ENDBRANCH  21  24
ENDBRANCH  20  21
ENDBRANCH   4  20
TORSDOF 6
