REMARK  Name = ZINC11970049
REMARK  13 active torsions:
REMARK  status: ('A' for Active; 'I' for Inactive)
REMARK    1  A    between atoms: C_1  and  C_2
REMARK    2  A    between atoms: C_2  and  C_3
REMARK    3  A    between atoms: C_2  and  C_4
REMARK    4  A    between atoms: C_7  and  C_10
REMARK    5  A    between atoms: C_10  and  N_68
REMARK    6  A    between atoms: C_12  and  N_29
REMARK    7  A    between atoms: C_15  and  C_17
REMARK    8  A    between atoms: N_19  and  C_20
REMARK    9  A    between atoms: C_20  and  C_21
REMARK   10  A    between atoms: C_21  and  C_22
REMARK   11  A    between atoms: C_31  and  C_34
REMARK   12  A    between atoms: C_34  and  O_36
REMARK   13  A    between atoms: O_36  and  C_37
REMARK                            x       y       z     vdW  Elec       q    Type
REMARK                         _______ _______ _______ _____ _____    ______ ____
ROOT
ATOM      1  C   UNL     1      -5.333   0.942  -0.716  0.00  0.00    -0.050 C 
ATOM      2  C   UNL     1      -4.897   2.223   0.038  0.00  0.00    +0.091 C 
ATOM      3  C   UNL     1      -5.418   1.979   1.473  0.00  0.00    +0.019 C 
ATOM      4  C   UNL     1      -6.540   0.935   1.322  0.00  0.00    +0.022 C 
ATOM      5  N   UNL     1      -6.644   0.657  -0.116  0.00  0.00    +0.391 N 
ATOM      6  H   UNL     1      -7.356   1.265  -0.536  0.00  0.00    -0.080 HD
ENDROOT
BRANCH   2   7
ATOM      7  N   UNL     1      -3.438   2.357   0.031  0.00  0.00    -0.250 N 
ATOM      8  C   UNL     1      -2.539   1.353   0.021  0.00  0.00    +0.145 A 
ATOM      9  C   UNL     1      -1.301   1.931   0.019  0.00  0.00    +0.189 A 
ATOM     10  N   UNL     1      -1.454   3.266   0.033  0.00  0.00    -0.123 NA
ATOM     11  N   UNL     1      -2.709   3.555   0.034  0.00  0.00    -0.065 NA
BRANCH   9  12
ATOM     12  C   UNL     1      -0.014   1.211   0.009  0.00  0.00    +0.361 C 
ATOM     13  O   UNL     1       0.002  -0.004   0.002  0.00  0.00    -0.243 OA
BRANCH  12  14
ATOM     14  O   UNL     1       1.143   1.901   0.001  0.00  0.00    -0.463 OA
ATOM     15  C   UNL     1       2.372   1.126  -0.015  0.00  0.00    +0.280 C 
ENDBRANCH  12  14
ENDBRANCH   9  12
ENDBRANCH   2   7
BRANCH   4  16
ATOM     16  C   UNL     1      -7.838   1.498   1.841  0.00  0.00    +0.200 C 
ATOM     17  O   UNL     1      -8.785   1.624   1.094  0.00  0.00    -0.278 OA
ATOM     18  N   UNL     1      -7.945   1.862   3.134  0.00  0.00    -0.316 N 
ATOM     19  H   UNL     1      -7.187   1.761   3.731  0.00  0.00    +0.149 HD
BRANCH  18  20
ATOM     20  C   UNL     1      -9.207   2.409   3.639  0.00  0.00    +0.109 C 
BRANCH  20  21
ATOM     21  C   UNL     1      -9.062   2.737   5.126  0.00  0.00    +0.054 C 
BRANCH  21  22
ATOM     22  C   UNL     1     -10.360   3.300   5.645  0.00  0.00    -0.046 A 
ATOM     23  C   UNL     1     -10.585   4.664   5.608  0.00  0.00    +0.006 A 
ATOM     24  C   UNL     1     -11.777   5.181   6.079  0.00  0.00    +0.038 A 
ATOM     25  C   UNL     1     -12.742   4.333   6.598  0.00  0.00    +0.123 A 
ATOM     26  C   UNL     1     -12.513   2.968   6.639  0.00  0.00    +0.038 A 
ATOM     27  C   UNL     1     -11.322   2.453   6.162  0.00  0.00    +0.006 A 
ATOM     28  F   UNL     1     -13.905   4.838   7.063  0.00  0.00    -0.205 F 
ENDBRANCH  21  22
ENDBRANCH  20  21
ENDBRANCH  18  20
ENDBRANCH   4  16
BRANCH   5  29
ATOM     29  C   UNL     1      -7.025  -0.771  -0.338  0.00  0.00    -0.042 C 
BRANCH  29  33
ATOM     30  C   UNL     1      -6.674  -1.710  -4.491  0.00  0.00    -0.045 A 
ATOM     31  C   UNL     1      -5.590  -1.878  -3.650  0.00  0.00    +0.004 A 
ATOM     32  C   UNL     1      -5.703  -1.575  -2.306  0.00  0.00    +0.002 A 
ATOM     33  C   UNL     1      -6.901  -1.102  -1.803  0.00  0.00    -0.064 A 
ATOM     34  C   UNL     1      -7.987  -0.939  -2.643  0.00  0.00    +0.002 A 
ATOM     35  C   UNL     1      -7.872  -1.238  -3.988  0.00  0.00    +0.004 A 
BRANCH  30  37
ATOM     36  C   UNL     1      -7.559  -3.132  -6.319  0.00  0.00    +0.012 C 
ATOM     37  C   UNL     1      -6.550  -2.041  -5.956  0.00  0.00    +0.013 C 
ATOM     38  C   UNL     1      -6.832  -0.788  -6.787  0.00  0.00    +0.012 C 
ENDBRANCH  30  37
ENDBRANCH  29  33
ENDBRANCH   5  29
TORSDOF 10
