REMARK  Name = ZINC21236513
REMARK  11 active torsions:
REMARK  status: ('A' for Active; 'I' for Inactive)
REMARK    1  A    between atoms: C_1  and  C_2
REMARK    2  A    between atoms: C_2  and  C_3
REMARK    3  A    between atoms: C_3  and  O_4
REMARK    4  A    between atoms: O_4  and  C_5
REMARK    5  A    between atoms: C_10  and  C_11
REMARK    6  A    between atoms: C_16  and  C_21
REMARK    7  A    between atoms: C_24  and  O_29
REMARK    8  A    between atoms: C_25  and  O_27
REMARK    9  A    between atoms: O_27  and  C_28
REMARK   10  A    between atoms: O_29  and  C_30
REMARK   11  A    between atoms: C_30  and  C_31
REMARK                            x       y       z     vdW  Elec       q    Type
REMARK                         _______ _______ _______ _____ _____    ______ ____
ROOT
ATOM      1  C   UNL     1      -5.695  -1.916   0.114  0.00  0.00    +0.139 C 
ATOM      2  C   UNL     1      -4.425  -1.128  -0.111  0.00  0.00    +0.037 C 
ATOM      3  C   UNL     1      -3.919  -0.774  -1.302  0.00  0.00    +0.017 C 
ATOM      4  C   UNL     1      -2.608  -0.007  -1.382  0.00  0.00    +0.059 C 
ATOM      5  C   UNL     1      -2.471   0.915  -0.172  0.00  0.00    +0.032 C 
ATOM      6  C   UNL     1      -2.495   0.041   1.087  0.00  0.00    +0.088 C 
ATOM      7  C   UNL     1      -3.760  -0.765   1.085  0.00  0.00    +0.163 C 
ATOM      8  O   UNL     1      -4.231  -1.120   2.147  0.00  0.00    -0.292 OA
ATOM      9  N   UNL     1      -4.485  -1.044  -2.506  0.00  0.00    -0.316 N 
ATOM     10  C   UNL     1      -4.982  -2.287  -2.886  0.00  0.00    +0.052 A 
ATOM     11  C   UNL     1      -4.442  -3.012  -3.934  0.00  0.00    +0.025 A 
ATOM     12  C   UNL     1      -5.017  -4.220  -4.290  0.00  0.00    +0.002 A 
ATOM     13  C   UNL     1      -6.121  -4.695  -3.605  0.00  0.00    +0.002 A 
ATOM     14  C   UNL     1      -6.651  -3.979  -2.546  0.00  0.00    +0.025 A 
ATOM     15  C   UNL     1      -6.064  -2.779  -2.172  0.00  0.00    +0.049 A 
ATOM     16  N   UNL     1      -6.518  -2.066  -1.066  0.00  0.00    -0.331 N 
ATOM     17  H   UNL     1      -4.576  -0.250  -3.262  0.00  0.00    +0.152 HD
ATOM     18  H   UNL     1      -7.520  -1.613  -1.099  0.00  0.00    +0.147 HD
ENDROOT
BRANCH   1  24
ATOM     19  C   UNL     1      -6.279  -4.080   1.237  0.00  0.00    +0.126 A 
ATOM     20  C   UNL     1      -5.936  -5.344   1.696  0.00  0.00    +0.046 A 
ATOM     21  C   UNL     1      -4.643  -5.805   1.545  0.00  0.00    +0.004 A 
ATOM     22  C   UNL     1      -3.692  -5.010   0.932  0.00  0.00    +0.001 A 
ATOM     23  C   UNL     1      -4.032  -3.752   0.469  0.00  0.00    +0.009 A 
ATOM     24  C   UNL     1      -5.324  -3.287   0.618  0.00  0.00    +0.019 A 
BRANCH  19  25
ATOM     25  O   UNL     1      -7.550  -3.622   1.390  0.00  0.00    -0.492 OA
BRANCH  25  26
ATOM     26  C   UNL     1      -8.480  -4.493   2.037  0.00  0.00    +0.229 C 
BRANCH  26  28
ATOM     27  C   UNL     1     -10.843  -4.743   2.809  0.00  0.00    +0.007 C 
ATOM     28  C   UNL     1      -9.847  -3.810   2.117  0.00  0.00    +0.038 C 
ENDBRANCH  26  28
ENDBRANCH  25  26
ENDBRANCH  19  25
ENDBRANCH   1  24
BRANCH   5  29
ATOM     29  C   UNL     1      -1.167   1.666  -0.247  0.00  0.00    -0.040 A 
ATOM     30  C   UNL     1       0.027   0.971  -0.305  0.00  0.00    +0.008 A 
ATOM     31  C   UNL     1       1.226   1.656  -0.379  0.00  0.00    +0.050 A 
ATOM     32  C   UNL     1       1.233   3.041  -0.390  0.00  0.00    +0.162 A 
ATOM     33  C   UNL     1       0.032   3.741  -0.326  0.00  0.00    +0.162 A 
ATOM     34  C   UNL     1      -1.166   3.049  -0.252  0.00  0.00    +0.053 A 
BRANCH  33  35
ATOM     35  O   UNL     1       0.034   5.101  -0.336  0.00  0.00    -0.491 OA
ATOM     36  C   UNL     1      -1.236   5.752  -0.267  0.00  0.00    +0.277 C 
ENDBRANCH  33  35
BRANCH  32  37
ATOM     37  O   UNL     1       2.412   3.716  -0.463  0.00  0.00    -0.489 OA
BRANCH  37  38
ATOM     38  C   UNL     1       3.605   2.932  -0.527  0.00  0.00    +0.226 C 
ATOM     39  C   UNL     1       4.820   3.859  -0.604  0.00  0.00    +0.048 C 
ENDBRANCH  37  38
ENDBRANCH  32  37
ENDBRANCH   5  29
TORSDOF 8
