REMARK  Name = ZINC42294829
REMARK  3 active torsions:
REMARK  status: ('A' for Active; 'I' for Inactive)
REMARK    1  A    between atoms: C_8  and  C_10
REMARK    2  A    between atoms: N_18  and  C_19
REMARK    3  A    between atoms: C_19  and  C_20
REMARK                            x       y       z     vdW  Elec       q    Type
REMARK                         _______ _______ _______ _____ _____    ______ ____
ROOT
ATOM      1  C   UNL     1       3.078  -3.972  -0.050  0.00  0.00    +0.133 C 
ATOM      2  C   UNL     1       3.603  -4.380   1.343  0.00  0.00    +0.031 C 
ATOM      3  C   UNL     1       4.787  -5.325   1.004  0.00  0.00    +0.021 C 
ATOM      4  C   UNL     1       5.358  -4.662  -0.274  0.00  0.00    +0.110 C 
ATOM      5  N   UNL     1       4.173  -4.175  -1.009  0.00  0.00    -0.277 N 
ATOM      6  C   UNL     1       4.105  -3.953  -2.337  0.00  0.00    +0.303 C 
ATOM      7  O   UNL     1       3.071  -3.550  -2.834  0.00  0.00    -0.253 OA
ATOM      8  N   UNL     1       5.183  -4.178  -3.114  0.00  0.00    -0.296 N 
ATOM      9  H   UNL     1       6.008  -4.500  -2.718  0.00  0.00    +0.150 HD
ENDROOT
BRANCH   1  17
ATOM     10  C   UNL     1      -0.016   1.357   0.009  0.00  0.00    +0.002 A 
ATOM     11  C   UNL     1       1.156   2.100   0.002  0.00  0.00    +0.001 A 
ATOM     12  C   UNL     1       2.375   1.449  -0.013  0.00  0.00    +0.017 A 
ATOM     13  C   UNL     1       2.404   0.076  -0.021  0.00  0.00    +0.039 A 
ATOM     14  C   UNL     1       1.226  -0.705  -0.013  0.00  0.00    +0.079 A 
ATOM     15  C   UNL     1       0.002  -0.004   0.002  0.00  0.00    +0.029 A 
ATOM     16  N   UNL     1       1.464  -2.033  -0.023  0.00  0.00    -0.242 NA
ATOM     17  C   UNL     1       2.669  -2.521  -0.038  0.00  0.00    +0.100 A 
ATOM     18  S   UNL     1       3.669  -1.167  -0.040  0.00  0.00    -0.070 S 
ENDBRANCH   1  17
BRANCH   8  19
ATOM     19  C   UNL     1       5.109  -3.938  -4.557  0.00  0.00    +0.153 C 
BRANCH  19  20
ATOM     20  C   UNL     1       6.458  -4.269  -5.199  0.00  0.00    +0.228 C 
ATOM     21  C   UNL     1       6.421  -3.915  -6.692  0.00  0.00    +0.275 C 
ATOM     22  O   UNL     1       7.690  -4.250  -7.264  0.00  0.00    -0.485 OA
ATOM     23  C   UNL     1       8.203  -5.468  -6.941  0.00  0.00    +0.162 A 
ATOM     24  C   UNL     1       9.220  -6.006  -7.718  0.00  0.00    +0.049 A 
ATOM     25  C   UNL     1       9.753  -7.241  -7.401  0.00  0.00    +0.004 A 
ATOM     26  C   UNL     1       9.276  -7.944  -6.310  0.00  0.00    +0.004 A 
ATOM     27  C   UNL     1       8.263  -7.414  -5.534  0.00  0.00    +0.049 A 
ATOM     28  C   UNL     1       7.722  -6.176  -5.847  0.00  0.00    +0.163 A 
ATOM     29  O   UNL     1       6.719  -5.671  -5.077  0.00  0.00    -0.480 OA
ENDBRANCH  19  20
ENDBRANCH   8  19
TORSDOF 3
