REMARK  Name = ZINC53476343
REMARK  5 active torsions:
REMARK  status: ('A' for Active; 'I' for Inactive)
REMARK    1  A    between atoms: C_1  and  C_2
REMARK    2  A    between atoms: C_2  and  C_23
REMARK    3  A    between atoms: N_5  and  C_9
REMARK    4  A    between atoms: C_9  and  C_10
REMARK    5  A    between atoms: N_12  and  C_13
REMARK                            x       y       z     vdW  Elec       q    Type
REMARK                         _______ _______ _______ _____ _____    ______ ____
ROOT
ATOM      1  C   UNL     1      -0.019   1.526   0.010  0.00  0.00    +0.047 C 
ATOM      2  C   UNL     1       0.002  -0.004   0.002  0.00  0.00    +0.135 C 
ATOM      3  C   UNL     1       0.815  -0.520  -1.169  0.00  0.00    +0.251 C 
ATOM      4  O   UNL     1       0.595  -0.342  -2.348  0.00  0.00    -0.272 OA
ATOM      5  N   UNL     1       1.833  -1.217  -0.627  0.00  0.00    -0.215 N 
ATOM      6  C   UNL     1       1.777  -1.214   0.710  0.00  0.00    +0.310 C 
ATOM      7  O   UNL     1       2.586  -1.776   1.421  0.00  0.00    -0.252 OA
ATOM      8  N   UNL     1       0.724  -0.519   1.178  0.00  0.00    -0.281 N 
ATOM      9  H   UNL     1       0.487  -0.383   2.109  0.00  0.00    +0.152 HD
ENDROOT
BRANCH   2  10
ATOM     10  C   UNL     1      -1.401  -0.551  -0.040  0.00  0.00    -0.016 A 
ATOM     11  C   UNL     1      -2.005  -0.815  -1.256  0.00  0.00    +0.006 A 
ATOM     12  C   UNL     1      -3.292  -1.317  -1.294  0.00  0.00    +0.000 A 
ATOM     13  C   UNL     1      -3.976  -1.556  -0.117  0.00  0.00    +0.000 A 
ATOM     14  C   UNL     1      -3.372  -1.294   1.099  0.00  0.00    +0.000 A 
ATOM     15  C   UNL     1      -2.083  -0.796   1.137  0.00  0.00    +0.006 A 
ENDBRANCH   2  10
BRANCH   5  16
ATOM     16  C   UNL     1       2.871  -1.896  -1.406  0.00  0.00    +0.213 C 
BRANCH  16  17
ATOM     17  C   UNL     1       4.020  -0.950  -1.644  0.00  0.00    +0.231 C 
ATOM     18  O   UNL     1       3.975   0.180  -1.206  0.00  0.00    -0.274 OA
ATOM     19  N   UNL     1       5.097  -1.360  -2.343  0.00  0.00    -0.307 N 
ATOM     20  H   UNL     1       5.133  -2.264  -2.693  0.00  0.00    +0.149 HD
BRANCH  19  21
ATOM     21  C   UNL     1       6.213  -0.440  -2.574  0.00  0.00    +0.104 C 
ATOM     22  C   UNL     1       7.011  -0.869  -3.823  0.00  0.00    +0.032 C 
ATOM     23  C   UNL     1       8.111  -1.769  -3.221  0.00  0.00    +0.037 C 
ATOM     24  C   UNL     1       8.291  -1.278  -1.800  0.00  0.00    -0.042 A 
ATOM     25  C   UNL     1       7.199  -0.512  -1.427  0.00  0.00    -0.024 A 
ATOM     26  C   UNL     1       7.146   0.047  -0.162  0.00  0.00    +0.006 A 
ATOM     27  C   UNL     1       8.179  -0.157   0.732  0.00  0.00    +0.000 A 
ATOM     28  C   UNL     1       9.270  -0.921   0.363  0.00  0.00    +0.000 A 
ATOM     29  C   UNL     1       9.327  -1.482  -0.905  0.00  0.00    +0.004 A 
ENDBRANCH  19  21
ENDBRANCH  16  17
ENDBRANCH   5  16
TORSDOF 4
