REMARK  Name = ZINC11450116
REMARK  6 active torsions:
REMARK  status: ('A' for Active; 'I' for Inactive)
REMARK    1  A    between atoms: C_1  and  C_2
REMARK    2  A    between atoms: N_11  and  C_15
REMARK    3  A    between atoms: C_15  and  C_16
REMARK    4  A    between atoms: C_21  and  N_24
REMARK    5  A    between atoms: N_24  and  S_25
REMARK    6  A    between atoms: S_25  and  C_28
REMARK                            x       y       z     vdW  Elec       q    Type
REMARK                         _______ _______ _______ _____ _____    ______ ____
ROOT
ATOM      1  C   UNL     1      -2.969   0.347   5.573  0.00  0.00    +0.234 C 
ATOM      2  O   UNL     1      -1.778   0.378   5.343  0.00  0.00    -0.274 OA
ATOM      3  N   UNL     1      -3.409   0.315   6.847  0.00  0.00    -0.300 N 
ATOM      4  C   UNL     1      -4.848   0.283   7.141  0.00  0.00    +0.109 C 
ATOM      5  C   UNL     1      -5.184   1.422   8.102  0.00  0.00    +0.039 C 
ATOM      6  C   UNL     1      -4.287   1.325   9.338  0.00  0.00    +0.080 C 
ATOM      7  C   UNL     1      -2.822   1.462   8.919  0.00  0.00    +0.039 C 
ATOM      8  C   UNL     1      -2.458   0.318   7.967  0.00  0.00    +0.109 C 
ENDROOT
BRANCH   6   9
ATOM      9  N   UNL     1      -4.629   2.399  10.275  0.00  0.00    -0.186 NA
ATOM     10  H   UNL     1      -4.232   3.278  10.171  0.00  0.00    +0.148 HD
BRANCH   9  11
ATOM     11  S   UNL     1      -5.694   2.112  11.510  0.00  0.00    +0.065 S 
ATOM     12  O   UNL     1      -5.796   3.322  12.248  0.00  0.00    -0.153 OA
ATOM     13  O   UNL     1      -6.824   1.474  10.932  0.00  0.00    -0.153 OA
BRANCH  11  14
ATOM     14  C   UNL     1      -4.942   0.932  12.581  0.00  0.00    +0.142 A 
ATOM     15  C   UNL     1      -4.144   1.141  13.656  0.00  0.00    +0.036 A 
ATOM     16  C   UNL     1      -3.663   0.051  14.357  0.00  0.00    +0.010 A 
ATOM     17  C   UNL     1      -4.005  -1.196  13.949  0.00  0.00    +0.047 A 
ATOM     18  S   UNL     1      -5.042  -0.850  12.537  0.00  0.00    -0.077 S 
ENDBRANCH  11  14
ENDBRANCH   9  11
ENDBRANCH   6   9
BRANCH   1  19
ATOM     19  C   UNL     1      -3.956   0.343   4.435  0.00  0.00    +0.213 C 
BRANCH  19  29
ATOM     20  C   UNL     1      -0.002   1.056   2.507  0.00  0.00    +0.010 C 
ATOM     21  C   UNL     1      -0.730   1.580   1.267  0.00  0.00    +0.018 C 
ATOM     22  C   UNL     1      -0.013   1.086   0.008  0.00  0.00    +0.006 C 
ATOM     23  C   UNL     1      -0.753   1.593  -1.231  0.00  0.00    +0.000 C 
ATOM     24  C   UNL     1      -2.186   1.056  -1.227  0.00  0.00    +0.003 C 
ATOM     25  C   UNL     1      -2.911   1.550   0.027  0.00  0.00    +0.035 C 
ATOM     26  C   UNL     1      -2.167   1.069   1.268  0.00  0.00    +0.115 C 
ATOM     27  C   UNL     1      -2.885   1.517   2.521  0.00  0.00    +0.247 C 
ATOM     28  O   UNL     1      -3.102   2.655   2.875  0.00  0.00    -0.273 OA
ATOM     29  N   UNL     1      -3.233   0.381   3.161  0.00  0.00    -0.215 N 
ATOM     30  C   UNL     1      -2.836  -0.706   2.489  0.00  0.00    +0.310 C 
ATOM     31  O   UNL     1      -3.035  -1.844   2.866  0.00  0.00    -0.252 OA
ATOM     32  N   UNL     1      -2.191  -0.397   1.347  0.00  0.00    -0.285 N 
ATOM     33  H   UNL     1      -1.817  -1.020   0.705  0.00  0.00    +0.151 HD
ENDBRANCH  19  29
ENDBRANCH   1  19
TORSDOF 5
