REMARK  Name = ZINC38980922
REMARK  4 active torsions:
REMARK  status: ('A' for Active; 'I' for Inactive)
REMARK    1  A    between atoms: C_4  and  C_25
REMARK    2  A    between atoms: C_5  and  C_7
REMARK    3  A    between atoms: N_8  and  N_9
REMARK    4  A    between atoms: C_10  and  C_16
REMARK                            x       y       z     vdW  Elec       q    Type
REMARK                         _______ _______ _______ _____ _____    ______ ____
ROOT
ATOM      1  N   UNL     1       2.412  -4.180  -0.152  0.00  0.00    -0.175 N 
ATOM      2  C   UNL     1       3.606  -5.042  -0.178  0.00  0.00    +0.230 C 
ATOM      3  N   UNL     1       3.059  -6.403  -0.310  0.00  0.00    -0.242 N 
ATOM      4  N   UNL     1       1.666  -6.260  -0.350  0.00  0.00    -0.160 NA
ATOM      5  C   UNL     1       1.315  -5.021  -0.257  0.00  0.00    +0.206 C 
ATOM      6  S   UNL     1      -0.357  -4.466  -0.265  0.00  0.00    -0.011 SA
ATOM      7  H   UNL     1       3.561  -7.231  -0.360  0.00  0.00    +0.170 HD
ENDROOT
BRANCH   2   8
ATOM      8  C   UNL     1       4.490  -4.697  -1.379  0.00  0.00    +0.197 C 
ATOM      9  C   UNL     1       5.689  -5.620  -1.445  0.00  0.00    -0.017 C 
ATOM     10  C   UNL     1       5.560  -6.261  -2.605  0.00  0.00    +0.065 C 
ATOM     11  C   UNL     1       6.715  -7.229  -2.790  0.00  0.00    +0.057 C 
ATOM     12  C   UNL     1       7.788  -6.774  -1.777  0.00  0.00    +0.011 C 
ATOM     13  C   UNL     1       6.927  -6.062  -0.709  0.00  0.00    +0.035 C 
ATOM     14  N   UNL     1       4.436  -5.838  -3.245  0.00  0.00    -0.158 NA
ATOM     15  N   UNL     1       3.787  -4.976  -2.642  0.00  0.00    -0.176 NA
ENDBRANCH   2   8
BRANCH   1  17
ATOM     16  C   UNL     1       3.493  -2.130   0.159  0.00  0.00    +0.139 C 
ATOM     17  N   UNL     1       2.389  -2.784  -0.038  0.00  0.00    -0.184 NA
BRANCH  16  22
ATOM     18  C   UNL     1       4.658   1.430   0.383  0.00  0.00    +0.001 A 
ATOM     19  C   UNL     1       3.472   2.114   0.178  0.00  0.00    +0.001 A 
ATOM     20  C   UNL     1       2.294   1.420  -0.034  0.00  0.00    +0.013 A 
ATOM     21  C   UNL     1       2.293   0.041  -0.041  0.00  0.00    +0.063 A 
ATOM     22  C   UNL     1       3.486  -0.656   0.165  0.00  0.00    +0.006 A 
ATOM     23  C   UNL     1       4.672   0.051   0.378  0.00  0.00    +0.010 A 
BRANCH  21  24
ATOM     24  C   UNL     1       1.008  -0.713  -0.270  0.00  0.00    +0.418 C 
ATOM     25  F   UNL     1      -0.040   0.197  -0.450  0.00  0.00    -0.166 F 
ATOM     26  F   UNL     1       1.133  -1.511  -1.412  0.00  0.00    -0.166 F 
ATOM     27  F   UNL     1       0.738  -1.523   0.838  0.00  0.00    -0.166 F 
ENDBRANCH  21  24
ENDBRANCH  16  22
ENDBRANCH   1  17
TORSDOF 4
