REMARK  Name = ZINC28827330
REMARK  3 active torsions:
REMARK  status: ('A' for Active; 'I' for Inactive)
REMARK    1  A    between atoms: C_5  and  C_7
REMARK    2  A    between atoms: C_11  and  N_17
REMARK    3  A    between atoms: C_23  and  N_26
REMARK                            x       y       z     vdW  Elec       q    Type
REMARK                         _______ _______ _______ _____ _____    ______ ____
ROOT
ATOM      1  N   UNL     1       3.078   2.904  -1.575  0.00  0.00    -0.288 N 
ATOM      2  C   UNL     1       3.484   3.159  -2.834  0.00  0.00    +0.303 C 
ATOM      3  O   UNL     1       3.085   2.470  -3.753  0.00  0.00    -0.253 OA
ATOM      4  N   UNL     1       4.332   4.178  -3.076  0.00  0.00    -0.285 N 
ATOM      5  C   UNL     1       4.699   4.537  -4.452  0.00  0.00    +0.111 C 
ATOM      6  C   UNL     1       6.222   4.552  -4.574  0.00  0.00    +0.044 C 
ATOM      7  C   UNL     1       6.808   5.478  -3.505  0.00  0.00    +0.095 C 
ATOM      8  C   UNL     1       6.437   4.955  -2.116  0.00  0.00    +0.044 C 
ATOM      9  C   UNL     1       4.913   4.948  -1.967  0.00  0.00    +0.111 C 
ATOM     10  H   UNL     1       3.502   3.474  -0.735  0.00  0.00    +0.151 HD
ENDROOT
BRANCH   7  11
ATOM     11  N   UNL     1       8.266   5.517  -3.639  0.00  0.00    -0.288 N 
ATOM     12  C   UNL     1       9.032   6.650  -3.893  0.00  0.00    +0.089 A 
ATOM     13  C   UNL     1       8.727   7.990  -4.087  0.00  0.00    +0.031 A 
ATOM     14  C   UNL     1       9.770   8.873  -4.323  0.00  0.00    +0.022 A 
ATOM     15  C   UNL     1      11.067   8.395  -4.358  0.00  0.00    +0.113 A 
ATOM     16  N   UNL     1      11.329   7.117  -4.170  0.00  0.00    -0.236 NA
ATOM     17  C   UNL     1      10.367   6.238  -3.942  0.00  0.00    +0.159 A 
ATOM     18  N   UNL     1      10.368   4.867  -3.716  0.00  0.00    -0.291 N 
ATOM     19  H   UNL     1      11.317   4.311  -3.712  0.00  0.00    +0.172 HD
ATOM     20  C   UNL     1       9.097   4.463  -3.533  0.00  0.00    +0.329 A 
ATOM     21  O   UNL     1       8.752   3.318  -3.308  0.00  0.00    -0.246 OA
ENDBRANCH   7  11
BRANCH   1  25
ATOM     22  C   UNL     1      -0.003  -0.000  -0.000  0.00  0.00    +0.039 C 
ATOM     23  C   UNL     1      -0.025   1.517   0.004  0.00  0.00    +0.012 C 
ATOM     24  C   UNL     1       1.354   2.150  -0.003  0.00  0.00    +0.032 C 
ATOM     25  C   UNL     1       2.073   1.868  -1.325  0.00  0.00    +0.160 C 
ATOM     26  C   UNL     1       2.750   0.517  -1.224  0.00  0.00    +0.233 C 
ATOM     27  O   UNL     1       3.958   0.451  -1.145  0.00  0.00    -0.274 OA
ATOM     28  N   UNL     1       2.022  -0.600  -1.221  0.00  0.00    -0.313 N 
ATOM     29  C   UNL     1       0.554  -0.534  -1.321  0.00  0.00    +0.112 C 
ATOM     30  H   UNL     1       2.524  -1.576  -1.142  0.00  0.00    +0.149 HD
BRANCH  22  35
ATOM     31  C   UNL     1      -3.679  -0.665  -0.548  0.00  0.00    +0.000 A 
ATOM     32  C   UNL     1      -3.981  -1.466   0.537  0.00  0.00    +0.003 A 
ATOM     33  C   UNL     1      -2.997  -1.794   1.450  0.00  0.00    +0.038 A 
ATOM     34  C   UNL     1      -1.706  -1.323   1.274  0.00  0.00    +0.127 A 
ATOM     35  C   UNL     1      -1.406  -0.517   0.190  0.00  0.00    -0.008 A 
ATOM     36  C   UNL     1      -2.393  -0.191  -0.722  0.00  0.00    +0.007 A 
ATOM     37  F   UNL     1      -0.742  -1.647   2.163  0.00  0.00    -0.205 F 
ENDBRANCH  22  35
ENDBRANCH   1  25
TORSDOF 3
