REMARK  Name = ZINC17192079
REMARK  19 active torsions:
REMARK  status: ('A' for Active; 'I' for Inactive)
REMARK    1  A    between atoms: C_1  and  C_2
REMARK    2  A    between atoms: C_4  and  C_46
REMARK    3  A    between atoms: C_7  and  C_11
REMARK    4  A    between atoms: C_7  and  O_44
REMARK    5  A    between atoms: C_11  and  C_13
REMARK    6  A    between atoms: C_11  and  O_43
REMARK    7  A    between atoms: N_15  and  C_16
REMARK    8  A    between atoms: C_22  and  O_38
REMARK    9  A    between atoms: C_24  and  C_36
REMARK   10  A    between atoms: C_24  and  C_37
REMARK   11  A    between atoms: C_25  and  C_28
REMARK   12  A    between atoms: C_28  and  C_29
REMARK   13  A    between atoms: C_29  and  C_31
REMARK   14  A    between atoms: C_29  and  O_34
REMARK   15  A    between atoms: C_31  and  O_32
REMARK   16  A    between atoms: O_32  and  C_33
REMARK   17  A    between atoms: O_34  and  C_35
REMARK   18  A    between atoms: O_38  and  C_39
REMARK   19  A    between atoms: O_44  and  C_45
REMARK                            x       y       z     vdW  Elec       q    Type
REMARK                         _______ _______ _______ _____ _____    ______ ____
ROOT
ATOM      1  C   UNL     1       2.246   0.170   3.931  0.00  0.00    +0.240 C 
ATOM      2  C   UNL     1       3.198  -0.960   3.519  0.00  0.00    +0.197 C 
ATOM      3  C   UNL     1       2.363  -2.152   3.041  0.00  0.00    +0.183 C 
ATOM      4  C   UNL     1       3.284  -3.342   2.757  0.00  0.00    +0.157 C 
ATOM      5  C   UNL     1       4.130  -3.654   3.995  0.00  0.00    +0.020 C 
ATOM      6  C   UNL     1       4.910  -2.398   4.396  0.00  0.00    +0.130 C 
ATOM      7  O   UNL     1       3.991  -1.333   4.647  0.00  0.00    -0.366 OA
ATOM      8  C   UNL     1       5.111  -4.783   3.673  0.00  0.00    +0.016 C 
ATOM      9  C   UNL     1       3.219  -4.080   5.147  0.00  0.00    +0.016 C 
ATOM     10  O   UNL     1       1.435  -2.513   4.068  0.00  0.00    -0.345 OA
ATOM     11  C   UNL     1       0.557  -1.450   4.448  0.00  0.00    +0.326 C 
ATOM     12  O   UNL     1       1.326  -0.334   4.903  0.00  0.00    -0.330 OA
ENDROOT
BRANCH   1  15
ATOM     13  C   UNL     1       1.300   1.964   2.580  0.00  0.00    +0.249 C 
ATOM     14  O   UNL     1       1.805   2.765   3.338  0.00  0.00    -0.273 OA
ATOM     15  N   UNL     1       1.509   0.644   2.757  0.00  0.00    -0.286 N 
ATOM     16  H   UNL     1       1.172   0.009   2.107  0.00  0.00    +0.151 HD
BRANCH  13  17
ATOM     17  C   UNL     1       0.439   2.445   1.441  0.00  0.00    +0.260 C 
BRANCH  17  22
ATOM     18  C   UNL     1       4.046  -0.067  -0.375  0.00  0.00    +0.015 C 
ATOM     19  C   UNL     1       3.119   0.583  -1.405  0.00  0.00    +0.040 C 
ATOM     20  C   UNL     1       1.681   0.100  -1.183  0.00  0.00    +0.125 C 
ATOM     21  O   UNL     1       1.198   0.610   0.062  0.00  0.00    -0.342 OA
ATOM     22  C   UNL     1       1.075   2.033   0.111  0.00  0.00    +0.209 C 
ATOM     23  C   UNL     1       2.466   2.666  -0.009  0.00  0.00    +0.098 C 
ATOM     24  C   UNL     1       3.142   2.088  -1.235  0.00  0.00    -0.066 C 
ATOM     25  C   UNL     1       3.725   2.862  -2.118  0.00  0.00    +0.008 C 
ATOM     26  C   UNL     1       1.653  -1.429  -1.153  0.00  0.00    +0.038 C 
BRANCH  22  27
ATOM     27  O   UNL     1       0.253   2.478  -0.969  0.00  0.00    -0.349 OA
ATOM     28  C   UNL     1      -1.044   1.879  -0.999  0.00  0.00    +0.197 C 
ENDBRANCH  22  27
ENDBRANCH  17  22
BRANCH  17  29
ATOM     29  O   UNL     1       0.328   3.868   1.495  0.00  0.00    -0.378 OA
ATOM     30  H   UNL     1       1.174   4.332   1.428  0.00  0.00    +0.211 HD
ENDBRANCH  17  29
ENDBRANCH  13  17
ENDBRANCH   1  15
BRANCH   4  31
ATOM     31  O   UNL     1       4.142  -3.010   1.664  0.00  0.00    -0.376 OA
ATOM     32  C   UNL     1       3.821  -3.687   0.447  0.00  0.00    +0.194 C 
ENDBRANCH   4  31
BRANCH   6  33
ATOM     33  C   UNL     1       5.855  -1.999   3.261  0.00  0.00    +0.066 C 
BRANCH  33  34
ATOM     34  C   UNL     1       6.722  -0.822   3.709  0.00  0.00    +0.146 C 
BRANCH  34  35
ATOM     35  O   UNL     1       5.895   0.322   3.931  0.00  0.00    -0.377 OA
ATOM     36  C   UNL     1       6.390   1.212   4.934  0.00  0.00    +0.194 C 
ENDBRANCH  34  35
BRANCH  34  37
ATOM     37  C   UNL     1       7.752  -0.504   2.623  0.00  0.00    +0.191 C 
BRANCH  37  38
ATOM     38  O   UNL     1       8.636   0.518   3.089  0.00  0.00    -0.380 OA
ATOM     39  C   UNL     1       9.641   0.891   2.144  0.00  0.00    +0.194 C 
ENDBRANCH  37  38
ENDBRANCH  34  37
ENDBRANCH  33  34
ENDBRANCH   6  33
TORSDOF 11
