REMARK  Name = ZINC47510204
REMARK  5 active torsions:
REMARK  status: ('A' for Active; 'I' for Inactive)
REMARK    1  A    between atoms: C_1  and  N_2
REMARK    2  A    between atoms: C_6  and  N_9
REMARK    3  A    between atoms: N_9  and  C_10
REMARK    4  A    between atoms: C_10  and  C_11
REMARK    5  A    between atoms: C_14  and  C_16
REMARK                            x       y       z     vdW  Elec       q    Type
REMARK                         _______ _______ _______ _____ _____    ______ ____
ROOT
ATOM      1  C   UNL     1       1.214  -6.300  -0.039  0.00  0.00    +0.123 A 
ATOM      2  C   UNL     1       1.100  -7.072  -1.139  0.00  0.00    +0.047 A 
ATOM      3  C   UNL     1       0.907  -8.394  -0.698  0.00  0.00    +0.052 A 
ATOM      4  C   UNL     1       0.914  -8.357   0.665  0.00  0.00    +0.160 A 
ATOM      5  O   UNL     1       1.107  -7.079   1.048  0.00  0.00    -0.456 OA
ENDROOT
BRANCH   4   6
ATOM      6  C   UNL     1       0.747  -9.511   1.560  0.00  0.00    +0.144 A 
ATOM      7  N   UNL     1       0.566 -10.780   1.250  0.00  0.00    -0.236 NA
ATOM      8  C   UNL     1       0.426 -11.739   2.185  0.00  0.00    +0.079 A 
ATOM      9  C   UNL     1       0.228 -13.127   1.990  0.00  0.00    +0.029 A 
ATOM     10  C   UNL     1       0.104 -13.969   3.050  0.00  0.00    +0.002 A 
ATOM     11  C   UNL     1       0.166 -13.509   4.358  0.00  0.00    +0.001 A 
ATOM     12  C   UNL     1       0.358 -12.160   4.593  0.00  0.00    +0.017 A 
ATOM     13  C   UNL     1       0.485 -11.301   3.529  0.00  0.00    +0.040 A 
ATOM     14  S   UNL     1       0.743  -9.552   3.347  0.00  0.00    -0.064 S 
ENDBRANCH   4   6
BRANCH   1  15
ATOM     15  C   UNL     1       1.433  -4.809  -0.032  0.00  0.00    +0.176 C 
BRANCH  15  16
ATOM     16  N   UNL     1       0.137  -4.126  -0.022  0.00  0.00    -0.334 N 
ATOM     17  H   UNL     1      -0.684  -4.643  -0.021  0.00  0.00    +0.147 HD
BRANCH  16  23
ATOM     18  C   UNL     1      -0.018   1.461   0.010  0.00  0.00    +0.176 C 
ATOM     19  N   UNL     1       0.002  -0.004   0.002  0.00  0.00    -0.231 N 
ATOM     20  C   UNL     1      -1.159  -0.688   0.004  0.00  0.00    +0.287 A 
ATOM     21  O   UNL     1      -2.224  -0.090   0.012  0.00  0.00    -0.265 OA
ATOM     22  C   UNL     1      -1.137  -2.090  -0.004  0.00  0.00    +0.129 A 
ATOM     23  C   UNL     1       0.083  -2.742  -0.014  0.00  0.00    +0.071 A 
ATOM     24  C   UNL     1       1.274  -1.984  -0.016  0.00  0.00    +0.157 A 
ATOM     25  N   UNL     1       1.226  -0.681  -0.013  0.00  0.00    -0.175 NA
ATOM     26 CL   UNL     1      -2.618  -2.995  -0.002  0.00  0.00    -0.076 Cl
ENDBRANCH  16  23
ENDBRANCH  15  16
ENDBRANCH   1  15
TORSDOF 4
