REMARK  Name = ZINC36046365
REMARK  6 active torsions:
REMARK  status: ('A' for Active; 'I' for Inactive)
REMARK    1  A    between atoms: C_1  and  C_2
REMARK    2  A    between atoms: C_10  and  C_22
REMARK    3  A    between atoms: C_12  and  C_20
REMARK    4  A    between atoms: C_13  and  N_19
REMARK    5  A    between atoms: C_14  and  C_15
REMARK    6  A    between atoms: C_14  and  C_17
REMARK                            x       y       z     vdW  Elec       q    Type
REMARK                         _______ _______ _______ _____ _____    ______ ____
ROOT
ATOM      1  C   UNL     1      -0.019   1.526   0.010  0.00  0.00    +0.008 C 
ATOM      2  C   UNL     1       0.002  -0.004   0.002  0.00  0.00    -0.010 C 
ATOM      3  C   UNL     1       0.732  -0.505  -1.251  0.00  0.00    +0.030 C 
ATOM      4  C   UNL     1       0.759  -2.008  -1.205  0.00  0.00    -0.024 C 
ATOM      5  C   UNL     1       0.764  -2.670  -0.086  0.00  0.00    -0.030 C 
ATOM      6  C   UNL     1       0.772  -2.035   1.277  0.00  0.00    +0.030 C 
ATOM      7  C   UNL     1       0.752  -0.516   1.229  0.00  0.00    +0.012 C 
ATOM      8  C   UNL     1       2.031  -2.496   2.020  0.00  0.00    +0.070 C 
ATOM      9  C   UNL     1       2.236  -3.970   1.864  0.00  0.00    +0.057 C 
ATOM     10  C   UNL     1       1.696  -4.720   0.906  0.00  0.00    +0.054 C 
ATOM     11  C   UNL     1       0.761  -4.187  -0.141  0.00  0.00    +0.202 C 
ENDROOT
BRANCH   8  12
ATOM     12  C   UNL     1       3.228  -1.769   1.464  0.00  0.00    -0.020 A 
ATOM     13  C   UNL     1       3.554  -1.895   0.127  0.00  0.00    +0.006 A 
ATOM     14  C   UNL     1       4.652  -1.229  -0.384  0.00  0.00    +0.000 A 
ATOM     15  C   UNL     1       5.425  -0.435   0.443  0.00  0.00    +0.001 A 
ATOM     16  C   UNL     1       5.101  -0.308   1.781  0.00  0.00    +0.020 A 
ATOM     17  C   UNL     1       3.998  -0.971   2.291  0.00  0.00    +0.045 A 
ATOM     18 CL   UNL     1       3.586  -0.806   3.969  0.00  0.00    -0.083 Cl
ENDBRANCH   8  12
BRANCH  10  19
ATOM     19  N   UNL     1       2.013  -6.053   0.872  0.00  0.00    -0.358 N 
ATOM     20  H   UNL     1       2.615  -6.425   1.535  0.00  0.00    +0.142 HD
ATOM     21  H   UNL     1       1.634  -6.624   0.185  0.00  0.00    +0.142 HD
ENDBRANCH  10  19
BRANCH  11  22
ATOM     22  C   UNL     1      -0.601  -4.686   0.116  0.00  0.00    +0.095 C 
ATOM     23  N   UNL     1      -1.651  -5.070   0.314  0.00  0.00    -0.194 NA
ENDBRANCH  11  22
BRANCH  11  24
ATOM     24  C   UNL     1       1.206  -4.632  -1.472  0.00  0.00    +0.095 C 
ATOM     25  N   UNL     1       1.550  -4.976  -2.499  0.00  0.00    -0.194 NA
ENDBRANCH  11  24
BRANCH   9  26
ATOM     26  C   UNL     1       3.079  -4.625   2.819  0.00  0.00    +0.097 C 
ATOM     27  N   UNL     1       3.747  -5.145   3.576  0.00  0.00    -0.191 NA
ENDBRANCH   9  26
TORSDOF 5
