REMARK  Name = ZINC40688653
REMARK  12 active torsions:
REMARK  status: ('A' for Active; 'I' for Inactive)
REMARK    1  A    between atoms: C_1  and  C_2
REMARK    2  A    between atoms: C_2  and  C_3
REMARK    3  A    between atoms: C_3  and  C_4
REMARK    4  A    between atoms: C_4  and  N_5
REMARK    5  A    between atoms: N_5  and  C_6
REMARK    6  A    between atoms: C_8  and  N_33
REMARK    7  A    between atoms: C_9  and  N_13
REMARK    8  A    between atoms: N_13  and  C_14
REMARK    9  A    between atoms: C_17  and  C_21
REMARK   10  A    between atoms: C_19  and  C_20
REMARK   11  A    between atoms: C_21  and  C_23
REMARK   12  A    between atoms: C_21  and  C_25
REMARK                            x       y       z     vdW  Elec       q    Type
REMARK                         _______ _______ _______ _____ _____    ______ ____
ROOT
ATOM      1  C   UNL     1      -0.348  -4.821  -7.619  0.00  0.00    +0.037 A 
ATOM      2  C   UNL     1      -1.722  -4.981  -7.747  0.00  0.00    +0.043 A 
ATOM      3  C   UNL     1      -2.283  -5.145  -8.999  0.00  0.00    +0.047 A 
ATOM      4  C   UNL     1      -1.476  -5.150 -10.124  0.00  0.00    -0.008 A 
ATOM      5  C   UNL     1      -0.109  -4.992  -9.999  0.00  0.00    +0.011 A 
ATOM      6  C   UNL     1       0.457  -4.822  -8.751  0.00  0.00    -0.029 A 
ATOM      7  C   UNL     1       1.948  -4.643  -8.616  0.00  0.00    +0.045 C 
ATOM      8 CL   UNL     1      -3.999  -5.344  -9.161  0.00  0.00    -0.083 Cl
ENDROOT
BRANCH   1   9
ATOM      9  N   UNL     1       0.223  -4.655  -6.354  0.00  0.00    -0.298 N 
ATOM     10  H   UNL     1       1.169  -4.824  -6.223  0.00  0.00    +0.154 HD
BRANCH   9  15
ATOM     11  N   UNL     1      -0.398  -3.717  -1.649  0.00  0.00    -0.317 N 
ATOM     12  C   UNL     1       0.122  -2.454  -1.121  0.00  0.00    +0.130 C 
ATOM     13  C   UNL     1      -0.873  -3.782  -2.954  0.00  0.00    +0.147 A 
ATOM     14  C   UNL     1      -0.038  -4.200  -3.992  0.00  0.00    +0.106 A 
ATOM     15  C   UNL     1      -0.566  -4.247  -5.284  0.00  0.00    +0.149 A 
ATOM     16  N   UNL     1      -1.835  -3.896  -5.475  0.00  0.00    -0.219 NA
ATOM     17  C   UNL     1      -2.589  -3.508  -4.467  0.00  0.00    +0.225 A 
ATOM     18  N   UNL     1      -2.132  -3.453  -3.232  0.00  0.00    -0.219 NA
BRANCH  14  19
ATOM     19  N   UNL     1       1.296  -4.561  -3.744  0.00  0.00    -0.353 N 
ATOM     20  H   UNL     1       1.628  -4.595  -2.833  0.00  0.00    +0.143 HD
ATOM     21  H   UNL     1       1.886  -4.776  -4.484  0.00  0.00    +0.143 HD
ENDBRANCH  14  19
BRANCH  11  22
ATOM     22  C   UNL     1      -0.418  -4.912  -0.802  0.00  0.00    +0.106 C 
BRANCH  22  23
ATOM     23  C   UNL     1      -1.746  -4.978  -0.044  0.00  0.00    +0.019 C 
BRANCH  23  25
ATOM     24  C   UNL     1      -3.094  -6.291   1.599  0.00  0.00    +0.004 C 
ATOM     25  C   UNL     1      -1.767  -6.226   0.841  0.00  0.00    -0.002 C 
ENDBRANCH  23  25
ENDBRANCH  22  23
ENDBRANCH  11  22
ENDBRANCH   9  15
ENDBRANCH   1   9
BRANCH   4  26
ATOM     26  C   UNL     1      -2.091  -5.330 -11.489  0.00  0.00    +0.153 C 
BRANCH  26  27
ATOM     27  C   UNL     1      -1.629  -6.637 -12.079  0.00  0.00    -0.026 A 
ATOM     28  C   UNL     1      -0.307  -6.800 -12.450  0.00  0.00    +0.006 A 
ATOM     29  C   UNL     1       0.117  -7.998 -12.992  0.00  0.00    +0.020 A 
ATOM     30  C   UNL     1      -0.782  -9.036 -13.163  0.00  0.00    +0.041 A 
ATOM     31  C   UNL     1      -2.105  -8.873 -12.791  0.00  0.00    +0.020 A 
ATOM     32  C   UNL     1      -2.526  -7.676 -12.245  0.00  0.00    +0.006 A 
ATOM     33 CL   UNL     1      -0.250 -10.542 -13.844  0.00  0.00    -0.084 Cl
ENDBRANCH  26  27
BRANCH  26  34
ATOM     34  C   UNL     1      -1.675  -4.222 -12.364  0.00  0.00    +0.075 C 
ATOM     35  N   UNL     1      -1.353  -3.367 -13.040  0.00  0.00    -0.196 NA
ENDBRANCH  26  34
ENDBRANCH   4  26
TORSDOF 9
