REMARK  Name = ZINC39534051
REMARK  10 active torsions:
REMARK  status: ('A' for Active; 'I' for Inactive)
REMARK    1  A    between atoms: C_1  and  C_2
REMARK    2  A    between atoms: C_2  and  O_3
REMARK    3  A    between atoms: O_3  and  N_4
REMARK    4  A    between atoms: N_4  and  C_5
REMARK    5  A    between atoms: C_5  and  C_6
REMARK    6  A    between atoms: C_6  and  C_8
REMARK    7  A    between atoms: C_6  and  N_21
REMARK    8  A    between atoms: C_11  and  C_14
REMARK    9  A    between atoms: C_19  and  O_20
REMARK   10  A    between atoms: C_25  and  O_28
REMARK                            x       y       z     vdW  Elec       q    Type
REMARK                         _______ _______ _______ _____ _____    ______ ____
ROOT
ATOM      1  C   UNL     1       1.555  -3.877   2.523  0.00  0.00    +0.103 C 
ENDROOT
BRANCH   1   2
ATOM      2  N   UNL     1       0.113  -3.903   2.801  0.00  0.00    -0.295 NA
ATOM      3  C   UNL     1      -0.640  -4.389   1.637  0.00  0.00    +0.066 C 
ATOM      4  C   UNL     1      -2.128  -4.457   1.987  0.00  0.00    -0.063 C 
ATOM      5  N   UNL     1      -2.602  -3.123   2.376  0.00  0.00    +0.398 N 
ATOM      6  C   UNL     1      -1.858  -2.661   3.555  0.00  0.00    +0.073 C 
ATOM      7  C   UNL     1      -0.368  -2.578   3.218  0.00  0.00    +0.096 C 
ATOM      8  H   UNL     1      -2.456  -2.478   1.613  0.00  0.00    -0.082 HD
ATOM      9  H   UNL     1      -3.586  -3.166   2.595  0.00  0.00    -0.082 HD
BRANCH   6  10
ATOM     10  O   UNL     1      -2.332  -1.370   3.942  0.00  0.00    -0.409 OA
ATOM     11  H   UNL     1      -3.271  -1.348   4.171  0.00  0.00    +0.207 HD
ENDBRANCH   6  10
ENDBRANCH   1   2
BRANCH   1  12
ATOM     12  C   UNL     1       2.318  -3.925   3.821  0.00  0.00    -0.029 A 
ATOM     13  C   UNL     1       1.652  -3.745   5.020  0.00  0.00    +0.006 A 
ATOM     14  C   UNL     1       2.346  -3.788   6.212  0.00  0.00    +0.009 A 
ATOM     15  C   UNL     1       3.721  -4.015   6.206  0.00  0.00    -0.014 A 
ATOM     16  C   UNL     1       4.387  -4.197   4.995  0.00  0.00    +0.009 A 
ATOM     17  C   UNL     1       3.682  -4.157   3.810  0.00  0.00    +0.006 A 
BRANCH  15  18
ATOM     18  C   UNL     1       4.473  -4.063   7.484  0.00  0.00    +0.024 A 
ATOM     19  C   UNL     1       4.317  -3.047   8.425  0.00  0.00    +0.012 A 
ATOM     20  C   UNL     1       5.019  -3.096   9.613  0.00  0.00    +0.001 A 
ATOM     21  C   UNL     1       5.877  -4.150   9.872  0.00  0.00    +0.004 A 
ATOM     22  C   UNL     1       6.039  -5.162   8.945  0.00  0.00    +0.046 A 
ATOM     23  C   UNL     1       5.336  -5.129   7.752  0.00  0.00    +0.125 A 
BRANCH  23  24
ATOM     24  O   UNL     1       5.490  -6.126   6.842  0.00  0.00    -0.506 OA
ATOM     25  H   UNL     1       6.200  -5.971   6.204  0.00  0.00    +0.292 HD
ENDBRANCH  23  24
ENDBRANCH  15  18
ENDBRANCH   1  12
BRANCH   1  26
ATOM     26  C   UNL     1       1.906  -2.590   1.773  0.00  0.00    +0.134 C 
BRANCH  26  27
ATOM     27  N   UNL     1       1.124  -2.518   0.531  0.00  0.00    -0.199 NA
ATOM     28  H   UNL     1       1.273  -3.337  -0.038  0.00  0.00    +0.154 HD
BRANCH  27  29
ATOM     29  O   UNL     1       1.434  -1.297  -0.214  0.00  0.00    -0.300 OA
BRANCH  29  31
ATOM     30  C   UNL     1       1.109   0.143  -2.127  0.00  0.00    +0.036 C 
ATOM     31  C   UNL     1       0.707  -1.162  -1.436  0.00  0.00    +0.182 C 
ENDBRANCH  29  31
ENDBRANCH  27  29
ENDBRANCH  26  27
ENDBRANCH   1  26
TORSDOF 9
