REMARK  Name = ZINC13251970
REMARK  6 active torsions:
REMARK  status: ('A' for Active; 'I' for Inactive)
REMARK    1  A    between atoms: C_9  and  C_11
REMARK    2  A    between atoms: N_14  and  S_17
REMARK    3  A    between atoms: S_17  and  C_20
REMARK    4  A    between atoms: C_23  and  C_26
REMARK    5  A    between atoms: C_26  and  C_27
REMARK    6  A    between atoms: C_27  and  C_28
REMARK                            x       y       z     vdW  Elec       q    Type
REMARK                         _______ _______ _______ _____ _____    ______ ____
ROOT
ATOM      1  C   UNL     1       1.185   4.066   4.412  0.00  0.00    +0.057 C 
ATOM      2  C   UNL     1       2.432   3.735   3.589  0.00  0.00    +0.028 C 
ATOM      3  C   UNL     1       2.423   4.564   2.300  0.00  0.00    +0.110 C 
ATOM      4  N   UNL     1       1.155   4.329   1.596  0.00  0.00    -0.177 NA
ATOM      5  C   UNL     1      -0.105   4.535   2.322  0.00  0.00    +0.110 C 
ATOM      6  C   UNL     1      -0.068   3.702   3.612  0.00  0.00    +0.028 C 
ENDROOT
BRANCH   1  15
ATOM      7  C   UNL     1       1.014   0.451   9.228  0.00  0.00    +0.002 A 
ATOM      8  C   UNL     1       1.590   1.551   9.847  0.00  0.00    +0.002 A 
ATOM      9  C   UNL     1       1.849   2.692   9.140  0.00  0.00    +0.030 A 
ATOM     10  C   UNL     1       1.531   2.755   7.781  0.00  0.00    +0.089 A 
ATOM     11  C   UNL     1       0.948   1.641   7.154  0.00  0.00    +0.066 A 
ATOM     12  C   UNL     1       0.692   0.491   7.889  0.00  0.00    +0.028 A 
ATOM     13  N   UNL     1       0.750   2.005   5.837  0.00  0.00    -0.342 N 
ATOM     14  H   UNL     1       0.346   1.438   5.120  0.00  0.00    +0.167 HD
ATOM     15  C   UNL     1       1.207   3.278   5.696  0.00  0.00    +0.111 A 
ATOM     16  N   UNL     1       1.662   3.719   6.833  0.00  0.00    -0.232 NA
ENDBRANCH   1  15
BRANCH   4  17
ATOM     17  S   UNL     1       1.147   3.847   0.011  0.00  0.00    +0.061 S 
ATOM     18  O   UNL     1       2.382   4.273  -0.549  0.00  0.00    -0.153 OA
ATOM     19  O   UNL     1      -0.109   4.239  -0.526  0.00  0.00    -0.153 OA
BRANCH  17  20
ATOM     20  C   UNL     1       1.171   2.086   0.002  0.00  0.00    +0.105 A 
ATOM     21  C   UNL     1      -0.017   1.378   0.010  0.00  0.00    +0.029 A 
ATOM     22  C   UNL     1       0.002  -0.004   0.002  0.00  0.00    +0.005 A 
ATOM     23  C   UNL     1       1.208  -0.679  -0.013  0.00  0.00    -0.047 A 
ATOM     24  C   UNL     1       2.396   0.029  -0.021  0.00  0.00    +0.005 A 
ATOM     25  C   UNL     1       2.377   1.411  -0.015  0.00  0.00    +0.029 A 
BRANCH  23  26
ATOM     26  C   UNL     1       1.229  -2.186  -0.021  0.00  0.00    +0.046 C 
BRANCH  26  27
ATOM     27  C   UNL     1       1.221  -2.689  -1.465  0.00  0.00    +0.130 C 
BRANCH  27  28
ATOM     28  C   UNL     1       1.242  -4.196  -1.473  0.00  0.00    +0.356 C 
ATOM     29  O   UNL     1       1.260  -4.805  -0.429  0.00  0.00    -0.246 OA
ATOM     30  O   UNL     1       1.239  -4.861  -2.638  0.00  0.00    -0.246 OA
ENDBRANCH  27  28
ENDBRANCH  26  27
ENDBRANCH  23  26
ENDBRANCH  17  20
ENDBRANCH   4  17
TORSDOF 6
