REMARK  Name = ZINC15453311
REMARK  7 active torsions:
REMARK  status: ('A' for Active; 'I' for Inactive)
REMARK    1  A    between atoms: C_1  and  C_2
REMARK    2  A    between atoms: C_5  and  C_28
REMARK    3  A    between atoms: C_6  and  N_8
REMARK    4  A    between atoms: C_10  and  C_15
REMARK    5  A    between atoms: N_17  and  C_18
REMARK    6  A    between atoms: C_21  and  N_25
REMARK    7  A    between atoms: C_23  and  C_24
REMARK                            x       y       z     vdW  Elec       q    Type
REMARK                         _______ _______ _______ _____ _____    ______ ____
ROOT
ATOM      1  N   UNL     1      -4.118   2.444   2.379  0.00  0.00    -0.270 N 
ATOM      2  C   UNL     1      -4.749   3.719   2.017  0.00  0.00    +0.127 C 
ATOM      3  C   UNL     1      -6.223   3.373   1.705  0.00  0.00    +0.102 C 
ATOM      4  C   UNL     1      -6.429   2.092   2.546  0.00  0.00    +0.110 C 
ATOM      5  C   UNL     1      -5.038   1.515   2.690  0.00  0.00    +0.221 C 
ATOM      6  O   UNL     1      -4.788   0.379   3.035  0.00  0.00    -0.275 OA
ENDROOT
BRANCH   1  12
ATOM      7  C   UNL     1      -0.011   1.058   0.058  0.00  0.00    +0.044 C 
ATOM      8  C   UNL     1      -0.720   1.554   1.292  0.00  0.00    -0.049 A 
ATOM      9  C   UNL     1      -0.003   1.795   2.450  0.00  0.00    +0.004 A 
ATOM     10  C   UNL     1      -0.649   2.251   3.584  0.00  0.00    +0.005 A 
ATOM     11  C   UNL     1      -2.013   2.467   3.564  0.00  0.00    -0.029 A 
ATOM     12  C   UNL     1      -2.736   2.226   2.403  0.00  0.00    +0.039 A 
ATOM     13  C   UNL     1      -2.083   1.773   1.264  0.00  0.00    +0.027 A 
ATOM     14  C   UNL     1      -2.717   2.963   4.801  0.00  0.00    +0.045 C 
ENDBRANCH   1  12
BRANCH   3  15
ATOM     15  C   UNL     1      -7.141   4.475   2.168  0.00  0.00    +0.222 C 
ATOM     16  O   UNL     1      -6.678   5.510   2.597  0.00  0.00    -0.275 OA
ATOM     17  N   UNL     1      -8.478   4.310   2.104  0.00  0.00    -0.285 N 
ATOM     18  H   UNL     1      -8.849   3.516   1.688  0.00  0.00    +0.155 HD
BRANCH  17  19
ATOM     19  C   UNL     1      -9.329   5.283   2.639  0.00  0.00    +0.036 A 
ATOM     20  C   UNL     1      -8.879   6.121   3.651  0.00  0.00    +0.026 A 
ATOM     21  C   UNL     1      -9.719   7.085   4.173  0.00  0.00    +0.034 A 
ATOM     22  C   UNL     1     -11.012   7.207   3.697  0.00  0.00    +0.127 A 
ATOM     23  C   UNL     1     -11.465   6.370   2.694  0.00  0.00    +0.038 A 
ATOM     24  C   UNL     1     -10.627   5.408   2.164  0.00  0.00    -0.027 A 
ATOM     25  C   UNL     1     -11.122   4.496   1.071  0.00  0.00    +0.046 C 
BRANCH  22  26
ATOM     26  N   UNL     1     -11.913   8.236   4.263  0.00  0.00    +0.056 N 
ATOM     27  O   UNL     1     -13.052   8.346   3.845  0.00  0.00    -0.126 OA
ATOM     28  O   UNL     1     -11.515   8.974   5.147  0.00  0.00    -0.126 OA
ENDBRANCH  22  26
ENDBRANCH  17  19
ENDBRANCH   3  15
TORSDOF 4
