REMARK  Name = ZINC48310280
REMARK  5 active torsions:
REMARK  status: ('A' for Active; 'I' for Inactive)
REMARK    1  A    between atoms: C_3  and  O_28
REMARK    2  A    between atoms: C_4  and  N_8
REMARK    3  A    between atoms: C_9  and  C_11
REMARK    4  A    between atoms: N_14  and  C_17
REMARK    5  A    between atoms: C_17  and  C_18
REMARK                            x       y       z     vdW  Elec       q    Type
REMARK                         _______ _______ _______ _____ _____    ______ ____
ROOT
ATOM      1  C   UNL     1       4.960  -2.732   0.153  0.00  0.00    +0.078 C 
ATOM      2  C   UNL     1       5.711  -2.269   1.404  0.00  0.00    +0.028 C 
ATOM      3  C   UNL     1       7.018  -3.055   1.529  0.00  0.00    +0.085 C 
ATOM      4  N   UNL     1       6.720  -4.490   1.618  0.00  0.00    -0.297 NA
ATOM      5  C   UNL     1       6.041  -4.968   0.407  0.00  0.00    +0.085 C 
ATOM      6  C   UNL     1       4.705  -4.239   0.249  0.00  0.00    +0.028 C 
ENDROOT
BRANCH   1   8
ATOM      7  N   UNL     1       3.623  -0.659  -0.037  0.00  0.00    -0.282 N 
ATOM      8  C   UNL     1       3.644  -2.004   0.057  0.00  0.00    +0.220 C 
ATOM      9  O   UNL     1       2.603  -2.627   0.064  0.00  0.00    -0.275 OA
ATOM     10  H   UNL     1       4.455  -0.165  -0.109  0.00  0.00    +0.155 HD
BRANCH   7  14
ATOM     11  C   UNL     1      -0.018   1.377  -0.024  0.00  0.00    +0.023 A 
ATOM     12  C   UNL     1       1.091   1.949   0.572  0.00  0.00    +0.049 A 
ATOM     13  C   UNL     1       2.302   1.277   0.570  0.00  0.00    +0.138 A 
ATOM     14  C   UNL     1       2.400   0.024  -0.033  0.00  0.00    +0.077 A 
ATOM     15  C   UNL     1       1.284  -0.544  -0.628  0.00  0.00    +0.047 A 
ATOM     16  C   UNL     1       0.077   0.134  -0.623  0.00  0.00    +0.043 A 
ATOM     17 CL   UNL     1      -1.319  -0.578  -1.368  0.00  0.00    -0.083 Cl
BRANCH  13  18
ATOM     18  O   UNL     1       3.394   1.838   1.155  0.00  0.00    -0.505 OA
ATOM     19  H   UNL     1       3.498   1.616   2.090  0.00  0.00    +0.292 HD
ENDBRANCH  13  18
ENDBRANCH   7  14
ENDBRANCH   1   8
BRANCH   4  20
ATOM     20  C   UNL     1       7.940  -5.266   1.878  0.00  0.00    +0.137 C 
BRANCH  20  21
ATOM     21  C   UNL     1       7.570  -6.689   2.206  0.00  0.00    +0.037 A 
ATOM     22  C   UNL     1       7.948  -7.722   1.374  0.00  0.00    +0.093 A 
ATOM     23  C   UNL     1       7.597  -9.034   1.695  0.00  0.00    +0.259 A 
ATOM     24  O   UNL     1       7.929  -9.952   0.962  0.00  0.00    -0.267 OA
ATOM     25  N   UNL     1       6.881  -9.289   2.830  0.00  0.00    -0.264 N 
ATOM     26  C   UNL     1       6.463 -10.519   3.279  0.00  0.00    +0.104 A 
ATOM     27  C   UNL     1       5.766 -10.639   4.409  0.00  0.00    +0.067 A 
ATOM     28  S   UNL     1       5.646  -8.940   4.946  0.00  0.00    -0.059 S 
ATOM     29  C   UNL     1       6.548  -8.206   3.599  0.00  0.00    +0.158 A 
ATOM     30  N   UNL     1       6.878  -6.973   3.307  0.00  0.00    -0.338 N 
ATOM     31  H   UNL     1       6.611  -6.254   3.901  0.00  0.00    +0.168 HD
ENDBRANCH  20  21
ENDBRANCH   4  20
TORSDOF 5
