REMARK  Name = ZINC01758814
REMARK  11 active torsions:
REMARK  status: ('A' for Active; 'I' for Inactive)
REMARK    1  A    between atoms: C_1  and  O_2
REMARK    2  A    between atoms: O_2  and  C_3
REMARK    3  A    between atoms: C_3  and  C_5
REMARK    4  A    between atoms: C_5  and  C_7
REMARK    5  A    between atoms: C_5  and  N_14
REMARK    6  A    between atoms: C_7  and  C_8
REMARK    7  A    between atoms: C_15  and  C_17
REMARK    8  A    between atoms: C_17  and  O_18
REMARK    9  A    between atoms: O_18  and  C_19
REMARK   10  A    between atoms: C_21  and  O_40
REMARK   11  A    between atoms: C_27  and  C_30
REMARK                            x       y       z     vdW  Elec       q    Type
REMARK                         _______ _______ _______ _____ _____    ______ ____
ROOT
ATOM      1  C   UNL     1       5.622  -3.344  -4.431  0.00  0.00    +0.128 A 
ATOM      2  C   UNL     1       5.047  -3.670  -5.656  0.00  0.00    +0.092 A 
ATOM      3  C   UNL     1       5.849  -4.025  -6.725  0.00  0.00    +0.135 A 
ATOM      4  C   UNL     1       7.240  -4.049  -6.563  0.00  0.00    +0.106 A 
ATOM      5  C   UNL     1       7.820  -3.727  -5.323  0.00  0.00    +0.145 A 
ATOM      6  C   UNL     1       6.997  -3.366  -4.266  0.00  0.00    +0.092 A 
ATOM      7  O   UNL     1       9.158  -3.770  -5.167  0.00  0.00    -0.462 OA
ATOM      8  C   UNL     1       9.986  -3.811  -6.213  0.00  0.00    +0.208 A 
ATOM      9  C   UNL     1       9.569  -4.120  -7.468  0.00  0.00    +0.065 A 
ATOM     10  C   UNL     1       8.136  -4.405  -7.676  0.00  0.00    +0.204 A 
ATOM     11  O   UNL     1       7.720  -4.906  -8.707  0.00  0.00    -0.286 OA
ENDROOT
BRANCH   9  12
ATOM     12  C   UNL     1      10.528  -4.169  -8.599  0.00  0.00    -0.008 A 
ATOM     13  C   UNL     1      10.421  -3.254  -9.645  0.00  0.00    +0.012 A 
ATOM     14  C   UNL     1      11.313  -3.303 -10.697  0.00  0.00    +0.050 A 
ATOM     15  C   UNL     1      12.319  -4.259 -10.717  0.00  0.00    +0.162 A 
ATOM     16  C   UNL     1      12.432  -5.173  -9.674  0.00  0.00    +0.163 A 
ATOM     17  C   UNL     1      11.541  -5.125  -8.615  0.00  0.00    +0.058 A 
ATOM     18  O   UNL     1      13.417  -6.112  -9.675  0.00  0.00    -0.485 OA
ATOM     19  C   UNL     1      14.065  -6.365 -10.926  0.00  0.00    +0.270 C 
ATOM     20  C   UNL     1      14.405  -5.015 -11.572  0.00  0.00    +0.270 C 
ATOM     21  O   UNL     1      13.186  -4.291 -11.767  0.00  0.00    -0.485 OA
ENDBRANCH   9  12
BRANCH   3  22
ATOM     22  O   UNL     1       5.293  -4.346  -7.920  0.00  0.00    -0.506 OA
ATOM     23  H   UNL     1       5.176  -3.593  -8.515  0.00  0.00    +0.292 HD
ENDBRANCH   3  22
BRANCH   1  24
ATOM     24  O   UNL     1       4.826  -2.993  -3.389  0.00  0.00    -0.483 OA
BRANCH  24  25
ATOM     25  C   UNL     1       3.416  -2.989  -3.622  0.00  0.00    +0.324 C 
BRANCH  25  27
ATOM     26  N   UNL     1       1.354  -2.503  -2.345  0.00  0.00    -0.299 N 
ATOM     27  C   UNL     1       2.700  -2.578  -2.362  0.00  0.00    +0.251 C 
ATOM     28  O   UNL     1       3.334  -2.315  -1.362  0.00  0.00    -0.272 OA
ATOM     29  H   UNL     1       0.847  -2.713  -3.145  0.00  0.00    +0.150 HD
BRANCH  26  30
ATOM     30  C   UNL     1       0.657  -2.104  -1.120  0.00  0.00    +0.186 C 
BRANCH  30  31
ATOM     31  C   UNL     1       0.598  -0.600  -1.043  0.00  0.00    +0.328 C 
ATOM     32  O   UNL     1       1.088   0.070  -1.921  0.00  0.00    -0.249 OA
BRANCH  31  34
ATOM     33  C   UNL     1      -0.017   1.425   0.010  0.00  0.00    +0.280 C 
ATOM     34  O   UNL     1       0.002  -0.004   0.002  0.00  0.00    -0.467 OA
ENDBRANCH  31  34
ENDBRANCH  30  31
BRANCH  30  35
ATOM     35  C   UNL     1      -0.764  -2.670  -1.133  0.00  0.00    +0.069 C 
BRANCH  35  36
ATOM     36  C   UNL     1      -0.705  -4.175  -1.086  0.00  0.00    -0.045 A 
ATOM     37  C   UNL     1      -0.647  -4.901  -2.261  0.00  0.00    +0.004 A 
ATOM     38  C   UNL     1      -0.593  -6.282  -2.218  0.00  0.00    +0.000 A 
ATOM     39  C   UNL     1      -0.597  -6.936  -1.000  0.00  0.00    +0.000 A 
ATOM     40  C   UNL     1      -0.655  -6.210   0.175  0.00  0.00    +0.000 A 
ATOM     41  C   UNL     1      -0.704  -4.829   0.132  0.00  0.00    +0.004 A 
ENDBRANCH  35  36
ENDBRANCH  30  35
ENDBRANCH  26  30
ENDBRANCH  25  27
ENDBRANCH  24  25
ENDBRANCH   1  24
TORSDOF 10
