REMARK  Name = ZINC12433282
REMARK  12 active torsions:
REMARK  status: ('A' for Active; 'I' for Inactive)
REMARK    1  A    between atoms: C_10  and  C_11
REMARK    2  A    between atoms: C_10  and  N_61
REMARK    3  A    between atoms: C_11  and  C_13
REMARK    4  A    between atoms: C_11  and  O_30
REMARK    5  A    between atoms: C_13  and  O_14
REMARK    6  A    between atoms: O_14  and  C_15
REMARK    7  A    between atoms: C_19  and  C_21
REMARK    8  A    between atoms: C_21  and  N_63
REMARK    9  A    between atoms: C_22  and  C_23
REMARK   10  A    between atoms: C_22  and  N_63
REMARK   11  A    between atoms: C_23  and  C_24
REMARK   12  A    between atoms: C_24  and  N_25
REMARK                            x       y       z     vdW  Elec       q    Type
REMARK                         _______ _______ _______ _____ _____    ______ ____
ROOT
ATOM      1  C   UNL     1      -0.090   1.366  -0.699  0.00  0.00    +0.121 A 
ATOM      2  C   UNL     1      -0.051  -0.014  -0.562  0.00  0.00    +0.045 A 
ATOM      3  C   UNL     1       1.150  -0.685  -0.680  0.00  0.00    +0.004 A 
ATOM      4  C   UNL     1       2.313   0.017  -0.935  0.00  0.00    +0.002 A 
ATOM      5  C   UNL     1       2.277   1.392  -1.072  0.00  0.00    -0.061 A 
ATOM      6  C   UNL     1       1.078   2.068  -0.955  0.00  0.00    +0.047 A 
ENDROOT
BRANCH   1   7
ATOM      7  O   UNL     1      -1.272   2.028  -0.589  0.00  0.00    -0.489 OA
BRANCH   7   8
ATOM      8  C   UNL     1      -2.436   1.240  -0.331  0.00  0.00    +0.258 C 
BRANCH   8   9
ATOM      9  C   UNL     1      -3.660   2.152  -0.241  0.00  0.00    +0.135 C 
BRANCH   9  10
ATOM     10  O   UNL     1      -3.893   2.765  -1.510  0.00  0.00    -0.390 OA
ATOM     11  H   UNL     1      -4.058   2.137  -2.226  0.00  0.00    +0.210 HD
ENDBRANCH   9  10
BRANCH   9  12
ATOM     12  C   UNL     1      -4.884   1.325   0.158  0.00  0.00    -0.043 C 
BRANCH  12  22
ATOM     13  C   UNL     1     -10.706   3.937   0.936  0.00  0.00    +0.000 A 
ATOM     14  C   UNL     1     -10.854   2.667   0.412  0.00  0.00    +0.000 A 
ATOM     15  C   UNL     1      -9.744   1.872   0.210  0.00  0.00    +0.002 A 
ATOM     16  C   UNL     1      -8.478   2.342   0.529  0.00  0.00    -0.061 A 
ATOM     17  C   UNL     1      -8.330   3.610   1.049  0.00  0.00    -0.048 A 
ATOM     18  C   UNL     1      -9.447   4.407   1.253  0.00  0.00    +0.004 A 
ATOM     19  C   UNL     1      -6.975   4.166   1.405  0.00  0.00    +0.017 C 
ATOM     20  C   UNL     1      -5.955   3.031   1.506  0.00  0.00    -0.074 C 
ATOM     21  C   UNL     1      -7.297   1.437   0.294  0.00  0.00    -0.043 C 
ATOM     22  N   UNL     1      -6.053   2.225   0.271  0.00  0.00    +0.384 N 
ATOM     23  H   UNL     1      -6.070   2.854  -0.540  0.00  0.00    -0.081 HD
ENDBRANCH  12  22
ENDBRANCH   9  12
ENDBRANCH   8   9
ENDBRANCH   7   8
ENDBRANCH   1   7
BRANCH   5  24
ATOM     24  C   UNL     1       3.547   2.155  -1.350  0.00  0.00    -0.047 C 
BRANCH  24  25
ATOM     25  N   UNL     1       3.740   2.257  -2.809  0.00  0.00    +0.382 N 
ATOM     26  H   UNL     1       2.940   2.750  -3.223  0.00  0.00    -0.085 HD
ATOM     27  H   UNL     1       3.805   1.314  -3.209  0.00  0.00    -0.085 HD
BRANCH  25  28
ATOM     28  C   UNL     1       4.978   3.000  -3.111  0.00  0.00    -0.080 C 
BRANCH  28  29
ATOM     29  C   UNL     1       5.151   3.090  -4.629  0.00  0.00    +0.003 C 
BRANCH  29  30
ATOM     30  C   UNL     1       6.434   3.860  -4.951  0.00  0.00    +0.121 C 
BRANCH  30  31
ATOM     31  N   UNL     1       6.599   3.946  -6.404  0.00  0.00    -0.337 N 
ATOM     32  C   UNL     1       7.264   3.053  -7.200  0.00  0.00    +0.106 A 
ATOM     33  C   UNL     1       7.170   3.511  -8.463  0.00  0.00    +0.130 A 
ATOM     34  N   UNL     1       6.475   4.657  -8.438  0.00  0.00    -0.244 NA
ATOM     35  C   UNL     1       6.129   4.924  -7.208  0.00  0.00    +0.199 A 
ENDBRANCH  30  31
ENDBRANCH  29  30
ENDBRANCH  28  29
ENDBRANCH  25  28
ENDBRANCH  24  25
ENDBRANCH   5  24
TORSDOF 12
