REMARK  Name = ZINC04037438
REMARK  8 active torsions:
REMARK  status: ('A' for Active; 'I' for Inactive)
REMARK    1  A    between atoms: C_1  and  C_2
REMARK    2  A    between atoms: C_6  and  O_8
REMARK    3  A    between atoms: O_8  and  C_9
REMARK    4  A    between atoms: C_9  and  C_11
REMARK    5  A    between atoms: C_9  and  C_12
REMARK    6  A    between atoms: N_14  and  CA_15
REMARK    7  A    between atoms: CA_15  and  C_17
REMARK    8  A    between atoms: CA_15  and  C_23
REMARK                            x       y       z     vdW  Elec       q    Type
REMARK                         _______ _______ _______ _____ _____    ______ ____
ROOT
ATOM      1  O   UNL     1       0.051  -2.755   2.387  0.00  0.00    -0.479 OA
ENDROOT
BRANCH   1   7
ATOM      2  C   UNL     1       0.427   1.474  -0.011  0.00  0.00    +0.044 C 
ATOM      3  C   UNL     1       0.214  -0.017  -0.008  0.00  0.00    -0.043 A 
ATOM      4  C   UNL     1       0.006  -0.679  -1.202  0.00  0.00    +0.050 A 
ATOM      5  C   UNL     1      -0.190  -2.053  -1.211  0.00  0.00    +0.143 A 
ATOM      6  C   UNL     1      -0.175  -2.762   0.004  0.00  0.00    +0.063 A 
ATOM      7  C   UNL     1       0.037  -2.079   1.211  0.00  0.00    +0.133 A 
ATOM      8  C   UNL     1       0.235  -0.709   1.191  0.00  0.00    +0.050 A 
ATOM      9  C   UNL     1      -0.380  -4.212  -0.017  0.00  0.00    -0.023 A 
ATOM     10  C   UNL     1      -0.575  -4.819  -1.214  0.00  0.00    +0.041 A 
ATOM     11  C   UNL     1      -0.577  -4.043  -2.395  0.00  0.00    +0.341 A 
ATOM     12  O   UNL     1      -0.748  -4.597  -3.467  0.00  0.00    -0.245 OA
ATOM     13  O   UNL     1      -0.395  -2.715  -2.370  0.00  0.00    -0.422 OA
ATOM     14  C   UNL     1      -0.765  -6.307  -1.015  0.00  0.00    +0.043 C 
ATOM     15  C   UNL     1      -0.233  -6.595   0.406  0.00  0.00    +0.010 C 
ATOM     16  C   UNL     1      -0.419  -5.228   1.101  0.00  0.00    +0.037 C 
ENDBRANCH   1   7
BRANCH   1  17
ATOM     17  C   UNL     1       0.156  -1.978   3.582  0.00  0.00    +0.256 C 
ATOM     18  C   UNL     1       1.629  -1.684   3.871  0.00  0.00    +0.062 C 
BRANCH  17  19
ATOM     19  C   UNL     1      -0.439  -2.745   4.734  0.00  0.00    +0.254 C 
ATOM     20  O   UNL     1      -0.824  -3.884   4.570  0.00  0.00    -0.272 OA
ATOM     21  N   UNL     1      -0.543  -2.167   5.947  0.00  0.00    -0.296 N 
ATOM     22  H   UNL     1      -0.234  -1.256   6.078  0.00  0.00    +0.150 HD
BRANCH  21  23
ATOM     23  CA  UNL     1      -1.121  -2.912   7.067  0.00  0.00    +0.217 C 
BRANCH  23  24
ATOM     24  C   UNL     1      -0.595  -2.357   8.366  0.00  0.00    -0.016 A 
ATOM     25  C   UNL     1      -0.450  -0.991   8.525  0.00  0.00    +0.006 A 
ATOM     26  C   UNL     1       0.032  -0.481   9.716  0.00  0.00    +0.000 A 
ATOM     27  C   UNL     1       0.369  -1.337  10.748  0.00  0.00    +0.000 A 
ATOM     28  C   UNL     1       0.224  -2.702  10.589  0.00  0.00    +0.000 A 
ATOM     29  C   UNL     1      -0.263  -3.212   9.399  0.00  0.00    +0.006 A 
ENDBRANCH  23  24
BRANCH  23  30
ATOM     30  C   UNL     1      -2.622  -2.782   7.036  0.00  0.00    +0.380 C 
ATOM     31  O   UNL     1      -3.321  -3.682   7.469  0.00  0.00    -0.244 OA
ATOM     32  OXT UNL     1      -3.137  -1.776   6.579  0.00  0.00    -0.244 OA
ENDBRANCH  23  30
ENDBRANCH  21  23
ENDBRANCH  17  19
ENDBRANCH   1  17
TORSDOF 6
