REMARK  Name = ZINC62893213
REMARK  4 active torsions:
REMARK  status: ('A' for Active; 'I' for Inactive)
REMARK    1  A    between atoms: C_1  and  C_2
REMARK    2  A    between atoms: C_2  and  C_3
REMARK    3  A    between atoms: C_3  and  C_8
REMARK    4  A    between atoms: N_10  and  C_11
REMARK                            x       y       z     vdW  Elec       q    Type
REMARK                         _______ _______ _______ _____ _____    ______ ____
ROOT
ATOM      1  C   UNL     1      -0.591   0.204   2.046  0.00  0.00    +0.222 C 
ATOM      2  O   UNL     1      -1.426  -0.528   2.534  0.00  0.00    -0.275 OA
ATOM      3  N   UNL     1      -0.365   1.420   2.582  0.00  0.00    -0.284 N 
ATOM      4  H   UNL     1       0.353   1.974   2.239  0.00  0.00    +0.155 HD
ENDROOT
BRANCH   3   5
ATOM      5  C   UNL     1      -1.167   1.883   3.633  0.00  0.00    +0.050 A 
ATOM      6  C   UNL     1      -1.560   1.012   4.639  0.00  0.00    +0.052 A 
ATOM      7  C   UNL     1      -2.354   1.472   5.677  0.00  0.00    +0.069 A 
ATOM      8  C   UNL     1      -2.755   2.810   5.708  0.00  0.00    +0.068 A 
ATOM      9  C   UNL     1      -2.359   3.676   4.700  0.00  0.00    +0.045 A 
ATOM     10  C   UNL     1      -1.563   3.215   3.669  0.00  0.00    +0.041 A 
ATOM     11 BR   UNL     1      -1.017   4.398   2.299  0.00  0.00    -0.048 Br
ATOM     12  N   UNL     1      -3.532   2.971   6.855  0.00  0.00    -0.306 N 
ATOM     13  H   UNL     1      -3.953   3.795   7.144  0.00  0.00    +0.170 HD
ATOM     14  C   UNL     1      -3.600   1.786   7.490  0.00  0.00    +0.325 A 
ATOM     15  O   UNL     1      -4.203   1.581   8.527  0.00  0.00    -0.247 OA
ATOM     16  N   UNL     1      -2.899   0.863   6.805  0.00  0.00    -0.306 N 
ATOM     17  H   UNL     1      -2.793  -0.069   7.054  0.00  0.00    +0.170 HD
ENDBRANCH   3   5
BRANCH   1  18
ATOM     18  C   UNL     1       0.194  -0.247   0.842  0.00  0.00    +0.030 C 
ATOM     19  C   UNL     1       1.711  -0.197   1.137  0.00  0.00    -0.005 C 
ATOM     20  C   UNL     1       2.036  -1.660   1.530  0.00  0.00    -0.082 C 
ATOM     21  N   UNL     1       1.177  -2.456   0.616  0.00  0.00    +0.380 N 
ATOM     22  C   UNL     1      -0.106  -1.725   0.530  0.00  0.00    -0.067 C 
ATOM     23  H   UNL     1       1.603  -2.518  -0.296  0.00  0.00    -0.086 HD
ATOM     24  H   UNL     1       1.027  -3.379   0.995  0.00  0.00    -0.086 HD
BRANCH  18  26
ATOM     25  C   UNL     1      -1.644   0.568  -0.641  0.00  0.00    +0.005 C 
ATOM     26  C   UNL     1      -0.140   0.629  -0.367  0.00  0.00    +0.011 C 
ENDBRANCH  18  26
ENDBRANCH   1  18
TORSDOF 3
