REMARK  Name = ZINC00806456
REMARK  8 active torsions:
REMARK  status: ('A' for Active; 'I' for Inactive)
REMARK    1  A    between atoms: C_1  and  C_2
REMARK    2  A    between atoms: C_2  and  C_27
REMARK    3  A    between atoms: C_6  and  C_14
REMARK    4  A    between atoms: C_8  and  C_12
REMARK    5  A    between atoms: C_9  and  N_11
REMARK    6  A    between atoms: C_17  and  C_20
REMARK    7  A    between atoms: C_20  and  O_22
REMARK    8  A    between atoms: O_22  and  C_23
REMARK                            x       y       z     vdW  Elec       q    Type
REMARK                         _______ _______ _______ _____ _____    ______ ____
ROOT
ATOM      1  C   UNL     1      -0.019   1.526   0.010  0.00  0.00    +0.012 C 
ATOM      2  C   UNL     1       0.002  -0.004   0.002  0.00  0.00    -0.021 C 
ATOM      3  C   UNL     1      -1.432  -0.538   0.003  0.00  0.00    +0.081 C 
ATOM      4  C   UNL     1      -1.412  -2.048  -0.047  0.00  0.00    +0.115 C 
ATOM      5  C   UNL     1      -0.419  -2.701  -0.677  0.00  0.00    +0.046 C 
ATOM      6  C   UNL     1      -0.403  -4.210  -0.729  0.00  0.00    +0.101 C 
ATOM      7  C   UNL     1      -1.303  -4.772   0.336  0.00  0.00    +0.098 C 
ATOM      8  C   UNL     1      -2.251  -3.994   0.913  0.00  0.00    +0.198 C 
ATOM      9  O   UNL     1      -2.417  -2.712   0.554  0.00  0.00    -0.445 OA
ATOM     10  C   UNL     1       0.635  -2.005  -1.301  0.00  0.00    +0.164 C 
ATOM     11  O   UNL     1       1.502  -2.629  -1.878  0.00  0.00    -0.292 OA
ATOM     12  C   UNL     1       0.710  -0.503  -1.263  0.00  0.00    +0.086 C 
ATOM     13  C   UNL     1       0.741  -0.515   1.240  0.00  0.00    +0.012 C 
ENDROOT
BRANCH   6  14
ATOM     14  C   UNL     1      -0.883  -4.668  -2.082  0.00  0.00    -0.035 A 
ATOM     15  C   UNL     1      -2.155  -4.333  -2.512  0.00  0.00    +0.005 A 
ATOM     16  C   UNL     1      -2.599  -4.744  -3.752  0.00  0.00    +0.015 A 
ATOM     17  C   UNL     1      -1.765  -5.510  -4.569  0.00  0.00    +0.059 A 
ATOM     18  C   UNL     1      -0.485  -5.850  -4.127  0.00  0.00    +0.015 A 
ATOM     19  C   UNL     1      -0.052  -5.426  -2.887  0.00  0.00    +0.005 A 
BRANCH  17  20
ATOM     20  C   UNL     1      -2.236  -5.960  -5.895  0.00  0.00    +0.339 C 
ATOM     21  O   UNL     1      -1.508  -6.627  -6.603  0.00  0.00    -0.245 OA
BRANCH  20  22
ATOM     22  O   UNL     1      -3.471  -5.631  -6.318  0.00  0.00    -0.464 OA
ATOM     23  C   UNL     1      -3.867  -6.108  -7.631  0.00  0.00    +0.280 C 
ENDBRANCH  20  22
ENDBRANCH  17  20
ENDBRANCH   6  14
BRANCH   8  24
ATOM     24  N   UNL     1      -3.056  -4.529   1.887  0.00  0.00    -0.328 N 
ATOM     25  H   UNL     1      -2.944  -5.454   2.156  0.00  0.00    +0.145 HD
ATOM     26  H   UNL     1      -3.738  -3.981   2.308  0.00  0.00    +0.145 HD
ENDBRANCH   8  24
BRANCH   7  27
ATOM     27  C   UNL     1      -1.158  -6.138   0.742  0.00  0.00    +0.101 C 
ATOM     28  N   UNL     1      -1.044  -7.221   1.063  0.00  0.00    -0.191 NA
ENDBRANCH   7  27
TORSDOF 5
