REMARK  Name = ZINC00180347
REMARK  4 active torsions:
REMARK  status: ('A' for Active; 'I' for Inactive)
REMARK    1  A    between atoms: C_1  and  C_2
REMARK    2  A    between atoms: C_2  and  C_4
REMARK    3  A    between atoms: C_17  and  C_20
REMARK    4  A    between atoms: C_25  and  N_26
REMARK                            x       y       z     vdW  Elec       q    Type
REMARK                         _______ _______ _______ _____ _____    ______ ____
ROOT
ATOM      1  C   UNL     1      -2.079  -4.561   0.341  0.00  0.00    +0.017 A 
ATOM      2  C   UNL     1      -2.701  -3.777   1.322  0.00  0.00    +0.013 A 
ATOM      3  C   UNL     1      -2.410  -2.446   1.403  0.00  0.00    +0.024 A 
ATOM      4  C   UNL     1      -1.502  -1.870   0.517  0.00  0.00    +0.031 A 
ATOM      5  C   UNL     1      -0.878  -2.638  -0.461  0.00  0.00    -0.019 A 
ATOM      6  C   UNL     1      -1.169  -3.977  -0.545  0.00  0.00    +0.017 A 
ATOM      7  C   UNL     1       0.103  -2.057  -1.430  0.00  0.00    +0.049 C 
ATOM      8  C   UNL     1       1.516  -2.442  -1.060  0.00  0.00    -0.023 C 
ATOM      9  C   UNL     1       2.336  -1.450  -1.308  0.00  0.00    -0.030 C 
ATOM     10  C   UNL     1       1.581  -0.267  -1.883  0.00  0.00    +0.033 C 
ATOM     11  C   UNL     1       0.115  -0.516  -1.419  0.00  0.00    +0.029 C 
ATOM     12  C   UNL     1      -0.001  -0.004   0.019  0.00  0.00    +0.107 C 
ATOM     13  N   UNL     1      -1.245  -0.510   0.606  0.00  0.00    -0.336 N 
ATOM     14  H   UNL     1      -1.860   0.088   1.058  0.00  0.00    +0.147 HD
ENDROOT
BRANCH  12  15
ATOM     15  C   UNL     1      -0.020   1.503   0.018  0.00  0.00    +0.003 A 
ATOM     16  C   UNL     1      -0.232   2.191  -1.162  0.00  0.00    +0.008 A 
ATOM     17  C   UNL     1      -0.254   3.573  -1.161  0.00  0.00    +0.000 A 
ATOM     18  C   UNL     1      -0.054   4.267   0.017  0.00  0.00    +0.002 A 
ATOM     19  C   UNL     1       0.164   3.579   1.196  0.00  0.00    +0.033 A 
ATOM     20  C   UNL     1       0.181   2.197   1.197  0.00  0.00    +0.131 A 
BRANCH  20  21
ATOM     21  N   UNL     1       0.414   1.460   2.459  0.00  0.00    +0.057 N 
ATOM     22  O   UNL     1       0.496   2.067   3.512  0.00  0.00    -0.126 OA
ATOM     23  O   UNL     1       0.524   0.247   2.445  0.00  0.00    -0.126 OA
ENDBRANCH  20  21
ENDBRANCH  12  15
BRANCH   1  25
ATOM     24  C   UNL     1      -3.365  -6.622   1.199  0.00  0.00    +0.091 C 
ATOM     25  C   UNL     1      -2.384  -5.993   0.244  0.00  0.00    +0.160 C 
ATOM     26  O   UNL     1      -1.845  -6.671  -0.606  0.00  0.00    -0.292 OA
ENDBRANCH   1  25
TORSDOF 3
