REMARK  Name = ZINC39610100
REMARK  4 active torsions:
REMARK  status: ('A' for Active; 'I' for Inactive)
REMARK    1  A    between atoms: C_4  and  C_8
REMARK    2  A    between atoms: C_12  and  C_21
REMARK    3  A    between atoms: N_23  and  C_24
REMARK    4  A    between atoms: C_24  and  C_25
REMARK                            x       y       z     vdW  Elec       q    Type
REMARK                         _______ _______ _______ _____ _____    ______ ____
ROOT
ATOM      1  C   UNL     1       3.818  -0.791  -0.005  0.00  0.00    +0.249 C 
ATOM      2  O   UNL     1       4.409  -1.056   1.024  0.00  0.00    -0.270 OA
ATOM      3  N   UNL     1       4.384  -1.065  -1.197  0.00  0.00    -0.296 N 
ATOM      4  C   UNL     1       3.827  -0.812  -2.546  0.00  0.00    +0.121 C 
ATOM      5  C   UNL     1       5.035  -0.340  -3.385  0.00  0.00    +0.100 C 
ATOM      6  C   UNL     1       6.264  -0.920  -2.665  0.00  0.00    -0.004 C 
ATOM      7  C   UNL     1       5.707  -1.683  -1.454  0.00  0.00    +0.115 C 
ATOM      8  C   UNL     1       7.018  -1.871  -3.589  0.00  0.00    -0.010 C 
ATOM      9  C   UNL     1       8.267  -2.390  -2.870  0.00  0.00    -0.082 C 
ATOM     10  N   UNL     1       9.123  -1.259  -2.495  0.00  0.00    +0.379 N 
ATOM     11  C   UNL     1       8.423  -0.398  -1.533  0.00  0.00    -0.082 C 
ATOM     12  C   UNL     1       7.181   0.205  -2.195  0.00  0.00    -0.010 C 
ATOM     13  H   UNL     1       9.973  -1.606  -2.076  0.00  0.00    -0.086 HD
ATOM     14  H   UNL     1       9.352  -0.724  -3.319  0.00  0.00    -0.086 HD
ENDROOT
BRANCH   1  18
ATOM     15  C   UNL     1      -0.030   1.001   0.156  0.00  0.00    +0.003 A 
ATOM     16  C   UNL     1       1.099   1.799   0.120  0.00  0.00    +0.021 A 
ATOM     17  C   UNL     1       2.353   1.224   0.068  0.00  0.00    +0.054 A 
ATOM     18  C   UNL     1       2.480  -0.168   0.052  0.00  0.00    +0.073 A 
ATOM     19  C   UNL     1       1.334  -0.967   0.088  0.00  0.00    +0.054 A 
ATOM     20  C   UNL     1       0.087  -0.377   0.140  0.00  0.00    +0.021 A 
ATOM     21 CL   UNL     1       1.479  -2.697   0.068  0.00  0.00    -0.083 Cl
ATOM     22 CL   UNL     1       3.769   2.227   0.022  0.00  0.00    -0.083 Cl
ENDBRANCH   1  18
BRANCH   5  23
ATOM     23  C   UNL     1       4.943  -0.881  -4.789  0.00  0.00    +0.218 C 
ATOM     24  O   UNL     1       4.405  -1.948  -4.993  0.00  0.00    -0.275 OA
ATOM     25  N   UNL     1       5.459  -0.178  -5.817  0.00  0.00    -0.311 N 
ATOM     26  H   UNL     1       5.890   0.675  -5.654  0.00  0.00    +0.149 HD
BRANCH  25  27
ATOM     27  C   UNL     1       5.370  -0.704  -7.181  0.00  0.00    +0.139 C 
BRANCH  27  28
ATOM     28  C   UNL     1       6.017   0.265  -8.137  0.00  0.00    -0.027 A 
ATOM     29  C   UNL     1       5.265   1.269  -8.716  0.00  0.00    +0.009 A 
ATOM     30  C   UNL     1       5.854   2.161  -9.592  0.00  0.00    +0.050 A 
ATOM     31  C   UNL     1       7.202   2.049  -9.893  0.00  0.00    +0.166 A 
ATOM     32  C   UNL     1       7.960   1.037  -9.310  0.00  0.00    +0.167 A 
ATOM     33  C   UNL     1       7.364   0.150  -8.428  0.00  0.00    +0.054 A 
ATOM     34  O   UNL     1       9.244   1.138  -9.761  0.00  0.00    -0.453 OA
ATOM     35  C   UNL     1       9.174   1.967 -10.937  0.00  0.00    +0.466 C 
ATOM     36  O   UNL     1       8.011   2.785 -10.710  0.00  0.00    -0.453 OA
ENDBRANCH  27  28
ENDBRANCH  25  27
ENDBRANCH   5  23
TORSDOF 4
