REMARK  Name = ZINC08991481
REMARK  7 active torsions:
REMARK  status: ('A' for Active; 'I' for Inactive)
REMARK    1  A    between atoms: C_1  and  C_2
REMARK    2  A    between atoms: C_11  and  C_13
REMARK    3  A    between atoms: C_18  and  O_19
REMARK    4  A    between atoms: O_19  and  C_20
REMARK    5  A    between atoms: N_21  and  C_22
REMARK    6  A    between atoms: C_22  and  C_23
REMARK    7  A    between atoms: C_23  and  C_24
REMARK                            x       y       z     vdW  Elec       q    Type
REMARK                         _______ _______ _______ _____ _____    ______ ____
ROOT
ATOM      1  C   UNL     1       5.210   3.320  -0.017  0.00  0.00    +0.066 C 
ATOM      2  C   UNL     1       3.840   2.692  -0.009  0.00  0.00    +0.047 A 
ATOM      3  C   UNL     1       3.670   1.428  -0.494  0.00  0.00    +0.093 A 
ATOM      4  C   UNL     1       2.381   0.861  -0.484  0.00  0.00    +0.257 A 
ATOM      5  O   UNL     1       2.192  -0.270  -0.902  0.00  0.00    -0.267 OA
ATOM      6  N   UNL     1       1.362   1.595  -0.002  0.00  0.00    -0.255 N 
ATOM      7  C   UNL     1       1.597   2.848   0.487  0.00  0.00    +0.207 A 
ATOM      8  N   UNL     1       2.799   3.373   0.471  0.00  0.00    -0.221 NA
ATOM      9  N   UNL     1       0.515   3.529   1.014  0.00  0.00    -0.259 N 
ATOM     10  C   UNL     1      -0.429   2.757   1.682  0.00  0.00    +0.162 C 
ATOM     11  C   UNL     1      -0.013   1.086   0.008  0.00  0.00    +0.224 C 
ATOM     12  N   UNL     1      -1.071   3.239   2.798  0.00  0.00    -0.318 N 
ATOM     13  H   UNL     1       0.420   4.490   0.922  0.00  0.00    +0.158 HD
ATOM     14  H   UNL     1      -0.867   4.128   3.129  0.00  0.00    +0.149 HD
ATOM     15  N   UNL     1      -0.736   1.522   1.255  0.00  0.00    -0.337 N 
ATOM     16  H   UNL     1      -1.411   0.921   1.742  0.00  0.00    +0.164 HD
ENDROOT
BRANCH  11  17
ATOM     17  C   UNL     1      -0.745   1.587  -1.210  0.00  0.00    +0.037 A 
ATOM     18  C   UNL     1      -0.040   1.938  -2.345  0.00  0.00    +0.011 A 
ATOM     19  C   UNL     1      -0.712   2.393  -3.464  0.00  0.00    +0.001 A 
ATOM     20  C   UNL     1      -2.090   2.508  -3.447  0.00  0.00    +0.004 A 
ATOM     21  C   UNL     1      -2.799   2.164  -2.313  0.00  0.00    +0.046 A 
ATOM     22  C   UNL     1      -2.127   1.702  -1.190  0.00  0.00    +0.127 A 
BRANCH  22  23
ATOM     23  O   UNL     1      -2.823   1.362  -0.073  0.00  0.00    -0.495 OA
ATOM     24  C   UNL     1      -4.244   1.505  -0.125  0.00  0.00    +0.277 C 
ENDBRANCH  22  23
ENDBRANCH  11  17
BRANCH  12  25
ATOM     25  C   UNL     1      -2.062   2.410   3.488  0.00  0.00    +0.109 C 
BRANCH  25  26
ATOM     26  C   UNL     1      -2.622   3.176   4.688  0.00  0.00    +0.056 C 
BRANCH  26  27
ATOM     27  C   UNL     1      -3.641   2.323   5.398  0.00  0.00    -0.021 A 
ATOM     28  C   UNL     1      -4.971   2.353   5.218  0.00  0.00    +0.087 A 
ATOM     29  N   UNL     1      -5.573   1.434   6.034  0.00  0.00    -0.360 N 
ATOM     30  H   UNL     1      -6.528   1.270   6.079  0.00  0.00    +0.165 HD
ATOM     31  C   UNL     1      -4.622   0.780   6.784  0.00  0.00    +0.047 A 
ATOM     32  C   UNL     1      -3.370   1.308   6.419  0.00  0.00    +0.003 A 
ATOM     33  C   UNL     1      -2.208   0.828   7.025  0.00  0.00    +0.010 A 
ATOM     34  C   UNL     1      -2.292  -0.153   7.972  0.00  0.00    +0.001 A 
ATOM     35  C   UNL     1      -3.525  -0.678   8.335  0.00  0.00    +0.002 A 
ATOM     36  C   UNL     1      -4.684  -0.219   7.750  0.00  0.00    +0.026 A 
ENDBRANCH  26  27
ENDBRANCH  25  26
ENDBRANCH  12  25
TORSDOF 5
