REMARK  Name = ZINC38965392
REMARK  6 active torsions:
REMARK  status: ('A' for Active; 'I' for Inactive)
REMARK    1  A    between atoms: C_4  and  C_7
REMARK    2  A    between atoms: C_9  and  C_13
REMARK    3  A    between atoms: C_17  and  S_32
REMARK    4  A    between atoms: N_19  and  N_20
REMARK    5  A    between atoms: C_21  and  C_22
REMARK    6  A    between atoms: C_25  and  C_28
REMARK                            x       y       z     vdW  Elec       q    Type
REMARK                         _______ _______ _______ _____ _____    ______ ____
ROOT
ATOM      1  C   UNL     1       5.782  -3.012   1.181  0.00  0.00    +0.206 C 
ATOM      2  N   UNL     1       5.471  -2.227   2.398  0.00  0.00    -0.231 NA
ATOM      3  N   UNL     1       6.608  -2.481   3.297  0.00  0.00    -0.225 NA
ATOM      4  C   UNL     1       7.767  -2.521   2.367  0.00  0.00    +0.231 C 
ATOM      5  N   UNL     1       7.243  -3.199   1.162  0.00  0.00    -0.207 N 
ATOM      6  H   UNL     1       5.392  -1.244   2.184  0.00  0.00    +0.143 HD
ATOM      7  H   UNL     1       6.500  -3.362   3.777  0.00  0.00    +0.143 HD
ENDROOT
BRANCH   1  10
ATOM      8  C   UNL     1       3.699  -0.689  -0.037  0.00  0.00    +0.091 C 
ATOM      9  C   UNL     1       3.832  -2.029  -0.051  0.00  0.00    +0.034 C 
ATOM     10  C   UNL     1       5.335  -2.245  -0.065  0.00  0.00    +0.190 C 
ATOM     11  N   UNL     1       5.871  -0.874  -0.056  0.00  0.00    -0.176 NA
ATOM     12  N   UNL     1       4.919  -0.090  -0.047  0.00  0.00    -0.154 NA
BRANCH   8  16
ATOM     13  C   UNL     1      -0.017   1.379   0.010  0.00  0.00    +0.000 A 
ATOM     14  C   UNL     1       1.169   2.092   0.002  0.00  0.00    +0.001 A 
ATOM     15  C   UNL     1       2.377   1.426  -0.013  0.00  0.00    +0.010 A 
ATOM     16  C   UNL     1       2.402   0.033  -0.021  0.00  0.00    +0.002 A 
ATOM     17  C   UNL     1       1.205  -0.680  -0.013  0.00  0.00    +0.010 A 
ATOM     18  C   UNL     1       0.002  -0.004   0.002  0.00  0.00    +0.001 A 
ENDBRANCH   8  16
ENDBRANCH   1  10
BRANCH   5  19
ATOM     19  N   UNL     1       7.989  -3.883   0.193  0.00  0.00    -0.188 NA
ATOM     20  C   UNL     1       9.278  -3.967   0.307  0.00  0.00    +0.138 C 
BRANCH  20  21
ATOM     21  C   UNL     1      10.063  -4.688  -0.713  0.00  0.00    -0.005 A 
ATOM     22  C   UNL     1       9.421  -5.275  -1.806  0.00  0.00    +0.010 A 
ATOM     23  C   UNL     1      10.162  -5.947  -2.757  0.00  0.00    +0.013 A 
ATOM     24  C   UNL     1      11.536  -6.040  -2.630  0.00  0.00    +0.055 A 
ATOM     25  C   UNL     1      12.178  -5.460  -1.550  0.00  0.00    +0.013 A 
ATOM     26  C   UNL     1      11.451  -4.781  -0.594  0.00  0.00    +0.010 A 
BRANCH  24  27
ATOM     27  C   UNL     1      12.338  -6.776  -3.672  0.00  0.00    +0.417 C 
ATOM     28  F   UNL     1      12.725  -5.884  -4.678  0.00  0.00    -0.166 F 
ATOM     29  F   UNL     1      13.476  -7.331  -3.078  0.00  0.00    -0.166 F 
ATOM     30  F   UNL     1      11.557  -7.795  -4.227  0.00  0.00    -0.166 F 
ENDBRANCH  24  27
ENDBRANCH  20  21
ENDBRANCH   5  19
BRANCH   4  31
ATOM     31  S   UNL     1       8.316  -0.839   1.966  0.00  0.00    -0.138 S 
ATOM     32  H   UNL     1       8.683  -0.325   3.153  0.00  0.00    +0.105 HD
ENDBRANCH   4  31
TORSDOF 6
