REMARK  Name = ZINC42145530
REMARK  9 active torsions:
REMARK  status: ('A' for Active; 'I' for Inactive)
REMARK    1  A    between atoms: C_1  and  C_2
REMARK    2  A    between atoms: C_2  and  C_3
REMARK    3  A    between atoms: C_3  and  C_4
REMARK    4  A    between atoms: C_4  and  N_5
REMARK    5  A    between atoms: N_14  and  C_27
REMARK    6  A    between atoms: C_15  and  C_17
REMARK    7  A    between atoms: C_17  and  N_18
REMARK    8  A    between atoms: C_22  and  C_25
REMARK    9  A    between atoms: C_25  and  C_26
REMARK                            x       y       z     vdW  Elec       q    Type
REMARK                         _______ _______ _______ _____ _____    ______ ____
ROOT
ATOM      1  N   UNL     1       1.471  -2.526   2.420  0.00  0.00    -0.277 N 
ATOM      2  C   UNL     1       2.841  -2.732   2.372  0.00  0.00    +0.168 A 
ATOM      3  C   UNL     1       3.490  -3.193   3.511  0.00  0.00    +0.151 A 
ATOM      4  C   UNL     1       2.737  -3.437   4.680  0.00  0.00    +0.280 A 
ATOM      5  O   UNL     1       3.284  -3.840   5.691  0.00  0.00    -0.265 OA
ATOM      6  N   UNL     1       1.406  -3.217   4.665  0.00  0.00    -0.273 N 
ATOM      7  H   UNL     1       0.885  -3.383   5.466  0.00  0.00    +0.173 HD
ATOM      8  C   UNL     1       0.792  -2.766   3.557  0.00  0.00    +0.331 A 
ATOM      9  O   UNL     1      -0.409  -2.574   3.582  0.00  0.00    -0.246 OA
ATOM     10  N   UNL     1       4.824  -3.304   3.176  0.00  0.00    -0.327 N 
ATOM     11  C   UNL     1       4.941  -2.921   1.890  0.00  0.00    +0.096 A 
ATOM     12  N   UNL     1       3.766  -2.585   1.421  0.00  0.00    -0.216 NA
ATOM     13  C   UNL     1       5.908  -3.753   4.054  0.00  0.00    +0.151 C 
ENDROOT
BRANCH   1  14
ATOM     14  C   UNL     1       0.763  -2.041   1.233  0.00  0.00    +0.128 C 
BRANCH  14  15
ATOM     15  C   UNL     1       0.742  -0.511   1.242  0.00  0.00    +0.021 C 
BRANCH  15  17
ATOM     16  C   UNL     1      -0.019   1.526   0.010  0.00  0.00    +0.004 C 
ATOM     17  C   UNL     1       0.002  -0.004   0.002  0.00  0.00    -0.002 C 
ENDBRANCH  15  17
ENDBRANCH  14  15
ENDBRANCH   1  14
BRANCH  11  18
ATOM     18  C   UNL     1       6.229  -2.885   1.109  0.00  0.00    -0.003 C 
BRANCH  18  19
ATOM     19  N   UNL     1       6.438  -4.180   0.447  0.00  0.00    +0.385 N 
ATOM     20  C   UNL     1       6.619  -5.223   1.463  0.00  0.00    -0.078 C 
ATOM     21  C   UNL     1       6.755  -6.586   0.781  0.00  0.00    -0.018 C 
ATOM     22  C   UNL     1       7.969  -6.565  -0.152  0.00  0.00    -0.000 C 
ATOM     23  C   UNL     1       7.804  -5.425  -1.162  0.00  0.00    -0.028 C 
ATOM     24  C   UNL     1       7.629  -4.105  -0.408  0.00  0.00    -0.075 C 
ATOM     25  H   UNL     1       5.632  -4.401  -0.119  0.00  0.00    -0.081 HD
BRANCH  23  26
ATOM     26  C   UNL     1       9.047  -5.345  -2.051  0.00  0.00    -0.002 C 
ATOM     27  C   UNL     1       9.154  -6.618  -2.893  0.00  0.00    +0.004 C 
ENDBRANCH  23  26
ENDBRANCH  18  19
ENDBRANCH  11  18
TORSDOF 6
