REMARK  Name = ZINC36371102
REMARK  10 active torsions:
REMARK  status: ('A' for Active; 'I' for Inactive)
REMARK    1  A    between atoms: C_1  and  C_2
REMARK    2  A    between atoms: C_2  and  O_4
REMARK    3  A    between atoms: O_4  and  C_5
REMARK    4  A    between atoms: C_5  and  C_6
REMARK    5  A    between atoms: C_6  and  C_8
REMARK    6  A    between atoms: C_8  and  O_35
REMARK    7  A    between atoms: C_13  and  C_34
REMARK    8  A    between atoms: C_15  and  O_33
REMARK    9  A    between atoms: C_22  and  O_32
REMARK   10  A    between atoms: C_30  and  C_31
REMARK                            x       y       z     vdW  Elec       q    Type
REMARK                         _______ _______ _______ _____ _____    ______ ____
ROOT
ATOM      1  C   UNL     1      -2.619  -4.208   0.004  0.00  0.00    +0.133 C 
ATOM      2  C   UNL     1      -2.771  -4.737   1.453  0.00  0.00    +0.043 C 
ATOM      3  C   UNL     1      -4.203  -5.327   1.556  0.00  0.00    +0.008 C 
ATOM      4  C   UNL     1      -4.961  -4.584   0.450  0.00  0.00    +0.002 C 
ATOM      5  C   UNL     1      -3.918  -4.584  -0.701  0.00  0.00    +0.009 C 
ATOM      6  C   UNL     1      -4.417  -3.618  -1.758  0.00  0.00    +0.041 C 
ATOM      7  C   UNL     1      -5.728  -4.193  -2.318  0.00  0.00    +0.119 C 
ATOM      8  C   UNL     1      -6.763  -4.405  -1.218  0.00  0.00    +0.031 C 
ATOM      9  C   UNL     1      -6.217  -5.264  -0.063  0.00  0.00    +0.002 C 
ATOM     10  C   UNL     1      -7.250  -5.373   1.059  0.00  0.00    +0.040 C 
ATOM     11  C   UNL     1      -8.508  -6.083   0.546  0.00  0.00    +0.141 C 
ATOM     12  C   UNL     1      -8.999  -5.323  -0.675  0.00  0.00    -0.032 C 
ATOM     13  C   UNL     1     -10.262  -4.907  -0.707  0.00  0.00    +0.048 C 
ATOM     14  C   UNL     1     -10.729  -4.135  -1.868  0.00  0.00    +0.156 C 
ATOM     15  O   UNL     1     -11.897  -4.107  -2.194  0.00  0.00    -0.293 OA
ATOM     16  C   UNL     1      -9.662  -3.374  -2.633  0.00  0.00    +0.080 C 
ATOM     17  C   UNL     1      -8.554  -4.364  -2.988  0.00  0.00    +0.019 C 
ATOM     18  C   UNL     1      -7.995  -5.099  -1.801  0.00  0.00    -0.002 C 
ATOM     19  C   UNL     1      -7.526  -6.468  -2.297  0.00  0.00    +0.016 C 
ATOM     20  C   UNL     1      -3.799  -5.989  -1.293  0.00  0.00    +0.015 C 
ENDROOT
BRANCH   1  21
ATOM     21  C   UNL     1      -2.442  -2.712   0.011  0.00  0.00    +0.202 C 
ATOM     22  O   UNL     1      -3.409  -1.989   0.024  0.00  0.00    -0.291 OA
BRANCH  21  23
ATOM     23  C   UNL     1      -1.057  -2.117   0.001  0.00  0.00    +0.309 C 
BRANCH  23  24
ATOM     24  O   UNL     1      -1.151  -0.691   0.009  0.00  0.00    -0.457 OA
BRANCH  24  26
ATOM     25  C   UNL     1      -0.018   1.503   0.010  0.00  0.00    +0.136 C 
ATOM     26  C   UNL     1       0.002  -0.004   0.002  0.00  0.00    +0.304 C 
ATOM     27  O   UNL     1       1.056  -0.594  -0.011  0.00  0.00    -0.251 OA
ENDBRANCH  24  26
ENDBRANCH  23  24
ENDBRANCH  21  23
ENDBRANCH   1  21
BRANCH  11  28
ATOM     28  O   UNL     1      -8.192  -7.429   0.186  0.00  0.00    -0.387 OA
ATOM     29  H   UNL     1      -8.946  -7.934  -0.147  0.00  0.00    +0.210 HD
ENDBRANCH  11  28
BRANCH   7  30
ATOM     30  O   UNL     1      -6.259  -3.287  -3.287  0.00  0.00    -0.391 OA
ATOM     31  H   UNL     1      -5.670  -3.124  -4.037  0.00  0.00    +0.210 HD
ENDBRANCH   7  30
BRANCH   1  32
ATOM     32  O   UNL     1      -1.507  -4.835  -0.639  0.00  0.00    -0.380 OA
ATOM     33  H   UNL     1      -0.655  -4.648  -0.222  0.00  0.00    +0.211 HD
ENDBRANCH   1  32
TORSDOF 7
