REMARK  Name = ZINC13233609
REMARK  8 active torsions:
REMARK  status: ('A' for Active; 'I' for Inactive)
REMARK    1  A    between atoms: C_1  and  C_2
REMARK    2  A    between atoms: C_2  and  C_4
REMARK    3  A    between atoms: C_2  and  N_6
REMARK    4  A    between atoms: C_16  and  S_17
REMARK    5  A    between atoms: S_17  and  C_18
REMARK    6  A    between atoms: C_18  and  C_19
REMARK    7  A    between atoms: N_24  and  C_25
REMARK    8  A    between atoms: C_25  and  C_26
REMARK                            x       y       z     vdW  Elec       q    Type
REMARK                         _______ _______ _______ _____ _____    ______ ____
ROOT
ATOM      1  C   UNL     1       2.348  -6.172  -0.052  0.00  0.00    +0.231 C 
ATOM      2  O   UNL     1       1.456  -6.994  -0.047  0.00  0.00    -0.274 OA
ATOM      3  N   UNL     1       3.634  -6.574  -0.066  0.00  0.00    -0.240 N 
ATOM      4  C   UNL     1       3.930  -7.889  -0.076  0.00  0.00    +0.306 C 
ATOM      5  O   UNL     1       3.036  -8.713  -0.071  0.00  0.00    -0.252 OA
ATOM      6  N   UNL     1       5.216  -8.291  -0.090  0.00  0.00    -0.295 N 
ATOM      7  H   UNL     1       4.348  -5.917  -0.070  0.00  0.00    +0.159 HD
ATOM      8  H   UNL     1       5.929  -7.633  -0.094  0.00  0.00    +0.150 HD
ENDROOT
BRANCH   1   9
ATOM      9  C   UNL     1       2.018  -4.702  -0.041  0.00  0.00    +0.173 C 
BRANCH   9  10
ATOM     10  S   UNL     1       0.220  -4.487  -0.023  0.00  0.00    -0.078 S 
BRANCH  10  21
ATOM     11  N   UNL     1      -1.113  -2.145   0.002  0.00  0.00    -0.273 N 
ATOM     12  C   UNL     1      -1.235  -0.797   0.010  0.00  0.00    +0.263 A 
ATOM     13  O   UNL     1      -2.328  -0.262   0.023  0.00  0.00    -0.267 OA
ATOM     14  C   UNL     1       0.002  -0.004   0.002  0.00  0.00    +0.065 A 
ATOM     15  C   UNL     1      -0.017   1.390   0.010  0.00  0.00    +0.015 A 
ATOM     16  C   UNL     1       1.164   2.080   0.002  0.00  0.00    +0.001 A 
ATOM     17  C   UNL     1       2.379   1.407  -0.013  0.00  0.00    +0.002 A 
ATOM     18  C   UNL     1       2.427   0.042  -0.021  0.00  0.00    +0.028 A 
ATOM     19  C   UNL     1       1.237  -0.692  -0.013  0.00  0.00    +0.079 A 
ATOM     20  N   UNL     1       1.238  -2.041  -0.020  0.00  0.00    -0.223 NA
ATOM     21  C   UNL     1       0.122  -2.728  -0.013  0.00  0.00    +0.173 A 
BRANCH  11  23
ATOM     22  C   UNL     1      -3.156  -2.679  -1.231  0.00  0.00    +0.043 C 
ATOM     23  C   UNL     1      -2.313  -2.984   0.009  0.00  0.00    +0.202 C 
BRANCH  23  24
ATOM     24  C   UNL     1      -3.120  -2.696   1.248  0.00  0.00    +0.378 C 
ATOM     25  O   UNL     1      -2.732  -1.874   2.044  0.00  0.00    -0.244 OA
ATOM     26  O   UNL     1      -4.270  -3.353   1.468  0.00  0.00    -0.244 OA
ENDBRANCH  23  24
ENDBRANCH  11  23
ENDBRANCH  10  21
ENDBRANCH   9  10
ENDBRANCH   1   9
BRANCH   6  27
ATOM     27  C   UNL     1       5.537  -9.720  -0.101  0.00  0.00    +0.153 C 
BRANCH  27  28
ATOM     28  C   UNL     1       7.056  -9.901  -0.116  0.00  0.00    +0.228 C 
ATOM     29  C   UNL     1       7.399 -11.397  -0.158  0.00  0.00    +0.275 C 
ATOM     30  O   UNL     1       8.824 -11.530  -0.185  0.00  0.00    -0.485 OA
ATOM     31  C   UNL     1       9.496 -10.729  -1.056  0.00  0.00    +0.162 A 
ATOM     32  C   UNL     1      10.804 -11.041  -1.397  0.00  0.00    +0.049 A 
ATOM     33  C   UNL     1      11.501 -10.235  -2.277  0.00  0.00    +0.004 A 
ATOM     34  C   UNL     1      10.896  -9.116  -2.821  0.00  0.00    +0.004 A 
ATOM     35  C   UNL     1       9.593  -8.800  -2.486  0.00  0.00    +0.049 A 
ATOM     36  C   UNL     1       8.888  -9.605  -1.604  0.00  0.00    +0.163 A 
ATOM     37  O   UNL     1       7.604  -9.284  -1.286  0.00  0.00    -0.480 OA
ENDBRANCH  27  28
ENDBRANCH   6  27
TORSDOF 7
