REMARK  Name = ZINC64055484
REMARK  9 active torsions:
REMARK  status: ('A' for Active; 'I' for Inactive)
REMARK    1  A    between atoms: C_1  and  C_2
REMARK    2  A    between atoms: C_6  and  N_8
REMARK    3  A    between atoms: C_9  and  S_23
REMARK    4  A    between atoms: C_13  and  C_14
REMARK    5  A    between atoms: S_23  and  C_24
REMARK    6  A    between atoms: C_24  and  C_26
REMARK    7  A    between atoms: C_24  and  C_29
REMARK    8  A    between atoms: C_26  and  C_27
REMARK    9  A    between atoms: C_26  and  C_28
REMARK                            x       y       z     vdW  Elec       q    Type
REMARK                         _______ _______ _______ _____ _____    ______ ____
ROOT
ATOM      1  N   UNL     1       0.087  -2.910   2.264  0.00  0.00    -0.254 N 
ATOM      2  C   UNL     1      -0.076  -4.331   2.613  0.00  0.00    +0.242 C 
ATOM      3  N   UNL     1      -0.027  -4.351   4.085  0.00  0.00    -0.237 N 
ATOM      4  N   UNL     1       0.151  -3.025   4.495  0.00  0.00    -0.169 NA
ATOM      5  C   UNL     1       0.221  -2.216   3.470  0.00  0.00    +0.151 C 
ATOM      6  H   UNL     1      -0.103  -5.131   4.657  0.00  0.00    +0.171 HD
ENDROOT
BRANCH   5   7
ATOM      7  C   UNL     1       0.404  -0.828   3.569  0.00  0.00    +0.022 C 
ATOM      8  C   UNL     1       0.596  -0.083   4.732  0.00  0.00    +0.006 A 
ATOM      9  C   UNL     1       0.668  -0.445   6.095  0.00  0.00    +0.010 A 
ATOM     10  C   UNL     1       0.869   0.513   7.036  0.00  0.00    +0.001 A 
ATOM     11  C   UNL     1       1.008   1.859   6.691  0.00  0.00    +0.002 A 
ATOM     12  C   UNL     1       0.949   2.278   5.403  0.00  0.00    +0.026 A 
ATOM     13  C   UNL     1       0.743   1.334   4.364  0.00  0.00    +0.043 A 
ATOM     14  N   UNL     1       0.650   1.483   3.057  0.00  0.00    -0.380 N 
ATOM     15  C   UNL     1       0.439   0.172   2.434  0.00  0.00    +0.152 C 
ATOM     16  H   UNL     1       0.715   2.326   2.581  0.00  0.00    +0.160 HD
ENDBRANCH   5   7
BRANCH   1  22
ATOM     17  C   UNL     1       2.600  -1.760  -1.800  0.00  0.00    +0.044 C 
ATOM     18  C   UNL     1       1.315  -1.792  -1.014  0.00  0.00    -0.049 A 
ATOM     19  C   UNL     1       0.155  -1.279  -1.566  0.00  0.00    +0.003 A 
ATOM     20  C   UNL     1      -1.027  -1.307  -0.849  0.00  0.00    +0.002 A 
ATOM     21  C   UNL     1      -1.053  -1.847   0.422  0.00  0.00    +0.023 A 
ATOM     22  C   UNL     1       0.110  -2.363   0.979  0.00  0.00    +0.038 A 
ATOM     23  C   UNL     1       1.295  -2.339   0.254  0.00  0.00    +0.027 A 
ENDBRANCH   1  22
BRANCH   2  24
ATOM     24  S   UNL     1      -1.674  -4.951   2.020  0.00  0.00    -0.105 S 
BRANCH  24  25
ATOM     25  C   UNL     1      -2.891  -3.889   2.845  0.00  0.00    +0.138 C 
BRANCH  25  26
ATOM     26  C   UNL     1      -2.924  -4.212   4.316  0.00  0.00    +0.234 C 
ATOM     27  O   UNL     1      -2.498  -5.276   4.713  0.00  0.00    -0.274 OA
ATOM     28  N   UNL     1      -3.427  -3.319   5.191  0.00  0.00    -0.239 N 
ATOM     29  C   UNL     1      -3.457  -3.609   6.508  0.00  0.00    +0.303 C 
ATOM     30  O   UNL     1      -3.030  -4.675   6.905  0.00  0.00    -0.253 OA
ATOM     31  N   UNL     1      -3.960  -2.716   7.383  0.00  0.00    -0.313 N 
ATOM     32  H   UNL     1      -3.768  -2.468   4.874  0.00  0.00    +0.159 HD
ATOM     33  H   UNL     1      -4.301  -1.865   7.065  0.00  0.00    +0.146 HD
ATOM     34  H   UNL     1      -3.982  -2.924   8.330  0.00  0.00    +0.146 HD
ENDBRANCH  25  26
BRANCH  25  35
ATOM     35  C   UNL     1      -4.274  -4.131   2.238  0.00  0.00    +0.005 C 
ATOM     36  C   UNL     1      -5.299  -3.229   2.929  0.00  0.00    +0.009 C 
ATOM     37  C   UNL     1      -4.238  -3.809   0.742  0.00  0.00    +0.009 C 
ENDBRANCH  25  35
ENDBRANCH  24  25
ENDBRANCH   2  24
TORSDOF 6
