REMARK  Name = ZINC22705352
REMARK  4 active torsions:
REMARK  status: ('A' for Active; 'I' for Inactive)
REMARK    1  A    between atoms: C_1  and  C_2
REMARK    2  A    between atoms: C_2  and  C_3
REMARK    3  A    between atoms: N_11  and  C_15
REMARK    4  A    between atoms: C_15  and  C_16
REMARK                            x       y       z     vdW  Elec       q    Type
REMARK                         _______ _______ _______ _____ _____    ______ ____
ROOT
ATOM      1  C   UNL     1      -4.484   4.697   5.781  0.00  0.00    -0.011 C 
ATOM      2  C   UNL     1      -2.963   4.597   5.650  0.00  0.00    +0.006 C 
ATOM      3  C   UNL     1      -2.601   4.202   4.216  0.00  0.00    +0.035 C 
ATOM      4  C   UNL     1      -3.145   5.245   3.247  0.00  0.00    +0.113 C 
ATOM      5  C   UNL     1      -4.659   5.371   3.382  0.00  0.00    +0.035 C 
ATOM      6  C   UNL     1      -5.013   5.762   4.819  0.00  0.00    +0.006 C 
ATOM      7  C   UNL     1      -2.774   4.896   1.824  0.00  0.00    +0.247 C 
ATOM      8  O   UNL     1      -3.095   3.904   1.204  0.00  0.00    -0.273 OA
ATOM      9  N   UNL     1      -2.010   5.919   1.389  0.00  0.00    -0.220 N 
ATOM     10  C   UNL     1      -1.859   6.857   2.332  0.00  0.00    +0.310 C 
ATOM     11  O   UNL     1      -1.215   7.876   2.175  0.00  0.00    -0.252 OA
ATOM     12  N   UNL     1      -2.499   6.544   3.475  0.00  0.00    -0.285 N 
ATOM     13  H   UNL     1      -2.607   7.049   4.446  0.00  0.00    +0.151 HD
ENDROOT
BRANCH   1  15
ATOM     14  C   UNL     1      -6.368   5.059   7.381  0.00  0.00    +0.004 C 
ATOM     15  C   UNL     1      -4.847   5.081   7.217  0.00  0.00    -0.000 C 
ENDBRANCH   1  15
BRANCH   9  16
ATOM     16  C   UNL     1      -1.422   5.996   0.049  0.00  0.00    +0.153 C 
BRANCH  16  17
ATOM     17  C   UNL     1      -0.105   5.265   0.035  0.00  0.00    -0.022 A 
ATOM     18  C   UNL     1       0.412   4.765   1.190  0.00  0.00    +0.006 A 
ATOM     19  C   UNL     1       1.629   4.085   1.197  0.00  0.00    +0.001 A 
ATOM     20  C   UNL     1       2.335   3.901   0.047  0.00  0.00    +0.008 A 
ATOM     21  C   UNL     1       1.833   4.403  -1.165  0.00  0.00    -0.018 A 
ATOM     22  C   UNL     1       0.595   5.095  -1.171  0.00  0.00    -0.013 A 
ATOM     23  C   UNL     1       0.093   5.598  -2.384  0.00  0.00    +0.009 A 
ATOM     24  C   UNL     1       0.802   5.419  -3.532  0.00  0.00    +0.001 A 
ATOM     25  C   UNL     1       2.016   4.734  -3.526  0.00  0.00    +0.001 A 
ATOM     26  C   UNL     1       2.533   4.233  -2.372  0.00  0.00    +0.008 A 
ENDBRANCH  16  17
ENDBRANCH   9  16
TORSDOF 3
