REMARK  Name = ZINC42107159
REMARK  4 active torsions:
REMARK  status: ('A' for Active; 'I' for Inactive)
REMARK    1  A    between atoms: C_1  and  C_2
REMARK    2  A    between atoms: C_5  and  C_21
REMARK    3  A    between atoms: C_8  and  N_13
REMARK    4  A    between atoms: N_13  and  C_14
REMARK                            x       y       z     vdW  Elec       q    Type
REMARK                         _______ _______ _______ _____ _____    ______ ____
ROOT
ATOM      1  C   UNL     1      -0.018   1.503   0.010  0.00  0.00    +0.044 C 
ATOM      2  C   UNL     1       0.002  -0.004   0.002  0.00  0.00    -0.043 A 
ATOM      3  C   UNL     1       0.006  -0.691  -1.200  0.00  0.00    +0.004 A 
ATOM      4  C   UNL     1       0.025  -2.073  -1.202  0.00  0.00    +0.005 A 
ATOM      5  C   UNL     1       0.040  -2.773  -0.013  0.00  0.00    -0.029 A 
ATOM      6  C   UNL     1       0.036  -2.089   1.200  0.00  0.00    +0.042 A 
ATOM      7  C   UNL     1       0.023  -0.700   1.190  0.00  0.00    +0.006 A 
ATOM      8  C   UNL     1       0.030  -0.263   2.636  0.00  0.00    +0.190 C 
ATOM      9  C   UNL     1       0.055  -1.562   3.413  0.00  0.00    +0.242 C 
ATOM     10  O   UNL     1       0.068  -1.680   4.620  0.00  0.00    -0.273 OA
ATOM     11  N   UNL     1       0.048  -2.561   2.514  0.00  0.00    -0.283 N 
ATOM     12  C   UNL     1       0.061  -4.279  -0.028  0.00  0.00    +0.045 C 
ATOM     13  H   UNL     1       0.061  -3.501   2.750  0.00  0.00    +0.155 HD
ENDROOT
BRANCH   8  14
ATOM     14  N   UNL     1       1.224   0.535   2.926  0.00  0.00    -0.329 N 
ATOM     15  H   UNL     1       2.024   0.423   2.388  0.00  0.00    +0.147 HD
BRANCH  14  16
ATOM     16  C   UNL     1       1.212   1.455   3.977  0.00  0.00    +0.028 A 
ATOM     17  C   UNL     1       0.070   1.612   4.751  0.00  0.00    +0.024 A 
ATOM     18  C   UNL     1       0.060   2.523   5.789  0.00  0.00    +0.016 A 
ATOM     19  C   UNL     1       1.187   3.280   6.057  0.00  0.00    +0.013 A 
ATOM     20  C   UNL     1       2.326   3.126   5.288  0.00  0.00    +0.016 A 
ATOM     21  C   UNL     1       2.343   2.212   4.252  0.00  0.00    +0.024 A 
ATOM     22  I   UNL     1       1.167   4.661   7.632  0.00  0.00    -0.044 I 
ENDBRANCH  14  16
ENDBRANCH   8  14
TORSDOF 2
