REMARK  Name = ZINC36812720
REMARK  8 active torsions:
REMARK  status: ('A' for Active; 'I' for Inactive)
REMARK    1  A    between atoms: C_1  and  C_2
REMARK    2  A    between atoms: C_2  and  C_21
REMARK    3  A    between atoms: N_5  and  N_9
REMARK    4  A    between atoms: C_10  and  C_12
REMARK    5  A    between atoms: C_12  and  S_13
REMARK    6  A    between atoms: S_13  and  C_14
REMARK    7  A    between atoms: C_17  and  S_19
REMARK    8  A    between atoms: S_19  and  C_20
REMARK                            x       y       z     vdW  Elec       q    Type
REMARK                         _______ _______ _______ _____ _____    ______ ____
ROOT
ATOM      1  C   UNL     1      -0.019   1.526   0.010  0.00  0.00    +0.047 C 
ATOM      2  C   UNL     1       0.002  -0.004   0.002  0.00  0.00    +0.137 C 
ATOM      3  C   UNL     1      -1.403  -0.557   0.139  0.00  0.00    +0.267 C 
ATOM      4  O   UNL     1      -2.332  -0.392  -0.621  0.00  0.00    -0.271 OA
ATOM      5  N   UNL     1      -1.403  -1.272   1.282  0.00  0.00    -0.137 N 
ATOM      6  C   UNL     1      -0.206  -1.247   1.879  0.00  0.00    +0.327 C 
ATOM      7  O   UNL     1       0.040  -1.819   2.924  0.00  0.00    -0.251 OA
ATOM      8  N   UNL     1       0.695  -0.520   1.195  0.00  0.00    -0.280 N 
ATOM      9  H   UNL     1       1.621  -0.365   1.440  0.00  0.00    +0.152 HD
ENDROOT
BRANCH   2  10
ATOM     10  C   UNL     1       0.657  -0.517  -1.255  0.00  0.00    -0.015 A 
ATOM     11  C   UNL     1      -0.107  -0.772  -2.378  0.00  0.00    +0.006 A 
ATOM     12  C   UNL     1       0.493  -1.242  -3.530  0.00  0.00    +0.000 A 
ATOM     13  C   UNL     1       1.859  -1.457  -3.560  0.00  0.00    +0.000 A 
ATOM     14  C   UNL     1       2.623  -1.202  -2.437  0.00  0.00    +0.000 A 
ATOM     15  C   UNL     1       2.023  -0.727  -1.286  0.00  0.00    +0.006 A 
ENDBRANCH   2  10
BRANCH   5  16
ATOM     16  N   UNL     1      -2.518  -1.955   1.783  0.00  0.00    -0.223 N 
ATOM     17  C   UNL     1      -2.586  -3.298   1.684  0.00  0.00    +0.240 C 
ATOM     18  O   UNL     1      -1.682  -3.914   1.162  0.00  0.00    -0.273 OA
ATOM     19  H   UNL     1      -3.242  -1.462   2.200  0.00  0.00    +0.174 HD
BRANCH  17  20
ATOM     20  C   UNL     1      -3.787  -4.033   2.223  0.00  0.00    +0.173 C 
BRANCH  20  21
ATOM     21  S   UNL     1      -3.581  -5.813   1.942  0.00  0.00    -0.088 S 
BRANCH  21  22
ATOM     22  C   UNL     1      -5.046  -6.523   2.618  0.00  0.00    +0.160 A 
ATOM     23  N   UNL     1      -6.074  -5.929   3.193  0.00  0.00    -0.134 NA
ATOM     24  N   UNL     1      -7.128  -6.683   3.656  0.00  0.00    -0.134 NA
ATOM     25  C   UNL     1      -7.105  -7.995   3.522  0.00  0.00    +0.159 A 
ATOM     26  S   UNL     1      -5.539  -8.238   2.699  0.00  0.00    -0.033 S 
BRANCH  25  27
ATOM     27  S   UNL     1      -8.304  -9.188   4.017  0.00  0.00    -0.100 S 
ATOM     28  C   UNL     1      -9.621  -8.198   4.776  0.00  0.00    +0.092 C 
ENDBRANCH  25  27
ENDBRANCH  21  22
ENDBRANCH  20  21
ENDBRANCH  17  20
ENDBRANCH   5  16
TORSDOF 6
