REMARK  Name = ZINC20701826
REMARK  7 active torsions:
REMARK  status: ('A' for Active; 'I' for Inactive)
REMARK    1  A    between atoms: C_1  and  C_2
REMARK    2  A    between atoms: C_2  and  C_3
REMARK    3  A    between atoms: C_3  and  C_4
REMARK    4  A    between atoms: C_4  and  N_5
REMARK    5  A    between atoms: C_6  and  C_8
REMARK    6  A    between atoms: C_15  and  C_24
REMARK    7  A    between atoms: C_29  and  O_30
REMARK                            x       y       z     vdW  Elec       q    Type
REMARK                         _______ _______ _______ _____ _____    ______ ____
ROOT
ATOM      1  C   UNL     1       3.713  -2.951  -1.697  0.00  0.00    +0.058 A 
ATOM      2  C   UNL     1       2.868  -4.048  -1.847  0.00  0.00    +0.015 A 
ATOM      3  C   UNL     1       1.564  -3.980  -1.408  0.00  0.00    +0.001 A 
ATOM      4  C   UNL     1       1.097  -2.821  -0.811  0.00  0.00    +0.006 A 
ATOM      5  C   UNL     1       1.920  -1.729  -0.648  0.00  0.00    -0.019 A 
ATOM      6  C   UNL     1       3.244  -1.764  -1.096  0.00  0.00    +0.044 A 
ATOM      7  N   UNL     1       4.124  -0.699  -1.008  0.00  0.00    -0.336 N 
ATOM      8  C   UNL     1       3.647   0.503  -0.308  0.00  0.00    +0.109 C 
ATOM      9  C   UNL     1       2.194   0.695  -0.692  0.00  0.00    +0.029 C 
ATOM     10  C   UNL     1       1.446  -0.487   0.001  0.00  0.00    +0.049 C 
ATOM     11  C   UNL     1       0.028  -0.053  -0.034  0.00  0.00    -0.023 C 
ATOM     12  C   UNL     1      -0.008   1.275  -0.026  0.00  0.00    -0.030 C 
ATOM     13  C   UNL     1       1.417   1.835  -0.023  0.00  0.00    +0.033 C 
ATOM     14  H   UNL     1       5.139  -0.722  -1.433  0.00  0.00    +0.147 HD
ENDROOT
BRANCH   8  15
ATOM     15  C   UNL     1       3.763   0.310   1.182  0.00  0.00    +0.017 A 
ATOM     16  C   UNL     1       3.742  -0.964   1.718  0.00  0.00    +0.029 A 
ATOM     17  C   UNL     1       3.849  -1.142   3.085  0.00  0.00    +0.043 A 
ATOM     18  C   UNL     1       3.976  -0.046   3.920  0.00  0.00    +0.043 A 
ATOM     19  C   UNL     1       3.998   1.230   3.389  0.00  0.00    +0.084 A 
ATOM     20  C   UNL     1       3.897   1.410   2.016  0.00  0.00    +0.140 A 
ATOM     21 CL   UNL     1       4.159   2.605   4.436  0.00  0.00    -0.080 Cl
ATOM     22 CL   UNL     1       3.822  -2.743   3.755  0.00  0.00    -0.083 Cl
BRANCH  20  23
ATOM     23  O   UNL     1       3.924   2.663   1.490  0.00  0.00    -0.505 OA
ATOM     24  H   UNL     1       4.030   3.535   2.152  0.00  0.00    +0.292 HD
ENDBRANCH  20  23
ENDBRANCH   8  15
BRANCH   1  26
ATOM     25  N   UNL     1       5.561  -4.162  -2.744  0.00  0.00    -0.311 N 
ATOM     26  C   UNL     1       5.108  -3.031  -2.169  0.00  0.00    +0.246 C 
ATOM     27  O   UNL     1       5.849  -2.076  -2.039  0.00  0.00    -0.270 OA
ATOM     28  H   UNL     1       4.890  -5.027  -2.861  0.00  0.00    +0.149 HD
BRANCH  25  29
ATOM     29  C   UNL     1       6.946  -4.242  -3.213  0.00  0.00    +0.104 C 
BRANCH  29  30
ATOM     30  C   UNL     1       7.201  -5.623  -3.820  0.00  0.00    +0.018 C 
BRANCH  30  32
ATOM     31  C   UNL     1       8.902  -7.087  -4.917  0.00  0.00    +0.004 C 
ATOM     32  C   UNL     1       8.648  -5.706  -4.310  0.00  0.00    -0.002 C 
ENDBRANCH  30  32
ENDBRANCH  29  30
ENDBRANCH  25  29
ENDBRANCH   1  26
TORSDOF 6
