REMARK  Name = ZINC40782387
REMARK  8 active torsions:
REMARK  status: ('A' for Active; 'I' for Inactive)
REMARK    1  A    between atoms: C_1  and  C_2
REMARK    2  A    between atoms: C_2  and  C_3
REMARK    3  A    between atoms: C_2  and  C_4
REMARK    4  A    between atoms: C_2  and  N_5
REMARK    5  A    between atoms: N_5  and  N_6
REMARK    6  A    between atoms: C_8  and  N_21
REMARK    7  A    between atoms: C_9  and  N_13
REMARK    8  A    between atoms: N_13  and  C_14
REMARK                            x       y       z     vdW  Elec       q    Type
REMARK                         _______ _______ _______ _____ _____    ______ ____
ROOT
ATOM      1  N   UNL     1       1.854   0.297  -1.486  0.00  0.00    -0.263 N 
ATOM      2  C   UNL     1       2.741  -0.208  -2.429  0.00  0.00    +0.158 A 
ATOM      3  C   UNL     1       4.055   0.262  -2.490  0.00  0.00    +0.107 A 
ATOM      4  C   UNL     1       4.904  -0.280  -3.456  0.00  0.00    +0.149 A 
ATOM      5  N   UNL     1       4.433  -1.217  -4.277  0.00  0.00    -0.219 NA
ATOM      6  C   UNL     1       3.186  -1.632  -4.185  0.00  0.00    +0.225 A 
ATOM      7  N   UNL     1       2.354  -1.151  -3.284  0.00  0.00    -0.218 NA
ATOM      8  H   UNL     1       2.145   0.984  -0.867  0.00  0.00    +0.168 HD
ENDROOT
BRANCH   3   9
ATOM      9  N   UNL     1       4.509   1.252  -1.604  0.00  0.00    -0.353 N 
ATOM     10  H   UNL     1       3.907   1.619  -0.938  0.00  0.00    +0.143 HD
ATOM     11  H   UNL     1       5.424   1.569  -1.659  0.00  0.00    +0.143 HD
ENDBRANCH   3   9
BRANCH   1  12
ATOM     12  N   UNL     1       0.573  -0.174  -1.432  0.00  0.00    -0.236 NA
ATOM     13  H   UNL     1       0.561  -1.176  -1.312  0.00  0.00    +0.145 HD
BRANCH  12  15
ATOM     14  C   UNL     1      -0.231   1.999  -0.638  0.00  0.00    +0.029 C 
ATOM     15  C   UNL     1      -0.189   0.493  -0.368  0.00  0.00    +0.028 C 
ATOM     16  C   UNL     1       0.486   0.236   0.981  0.00  0.00    +0.029 C 
ATOM     17  C   UNL     1      -1.615  -0.059  -0.339  0.00  0.00    +0.029 C 
ENDBRANCH  12  15
ENDBRANCH   1  12
BRANCH   4  18
ATOM     18  N   UNL     1       6.222   0.152  -3.561  0.00  0.00    -0.298 N 
ATOM     19  H   UNL     1       6.581   0.773  -2.908  0.00  0.00    +0.154 HD
BRANCH  18  20
ATOM     20  C   UNL     1       7.027  -0.307  -4.606  0.00  0.00    +0.032 A 
ATOM     21  C   UNL     1       8.380  -0.539  -4.392  0.00  0.00    +0.024 A 
ATOM     22  C   UNL     1       9.174  -0.993  -5.427  0.00  0.00    +0.016 A 
ATOM     23  C   UNL     1       8.623  -1.218  -6.676  0.00  0.00    +0.013 A 
ATOM     24  C   UNL     1       7.276  -0.989  -6.892  0.00  0.00    +0.016 A 
ATOM     25  C   UNL     1       6.476  -0.540  -5.860  0.00  0.00    +0.024 A 
ATOM     26  I   UNL     1       9.831  -1.907  -8.243  0.00  0.00    -0.044 I 
ENDBRANCH  18  20
ENDBRANCH   4  18
TORSDOF 5
