REMARK  Name = ZINC01371552
REMARK  8 active torsions:
REMARK  status: ('A' for Active; 'I' for Inactive)
REMARK    1  A    between atoms: C_1  and  C_2
REMARK    2  A    between atoms: C_4  and  C_32
REMARK    3  A    between atoms: C_9  and  C_14
REMARK    4  A    between atoms: C_14  and  N_15
REMARK    5  A    between atoms: N_15  and  C_16
REMARK    6  A    between atoms: C_16  and  C_17
REMARK    7  A    between atoms: N_24  and  C_25
REMARK    8  A    between atoms: C_25  and  C_26
REMARK                            x       y       z     vdW  Elec       q    Type
REMARK                         _______ _______ _______ _____ _____    ______ ____
ROOT
ATOM      1  N   UNL     1      -1.487   7.921  -1.319  0.00  0.00    -0.276 N 
ATOM      2  C   UNL     1      -0.398   8.200  -2.063  0.00  0.00    +0.303 C 
ATOM      3  O   UNL     1       0.714   8.045  -1.595  0.00  0.00    -0.253 OA
ATOM      4  N   UNL     1      -0.541   8.650  -3.325  0.00  0.00    -0.295 N 
ATOM      5  H   UNL     1      -1.428   8.773  -3.699  0.00  0.00    +0.151 HD
ENDROOT
BRANCH   1   6
ATOM      6  C   UNL     1      -1.331   7.432   0.053  0.00  0.00    +0.150 C 
BRANCH   6  15
ATOM      7  C   UNL     1       2.491   1.029  -0.016  0.00  0.00    +0.044 C 
ATOM      8  C   UNL     1       1.185   1.779   0.000  0.00  0.00    -0.050 A 
ATOM      9  C   UNL     1      -0.013   1.076   0.008  0.00  0.00    +0.008 A 
ATOM     10  C   UNL     1      -1.219   1.741   0.017  0.00  0.00    -0.026 A 
ATOM     11  C   UNL     1      -1.240   3.132   0.031  0.00  0.00    +0.052 A 
ATOM     12  C   UNL     1      -0.025   3.842   0.023  0.00  0.00    -0.001 A 
ATOM     13  C   UNL     1       1.188   3.145   0.008  0.00  0.00    +0.013 A 
ATOM     14  C   UNL     1      -0.057   5.306   0.031  0.00  0.00    +0.020 A 
ATOM     15  C   UNL     1      -1.263   5.926   0.045  0.00  0.00    +0.035 A 
ATOM     16  C   UNL     1      -2.453   5.168   0.052  0.00  0.00    +0.254 A 
ATOM     17  O   UNL     1      -3.526   5.746   0.065  0.00  0.00    -0.268 OA
ATOM     18  N   UNL     1      -2.433   3.824   0.045  0.00  0.00    -0.322 N 
ATOM     19  H   UNL     1      -3.270   3.333   0.050  0.00  0.00    +0.169 HD
ATOM     20  C   UNL     1      -2.511   0.965   0.019  0.00  0.00    +0.046 C 
ENDBRANCH   6  15
ENDBRANCH   1   6
BRANCH   1  21
ATOM     21  C   UNL     1      -2.826   8.107  -1.883  0.00  0.00    +0.152 C 
BRANCH  21  22
ATOM     22  C   UNL     1      -3.301   9.509  -1.598  0.00  0.00    +0.007 A 
ATOM     23  C   UNL     1      -3.139  10.633  -2.338  0.00  0.00    +0.013 A 
ATOM     24  C   UNL     1      -3.669  11.822  -1.876  0.00  0.00    +0.008 A 
ATOM     25  C   UNL     1      -4.327  11.832  -0.691  0.00  0.00    +0.045 A 
ATOM     26  S   UNL     1      -4.217  10.121  -0.193  0.00  0.00    -0.100 S 
ENDBRANCH  21  22
ENDBRANCH   1  21
BRANCH   4  27
ATOM     27  C   UNL     1       0.643   8.953  -4.133  0.00  0.00    +0.141 C 
BRANCH  27  28
ATOM     28  C   UNL     1       0.212   9.435  -5.494  0.00  0.00    -0.030 A 
ATOM     29  C   UNL     1       0.033   8.530  -6.524  0.00  0.00    +0.005 A 
ATOM     30  C   UNL     1      -0.367   8.972  -7.771  0.00  0.00    +0.000 A 
ATOM     31  C   UNL     1      -0.579  10.320  -7.992  0.00  0.00    +0.000 A 
ATOM     32  C   UNL     1      -0.394  11.226  -6.964  0.00  0.00    +0.000 A 
ATOM     33  C   UNL     1       0.001  10.783  -5.715  0.00  0.00    +0.005 A 
ENDBRANCH  27  28
ENDBRANCH   4  27
TORSDOF 6
