REMARK  Name = ZINC35993564
REMARK  13 active torsions:
REMARK  status: ('A' for Active; 'I' for Inactive)
REMARK    1  A    between atoms: C_1  and  C_2
REMARK    2  A    between atoms: C_2  and  C_4
REMARK    3  A    between atoms: C_2  and  N_15
REMARK    4  A    between atoms: N_15  and  C_16
REMARK    5  A    between atoms: C_16  and  C_17
REMARK    6  A    between atoms: C_17  and  C_18
REMARK    7  A    between atoms: C_18  and  C_19
REMARK    8  A    between atoms: C_19  and  C_20
REMARK    9  A    between atoms: C_20  and  C_21
REMARK   10  A    between atoms: C_21  and  N_22
REMARK   11  A    between atoms: N_22  and  C_23
REMARK   12  A    between atoms: C_23  and  C_25
REMARK   13  A    between atoms: C_23  and  C_26
REMARK                            x       y       z     vdW  Elec       q    Type
REMARK                         _______ _______ _______ _____ _____    ______ ____
ROOT
ATOM      1  C   UNL     1       4.330  -0.164   2.288  0.00  0.00    -0.002 C 
ENDROOT
BRANCH   1   2
ATOM      2  C   UNL     1       2.862  -0.589   2.361  0.00  0.00    -0.019 C 
BRANCH   2   3
ATOM      3  C   UNL     1       2.122  -0.083   1.122  0.00  0.00    -0.082 C 
BRANCH   3   4
ATOM      4  N   UNL     1       0.713  -0.491   1.192  0.00  0.00    +0.383 N 
ATOM      5  H   UNL     1       0.290  -0.099   2.020  0.00  0.00    -0.085 HD
ATOM      6  H   UNL     1       0.655  -1.497   1.230  0.00  0.00    -0.085 HD
BRANCH   4   8
ATOM      7  C   UNL     1      -0.019   1.526   0.010  0.00  0.00    -0.010 C 
ATOM      8  C   UNL     1       0.002  -0.004   0.002  0.00  0.00    -0.030 C 
BRANCH   8   9
ATOM      9  C   UNL     1      -1.433  -0.534   0.013  0.00  0.00    +0.197 C 
ATOM     10  C   UNL     1      -1.420  -2.063   0.145  0.00  0.00    +0.272 C 
ATOM     11  O   UNL     1      -2.776  -2.523   0.166  0.00  0.00    -0.485 OA
ATOM     12  C   UNL     1      -3.637  -1.851   0.978  0.00  0.00    +0.162 A 
ATOM     13  C   UNL     1      -4.843  -2.440   1.328  0.00  0.00    +0.049 A 
ATOM     14  C   UNL     1      -5.729  -1.769   2.149  0.00  0.00    +0.004 A 
ATOM     15  C   UNL     1      -5.416  -0.509   2.624  0.00  0.00    +0.004 A 
ATOM     16  C   UNL     1      -4.215   0.083   2.281  0.00  0.00    +0.049 A 
ATOM     17  C   UNL     1      -3.321  -0.585   1.458  0.00  0.00    +0.162 A 
ATOM     18  O   UNL     1      -2.139   0.008   1.135  0.00  0.00    -0.483 OA
ENDBRANCH   8   9
ENDBRANCH   4   8
ENDBRANCH   3   4
ENDBRANCH   2   3
ENDBRANCH   1   2
BRANCH   1  19
ATOM     19  C   UNL     1       5.070  -0.671   3.528  0.00  0.00    -0.002 C 
BRANCH  19  20
ATOM     20  C   UNL     1       6.538  -0.246   3.455  0.00  0.00    -0.019 C 
BRANCH  20  21
ATOM     21  C   UNL     1       7.278  -0.753   4.695  0.00  0.00    -0.082 C 
BRANCH  21  22
ATOM     22  N   UNL     1       8.687  -0.345   4.625  0.00  0.00    +0.383 N 
ATOM     23  H   UNL     1       9.110  -0.737   3.796  0.00  0.00    -0.085 HD
ATOM     24  H   UNL     1       8.744   0.662   4.587  0.00  0.00    -0.085 HD
BRANCH  22  25
ATOM     25  C   UNL     1       9.398  -0.831   5.815  0.00  0.00    -0.030 C 
ATOM     26  C   UNL     1       9.418  -2.361   5.806  0.00  0.00    -0.010 C 
BRANCH  25  27
ATOM     27  C   UNL     1      10.833  -0.302   5.804  0.00  0.00    +0.197 C 
ATOM     28  C   UNL     1      10.819   1.233   5.798  0.00  0.00    +0.272 C 
ATOM     29  O   UNL     1      12.174   1.694   5.773  0.00  0.00    -0.485 OA
ATOM     30  C   UNL     1      13.009   1.091   4.883  0.00  0.00    +0.162 A 
ATOM     31  C   UNL     1      14.205   1.708   4.547  0.00  0.00    +0.049 A 
ATOM     32  C   UNL     1      15.065   1.107   3.647  0.00  0.00    +0.004 A 
ATOM     33  C   UNL     1      14.736  -0.111   3.081  0.00  0.00    +0.004 A 
ATOM     34  C   UNL     1      13.545  -0.730   3.411  0.00  0.00    +0.049 A 
ATOM     35  C   UNL     1      12.677  -0.131   4.311  0.00  0.00    +0.162 A 
ATOM     36  O   UNL     1      11.504  -0.750   4.621  0.00  0.00    -0.483 OA
ENDBRANCH  25  27
ENDBRANCH  22  25
ENDBRANCH  21  22
ENDBRANCH  20  21
ENDBRANCH  19  20
ENDBRANCH   1  19
TORSDOF 11
