REMARK  Name = ZINC39687096
REMARK  9 active torsions:
REMARK  status: ('A' for Active; 'I' for Inactive)
REMARK    1  A    between atoms: C_1  and  C_2
REMARK    2  A    between atoms: C_5  and  O_8
REMARK    3  A    between atoms: O_8  and  C_9
REMARK    4  A    between atoms: C_10  and  C_15
REMARK    5  A    between atoms: C_19  and  C_28
REMARK    6  A    between atoms: N_30  and  C_31
REMARK    7  A    between atoms: C_31  and  C_33
REMARK    8  A    between atoms: C_31  and  C_34
REMARK    9  A    between atoms: C_34  and  C_35
REMARK                            x       y       z     vdW  Elec       q    Type
REMARK                         _______ _______ _______ _____ _____    ______ ____
ROOT
ATOM      1  C   UNL     1       0.284  -6.854  -0.109  0.00  0.00    +0.252 C 
ATOM      2  O   UNL     1       0.248  -6.280  -1.181  0.00  0.00    -0.270 OA
ATOM      3  N   UNL     1       0.311  -8.201  -0.067  0.00  0.00    -0.296 N 
ATOM      4  C   UNL     1       0.427  -9.070   1.127  0.00  0.00    +0.121 C 
ATOM      5  C   UNL     1      -0.526 -10.253   0.843  0.00  0.00    +0.100 C 
ATOM      6  C   UNL     1      -0.649 -10.299  -0.689  0.00  0.00    -0.004 C 
ATOM      7  C   UNL     1       0.226  -9.147  -1.205  0.00  0.00    +0.115 C 
ATOM      8  C   UNL     1      -2.099 -10.082  -1.110  0.00  0.00    -0.010 C 
ATOM      9  C   UNL     1      -2.204 -10.189  -2.634  0.00  0.00    -0.082 C 
ATOM     10  N   UNL     1      -1.741 -11.513  -3.066  0.00  0.00    +0.379 N 
ATOM     11  C   UNL     1      -0.320 -11.678  -2.740  0.00  0.00    -0.082 C 
ATOM     12  C   UNL     1      -0.134 -11.633  -1.220  0.00  0.00    -0.010 C 
ATOM     13  H   UNL     1      -2.278 -12.226  -2.595  0.00  0.00    -0.086 HD
ATOM     14  H   UNL     1      -1.869 -11.604  -4.063  0.00  0.00    -0.086 HD
ENDROOT
BRANCH   1  16
ATOM     15  C   UNL     1      -0.432  -4.883   1.252  0.00  0.00    +0.233 A 
ATOM     16  C   UNL     1       0.297  -6.077   1.144  0.00  0.00    +0.099 A 
ATOM     17  C   UNL     1       1.037  -6.517   2.248  0.00  0.00    +0.020 A 
ATOM     18  C   UNL     1       1.016  -5.752   3.400  0.00  0.00    +0.021 A 
ATOM     19  C   UNL     1       0.273  -4.586   3.430  0.00  0.00    +0.114 A 
ATOM     20  N   UNL     1      -0.414  -4.186   2.376  0.00  0.00    -0.220 NA
BRANCH  15  21
ATOM     21  O   UNL     1      -1.156  -4.438   0.197  0.00  0.00    -0.437 OA
BRANCH  21  26
ATOM     22  C   UNL     1      -3.658   0.589   0.636  0.00  0.00    +0.044 C 
ATOM     23  C   UNL     1      -2.989  -0.756   0.518  0.00  0.00    -0.050 A 
ATOM     24  C   UNL     1      -1.609  -0.842   0.514  0.00  0.00    +0.007 A 
ATOM     25  C   UNL     1      -0.992  -2.074   0.407  0.00  0.00    +0.046 A 
ATOM     26  C   UNL     1      -1.760  -3.225   0.303  0.00  0.00    +0.130 A 
ATOM     27  C   UNL     1      -3.144  -3.136   0.308  0.00  0.00    +0.046 A 
ATOM     28  C   UNL     1      -3.755  -1.903   0.421  0.00  0.00    +0.007 A 
ENDBRANCH  21  26
ENDBRANCH  15  21
ENDBRANCH   1  16
BRANCH   5  29
ATOM     29  C   UNL     1       0.063 -11.538   1.364  0.00  0.00    +0.218 C 
ATOM     30  O   UNL     1       1.264 -11.648   1.489  0.00  0.00    -0.275 OA
ATOM     31  N   UNL     1      -0.746 -12.566   1.691  0.00  0.00    -0.312 N 
ATOM     32  H   UNL     1      -1.706 -12.478   1.591  0.00  0.00    +0.149 HD
BRANCH  31  33
ATOM     33  C   UNL     1      -0.173 -13.816   2.198  0.00  0.00    +0.074 C 
ATOM     34  C   UNL     1       0.236 -14.703   1.020  0.00  0.00    +0.028 C 
BRANCH  33  35
ATOM     35  C   UNL     1      -1.214 -14.545   3.049  0.00  0.00    +0.060 C 
BRANCH  35  36
ATOM     36  C   UNL     1      -1.525 -13.725   4.274  0.00  0.00    -0.010 A 
ATOM     37  C   UNL     1      -0.858 -13.971   5.459  0.00  0.00    +0.006 A 
ATOM     38  C   UNL     1      -1.144 -13.218   6.583  0.00  0.00    +0.000 A 
ATOM     39  C   UNL     1      -2.097 -12.218   6.523  0.00  0.00    +0.003 A 
ATOM     40  C   UNL     1      -2.765 -11.970   5.339  0.00  0.00    +0.038 A 
ATOM     41  C   UNL     1      -2.476 -12.720   4.211  0.00  0.00    +0.127 A 
ATOM     42  F   UNL     1      -3.125 -12.475   3.052  0.00  0.00    -0.205 F 
ENDBRANCH  35  36
ENDBRANCH  33  35
ENDBRANCH  31  33
ENDBRANCH   5  29
TORSDOF 7
