REMARK  Name = ZINC64789836
REMARK  5 active torsions:
REMARK  status: ('A' for Active; 'I' for Inactive)
REMARK    1  A    between atoms: C_1  and  C_2
REMARK    2  A    between atoms: C_2  and  C_3
REMARK    3  A    between atoms: C_2  and  C_4
REMARK    4  A    between atoms: C_12  and  C_23
REMARK    5  A    between atoms: C_15  and  C_17
REMARK                            x       y       z     vdW  Elec       q    Type
REMARK                         _______ _______ _______ _____ _____    ______ ____
ROOT
ATOM      1  C   UNL     1       0.707  -0.490  -1.238  0.00  0.00    +0.222 C 
ATOM      2  O   UNL     1       0.120  -1.191  -2.034  0.00  0.00    -0.275 OA
ATOM      3  N   UNL     1       1.991  -0.146  -1.462  0.00  0.00    -0.253 N 
ATOM      4  C   UNL     1       2.646  -0.597  -2.612  0.00  0.00    +0.242 A 
ATOM      5  N   UNL     1       2.101  -1.366  -3.561  0.00  0.00    -0.176 NA
ATOM      6  C   UNL     1       2.987  -1.607  -4.496  0.00  0.00    +0.251 A 
ATOM      7  N   UNL     1       4.142  -0.964  -4.145  0.00  0.00    -0.220 N 
ATOM      8  N   UNL     1       3.894  -0.326  -2.934  0.00  0.00    -0.131 NA
ATOM      9  C   UNL     1       5.348  -0.999  -4.973  0.00  0.00    +0.147 C 
ATOM     10  C   UNL     1       5.352  -2.324  -5.746  0.00  0.00    +0.087 C 
ATOM     11  C   UNL     1       3.985  -2.640  -6.283  0.00  0.00    +0.055 C 
ATOM     12  N   UNL     1       2.889  -2.319  -5.650  0.00  0.00    -0.215 NA
ATOM     13  H   UNL     1       2.461   0.415  -0.825  0.00  0.00    +0.158 HD
ENDROOT
BRANCH   9  14
ATOM     14  C   UNL     1       6.571  -0.915  -4.097  0.00  0.00    -0.023 A 
ATOM     15  C   UNL     1       6.804  -1.886  -3.142  0.00  0.00    +0.007 A 
ATOM     16  C   UNL     1       7.926  -1.810  -2.338  0.00  0.00    +0.020 A 
ATOM     17  C   UNL     1       8.815  -0.761  -2.489  0.00  0.00    +0.041 A 
ATOM     18  C   UNL     1       8.581   0.211  -3.446  0.00  0.00    +0.020 A 
ATOM     19  C   UNL     1       7.462   0.130  -4.253  0.00  0.00    +0.007 A 
ATOM     20 CL   UNL     1      10.224  -0.663  -1.480  0.00  0.00    -0.084 Cl
ENDBRANCH   9  14
BRANCH  11  21
ATOM     21  C   UNL     1       3.877  -3.340  -7.573  0.00  0.00    -0.004 A 
ATOM     22  C   UNL     1       5.031  -3.703  -8.275  0.00  0.00    +0.010 A 
ATOM     23  C   UNL     1       4.921  -4.359  -9.483  0.00  0.00    +0.001 A 
ATOM     24  C   UNL     1       3.673  -4.657 -10.002  0.00  0.00    +0.000 A 
ATOM     25  C   UNL     1       2.527  -4.300  -9.314  0.00  0.00    +0.001 A 
ATOM     26  C   UNL     1       2.620  -3.650  -8.102  0.00  0.00    +0.010 A 
ENDBRANCH  11  21
BRANCH   1  28
ATOM     27  C   UNL     1      -0.019   1.526   0.010  0.00  0.00    +0.017 C 
ATOM     28  C   UNL     1       0.002  -0.004   0.002  0.00  0.00    +0.069 C 
ATOM     29  C   UNL     1      -1.433  -0.534   0.013  0.00  0.00    +0.017 C 
ENDBRANCH   1  28
TORSDOF 3
