REMARK  Name = ZINC43455946
REMARK  4 active torsions:
REMARK  status: ('A' for Active; 'I' for Inactive)
REMARK    1  A    between atoms: C_6  and  C_7
REMARK    2  A    between atoms: C_7  and  C_8
REMARK    3  A    between atoms: C_8  and  N_9
REMARK    4  A    between atoms: N_12  and  C_13
REMARK                            x       y       z     vdW  Elec       q    Type
REMARK                         _______ _______ _______ _____ _____    ______ ____
ROOT
ATOM      1  N   UNL     1      -2.996  -1.790  -1.422  0.00  0.00    -0.299 N 
ATOM      2  C   UNL     1      -3.591  -2.120  -2.585  0.00  0.00    +0.304 C 
ATOM      3  O   UNL     1      -3.081  -1.800  -3.642  0.00  0.00    -0.253 OA
ATOM      4  N   UNL     1      -4.753  -2.804  -2.577  0.00  0.00    -0.268 N 
ATOM      5  H   UNL     1      -3.402  -2.045  -0.580  0.00  0.00    +0.150 HD
ATOM      6  H   UNL     1      -5.126  -3.116  -1.738  0.00  0.00    +0.156 HD
ENDROOT
BRANCH   4   7
ATOM      7  C   UNL     1      -5.420  -3.065  -3.782  0.00  0.00    +0.052 A 
ATOM      8  C   UNL     1      -4.695  -3.309  -4.939  0.00  0.00    +0.073 A 
ATOM      9  C   UNL     1      -5.355  -3.567  -6.131  0.00  0.00    +0.164 A 
ATOM     10  C   UNL     1      -6.745  -3.584  -6.163  0.00  0.00    +0.163 A 
ATOM     11  C   UNL     1      -7.467  -3.339  -5.005  0.00  0.00    +0.066 A 
ATOM     12  C   UNL     1      -6.809  -3.086  -3.816  0.00  0.00    +0.043 A 
ATOM     13 BR   UNL     1      -7.798  -2.760  -2.238  0.00  0.00    -0.048 Br
ATOM     14  O   UNL     1      -7.411  -3.844  -7.322  0.00  0.00    -0.485 OA
ATOM     15  C   UNL     1      -6.664  -3.716  -8.537  0.00  0.00    +0.270 C 
ATOM     16  C   UNL     1      -5.316  -4.425  -8.348  0.00  0.00    +0.270 C 
ATOM     17  O   UNL     1      -4.629  -3.800  -7.258  0.00  0.00    -0.485 OA
ENDBRANCH   4   7
BRANCH   1  18
ATOM     18  C   UNL     1      -1.734  -1.046  -1.431  0.00  0.00    +0.110 C 
BRANCH  18  19
ATOM     19  C   UNL     1      -1.275  -0.803   0.009  0.00  0.00    +0.054 C 
BRANCH  19  25
ATOM     20  C   UNL     1       0.010   1.345   0.014  0.00  0.00    +0.006 A 
ATOM     21  C   UNL     1       1.200   2.048   0.006  0.00  0.00    +0.038 A 
ATOM     22  C   UNL     1       2.405   1.367  -0.017  0.00  0.00    +0.123 A 
ATOM     23  C   UNL     1       2.417  -0.018  -0.032  0.00  0.00    +0.038 A 
ATOM     24  C   UNL     1       1.226  -0.718  -0.023  0.00  0.00    +0.006 A 
ATOM     25  C   UNL     1       0.023  -0.037  -0.000  0.00  0.00    -0.046 A 
ATOM     26  F   UNL     1       3.569   2.053  -0.025  0.00  0.00    -0.205 F 
ENDBRANCH  19  25
ENDBRANCH  18  19
ENDBRANCH   1  18
TORSDOF 4
