REMARK  Name = ZINC09522046
REMARK  7 active torsions:
REMARK  status: ('A' for Active; 'I' for Inactive)
REMARK    1  A    between atoms: C_1  and  C_2
REMARK    2  A    between atoms: C_9  and  N_18
REMARK    3  A    between atoms: C_10  and  C_11
REMARK    4  A    between atoms: C_14  and  O_16
REMARK    5  A    between atoms: O_16  and  C_17
REMARK    6  A    between atoms: C_19  and  C_21
REMARK    7  A    between atoms: C_21  and  C_22
REMARK                            x       y       z     vdW  Elec       q    Type
REMARK                         _______ _______ _______ _____ _____    ______ ____
ROOT
ATOM      1  C   UNL     1      -0.734   1.582   1.262  0.00  0.00    +0.008 C 
ATOM      2  C   UNL     1      -0.013   1.086   0.008  0.00  0.00    -0.009 C 
ATOM      3  C   UNL     1      -0.738   1.596  -1.241  0.00  0.00    +0.008 C 
ATOM      4  C   UNL     1      -0.177   0.907  -2.486  0.00  0.00    +0.037 C 
ATOM      5  C   UNL     1       1.339   1.061  -2.490  0.00  0.00    -0.023 A 
ATOM      6  C   UNL     1       2.009   1.379  -1.361  0.00  0.00    -0.004 A 
ATOM      7  S   UNL     1       3.710   1.446  -1.848  0.00  0.00    -0.077 S 
ATOM      8  C   UNL     1       3.537   1.057  -3.527  0.00  0.00    +0.084 A 
ATOM      9  C   UNL     1       2.166   0.884  -3.672  0.00  0.00    +0.069 A 
ATOM     10  C   UNL     1       1.427   1.620  -0.003  0.00  0.00    +0.046 C 
ENDROOT
BRANCH   9  11
ATOM     11  C   UNL     1       1.576   0.537  -4.967  0.00  0.00    +0.255 C 
ATOM     12  O   UNL     1       1.436  -0.631  -5.279  0.00  0.00    -0.270 OA
ATOM     13  N   UNL     1       1.189   1.511  -5.814  0.00  0.00    -0.217 N 
ATOM     14  C   UNL     1       0.646   1.192  -7.006  0.00  0.00    +0.407 C 
ATOM     15  O   UNL     1       0.506   0.026  -7.316  0.00  0.00    -0.226 OA
ATOM     16  H   UNL     1       1.301   2.442  -5.566  0.00  0.00    +0.161 HD
BRANCH  14  17
ATOM     17  O   UNL     1       0.260   2.165  -7.851  0.00  0.00    -0.453 OA
ATOM     18  C   UNL     1      -0.317   1.748  -9.117  0.00  0.00    +0.282 C 
ENDBRANCH  14  17
ENDBRANCH   9  11
BRANCH   8  19
ATOM     19  N   UNL     1       4.525   0.945  -4.492  0.00  0.00    -0.279 N 
ATOM     20  C   UNL     1       5.816   1.151  -4.162  0.00  0.00    +0.222 C 
ATOM     21  O   UNL     1       6.112   1.434  -3.021  0.00  0.00    -0.275 OA
ATOM     22  H   UNL     1       4.288   0.719  -5.405  0.00  0.00    +0.155 HD
BRANCH  20  23
ATOM     23  C   UNL     1       6.891   1.030  -5.211  0.00  0.00    +0.131 C 
BRANCH  23  24
ATOM     24  C   UNL     1       8.234   1.306  -4.588  0.00  0.00    -0.035 A 
ATOM     25  C   UNL     1       8.732   2.596  -4.565  0.00  0.00    +0.008 A 
ATOM     26  C   UNL     1       9.962   2.855  -3.990  0.00  0.00    +0.050 A 
ATOM     27  C   UNL     1      10.704   1.820  -3.444  0.00  0.00    +0.166 A 
ATOM     28  C   UNL     1      10.205   0.520  -3.472  0.00  0.00    +0.166 A 
ATOM     29  C   UNL     1       8.969   0.269  -4.045  0.00  0.00    +0.053 A 
ATOM     30  O   UNL     1      11.113  -0.309  -2.879  0.00  0.00    -0.453 OA
ATOM     31  C   UNL     1      11.986   0.553  -2.125  0.00  0.00    +0.466 C 
ATOM     32  O   UNL     1      11.925   1.806  -2.834  0.00  0.00    -0.453 OA
ENDBRANCH  23  24
ENDBRANCH  20  23
ENDBRANCH   8  19
TORSDOF 5
