REMARK  Name = ZINC44423771
REMARK  5 active torsions:
REMARK  status: ('A' for Active; 'I' for Inactive)
REMARK    1  A    between atoms: C_1  and  C_2
REMARK    2  A    between atoms: C_5  and  N_9
REMARK    3  A    between atoms: C_11  and  C_16
REMARK    4  A    between atoms: C_18  and  C_21
REMARK    5  A    between atoms: C_23  and  C_27
REMARK                            x       y       z     vdW  Elec       q    Type
REMARK                         _______ _______ _______ _____ _____    ______ ____
ROOT
ATOM      1  C   UNL     1       0.531  -7.482   1.435  0.00  0.00    +0.177 A 
ATOM      2  N   UNL     1       0.042  -8.432   2.234  0.00  0.00    -0.190 NA
ATOM      3  C   UNL     1       1.019  -9.199   2.671  0.00  0.00    +0.276 A 
ATOM      4  O   UNL     1       2.171  -8.741   2.147  0.00  0.00    -0.331 OA
ATOM      5  N   UNL     1       1.823  -7.625   1.342  0.00  0.00    -0.060 NA
ENDROOT
BRANCH   1   8
ATOM      6  N   UNL     1       0.057  -4.171  -0.023  0.00  0.00    -0.271 N 
ATOM      7  C   UNL     1       0.174  -5.006   1.178  0.00  0.00    +0.125 C 
ATOM      8  C   UNL     1      -0.282  -6.417   0.746  0.00  0.00    +0.087 C 
ATOM      9  C   UNL     1       0.011  -6.392  -0.772  0.00  0.00    +0.109 C 
ATOM     10  C   UNL     1      -0.036  -4.923  -1.133  0.00  0.00    +0.221 C 
ATOM     11  O   UNL     1      -0.140  -4.488  -2.261  0.00  0.00    -0.275 OA
BRANCH   6  16
ATOM     12  C   UNL     1      -0.018   1.503   0.010  0.00  0.00    +0.047 C 
ATOM     13  C   UNL     1       0.002  -0.004   0.002  0.00  0.00    -0.015 A 
ATOM     14  C   UNL     1       0.020  -0.687  -1.200  0.00  0.00    +0.008 A 
ATOM     15  C   UNL     1       0.038  -2.068  -1.211  0.00  0.00    +0.024 A 
ATOM     16  C   UNL     1       0.039  -2.772  -0.014  0.00  0.00    +0.039 A 
ATOM     17  C   UNL     1       0.022  -2.085   1.192  0.00  0.00    +0.062 A 
ATOM     18  C   UNL     1       0.009  -0.702   1.198  0.00  0.00    +0.128 A 
ATOM     19  F   UNL     1      -0.003  -0.032   2.371  0.00  0.00    -0.205 F 
ENDBRANCH   6  16
ENDBRANCH   1   8
BRANCH   3  20
ATOM     20  C   UNL     1       0.876 -10.354   3.573  0.00  0.00    +0.124 A 
ATOM     21  C   UNL     1       1.888 -11.149   4.034  0.00  0.00    +0.065 A 
ATOM     22  C   UNL     1       1.318 -12.129   4.865  0.00  0.00    +0.128 A 
ATOM     23  N   UNL     1       0.014 -11.932   4.905  0.00  0.00    -0.170 NA
ATOM     24  N   UNL     1      -0.291 -10.822   4.107  0.00  0.00    -0.272 N 
ATOM     25  H   UNL     1      -1.176 -10.452   3.960  0.00  0.00    +0.189 HD
BRANCH  22  26
ATOM     26  C   UNL     1       2.055 -13.197   5.574  0.00  0.00    +0.155 A 
ATOM     27  C   UNL     1       1.506 -14.149   6.374  0.00  0.00    +0.051 A 
ATOM     28  C   UNL     1       2.567 -14.953   6.836  0.00  0.00    +0.042 A 
ATOM     29  C   UNL     1       3.699 -14.458   6.300  0.00  0.00    +0.196 A 
ATOM     30  O   UNL     1       3.385 -13.400   5.534  0.00  0.00    -0.461 OA
ENDBRANCH  22  26
ENDBRANCH   3  20
TORSDOF 4
