REMARK  Name = ZINC13364751
REMARK  7 active torsions:
REMARK  status: ('A' for Active; 'I' for Inactive)
REMARK    1  A    between atoms: C_1  and  C_2
REMARK    2  A    between atoms: C_2  and  O_3
REMARK    3  A    between atoms: O_3  and  C_4
REMARK    4  A    between atoms: C_4  and  C_6
REMARK    5  A    between atoms: N_9  and  S_12
REMARK    6  A    between atoms: S_12  and  C_15
REMARK    7  A    between atoms: C_20  and  C_21
REMARK                            x       y       z     vdW  Elec       q    Type
REMARK                         _______ _______ _______ _____ _____    ______ ____
ROOT
ATOM      1  S   UNL     1       4.873  -4.881   3.875  0.00  0.00    +0.061 S 
ATOM      2  O   UNL     1       4.512  -6.134   3.311  0.00  0.00    -0.153 OA
ATOM      3  O   UNL     1       5.975  -4.121   3.399  0.00  0.00    -0.153 OA
ENDROOT
BRANCH   1   4
ATOM      4  C   UNL     1       5.160  -5.165   5.590  0.00  0.00    +0.110 A 
ATOM      5  C   UNL     1       5.041  -6.441   6.105  0.00  0.00    +0.056 A 
ATOM      6  C   UNL     1       5.266  -6.665   7.455  0.00  0.00    +0.069 A 
ATOM      7  C   UNL     1       5.613  -5.598   8.287  0.00  0.00    +0.067 A 
ATOM      8  C   UNL     1       5.729  -4.321   7.761  0.00  0.00    +0.033 A 
ATOM      9  C   UNL     1       5.509  -4.109   6.414  0.00  0.00    -0.022 A 
ATOM     10  C   UNL     1       5.643  -2.722   5.841  0.00  0.00    +0.046 C 
ATOM     11  N   UNL     1       5.774  -6.123   9.568  0.00  0.00    -0.306 N 
ATOM     12  H   UNL     1       6.016  -5.620  10.361  0.00  0.00    +0.170 HD
ATOM     13  C   UNL     1       5.536  -7.447   9.516  0.00  0.00    +0.325 A 
ATOM     14  O   UNL     1       5.591  -8.207  10.465  0.00  0.00    -0.247 OA
ATOM     15  N   UNL     1       5.227  -7.804   8.255  0.00  0.00    -0.306 N 
ATOM     16  H   UNL     1       5.014  -8.701   7.955  0.00  0.00    +0.170 HD
ENDBRANCH   1   4
BRANCH   1  20
ATOM     17  C   UNL     1       1.516  -2.381   2.500  0.00  0.00    +0.100 C 
ATOM     18  C   UNL     1       2.965  -1.888   2.512  0.00  0.00    +0.032 C 
ATOM     19  C   UNL     1       3.679  -2.444   3.748  0.00  0.00    +0.110 C 
ATOM     20  N   UNL     1       3.539  -3.907   3.756  0.00  0.00    -0.177 NA
ATOM     21  C   UNL     1       2.194  -4.488   3.657  0.00  0.00    +0.110 C 
ATOM     22  C   UNL     1       1.496  -3.909   2.422  0.00  0.00    +0.032 C 
BRANCH  17  23
ATOM     23  C   UNL     1       0.801  -1.808   1.304  0.00  0.00    +0.310 C 
ATOM     24  O   UNL     1       0.324  -2.546   0.475  0.00  0.00    -0.251 OA
BRANCH  23  25
ATOM     25  O   UNL     1       0.693  -0.477   1.160  0.00  0.00    -0.465 OA
BRANCH  25  27
ATOM     26  C   UNL     1      -0.019   1.526   0.010  0.00  0.00    +0.048 C 
ATOM     27  C   UNL     1       0.002  -0.004   0.002  0.00  0.00    +0.229 C 
ENDBRANCH  25  27
ENDBRANCH  23  25
ENDBRANCH  17  23
ENDBRANCH   1  20
TORSDOF 5
