REMARK  Name = ZINC40348179
REMARK  9 active torsions:
REMARK  status: ('A' for Active; 'I' for Inactive)
REMARK    1  A    between atoms: C_1  and  C_2
REMARK    2  A    between atoms: C_2  and  C_4
REMARK    3  A    between atoms: C_2  and  N_17
REMARK    4  A    between atoms: C_4  and  N_5
REMARK    5  A    between atoms: N_5  and  S_6
REMARK    6  A    between atoms: S_6  and  C_9
REMARK    7  A    between atoms: C_14  and  N_15
REMARK    8  A    between atoms: N_17  and  C_18
REMARK    9  A    between atoms: N_17  and  C_19
REMARK                            x       y       z     vdW  Elec       q    Type
REMARK                         _______ _______ _______ _____ _____    ______ ____
ROOT
ATOM      1  S   UNL     1       1.768  -2.259   2.617  0.00  0.00    +0.060 S 
ATOM      2  O   UNL     1       1.476  -3.623   2.888  0.00  0.00    -0.153 OA
ATOM      3  O   UNL     1       3.027  -1.835   2.114  0.00  0.00    -0.153 OA
ENDROOT
BRANCH   1   4
ATOM      4  C   UNL     1       1.503  -1.379   4.120  0.00  0.00    +0.126 A 
ATOM      5  C   UNL     1       2.470  -0.514   4.594  0.00  0.00    +0.031 A 
ATOM      6  C   UNL     1       2.264   0.177   5.773  0.00  0.00    +0.017 A 
ATOM      7  C   UNL     1       1.088   0.005   6.483  0.00  0.00    +0.020 A 
ATOM      8  C   UNL     1       0.117  -0.859   6.014  0.00  0.00    +0.040 A 
ATOM      9  C   UNL     1       0.320  -1.550   4.827  0.00  0.00    +0.052 A 
ATOM     10 BR   UNL     1       0.810   0.953   8.096  0.00  0.00    -0.050 Br
BRANCH   9  11
ATOM     11  N   UNL     1      -0.662  -2.420   4.347  0.00  0.00    -0.356 N 
ATOM     12  H   UNL     1      -0.493  -2.952   3.553  0.00  0.00    +0.142 HD
ATOM     13  H   UNL     1      -1.513  -2.493   4.808  0.00  0.00    +0.142 HD
ENDBRANCH   9  11
ENDBRANCH   1   4
BRANCH   1  14
ATOM     14  N   UNL     1       0.627  -1.737   1.536  0.00  0.00    -0.191 NA
ATOM     15  H   UNL     1      -0.042  -2.354   1.200  0.00  0.00    +0.148 HD
BRANCH  14  16
ATOM     16  C   UNL     1       0.627  -0.342   1.087  0.00  0.00    +0.090 C 
BRANCH  16  18
ATOM     17  C   UNL     1      -0.272   1.253  -0.612  0.00  0.00    -0.012 C 
ATOM     18  C   UNL     1      -0.231  -0.212  -0.173  0.00  0.00    -0.057 C 
BRANCH  18  19
ATOM     19  N   UNL     1      -1.595  -0.675   0.114  0.00  0.00    +0.379 N 
ATOM     20  C   UNL     1      -2.222   0.222   1.093  0.00  0.00    -0.096 C 
ATOM     21  C   UNL     1      -2.383  -0.675  -1.126  0.00  0.00    -0.096 C 
ATOM     22  H   UNL     1      -1.560  -1.611   0.489  0.00  0.00    -0.082 HD
ENDBRANCH  18  19
ENDBRANCH  16  18
ENDBRANCH  14  16
ENDBRANCH   1  14
TORSDOF 6
