REMARK  Name = ZINC64839571
REMARK  8 active torsions:
REMARK  status: ('A' for Active; 'I' for Inactive)
REMARK    1  A    between atoms: C_1  and  C_2
REMARK    2  A    between atoms: C_8  and  C_11
REMARK    3  A    between atoms: C_11  and  C_12
REMARK    4  A    between atoms: C_12  and  N_13
REMARK    5  A    between atoms: C_14  and  C_16
REMARK    6  A    between atoms: C_16  and  C_18
REMARK    7  A    between atoms: C_16  and  N_19
REMARK    8  A    between atoms: N_29  and  C_34
REMARK                            x       y       z     vdW  Elec       q    Type
REMARK                         _______ _______ _______ _____ _____    ______ ____
ROOT
ATOM      1  C   UNL     1      -2.534  -2.338   7.783  0.00  0.00    +0.157 C 
ATOM      2  C   UNL     1      -1.942  -0.955   8.057  0.00  0.00    +0.038 C 
ENDROOT
BRANCH   1   3
ATOM      3  N   UNL     1      -3.908  -2.390   8.291  0.00  0.00    -0.303 N 
ATOM      4  C   UNL     1      -4.964  -1.569   7.875  0.00  0.00    +0.039 A 
ATOM      5  C   UNL     1      -5.026  -0.658   6.826  0.00  0.00    +0.024 A 
ATOM      6  C   UNL     1      -6.189   0.044   6.578  0.00  0.00    +0.002 A 
ATOM      7  C   UNL     1      -7.306  -0.149   7.371  0.00  0.00    +0.001 A 
ATOM      8  C   UNL     1      -7.264  -1.041   8.421  0.00  0.00    +0.010 A 
ATOM      9  C   UNL     1      -6.094  -1.754   8.689  0.00  0.00    +0.003 A 
ATOM     10  C   UNL     1      -5.743  -2.718   9.731  0.00  0.00    +0.006 C 
ATOM     11  C   UNL     1      -6.339  -3.082  10.871  0.00  0.00    +0.094 C 
ATOM     12  N   UNL     1      -5.574  -3.988  11.632  0.00  0.00    -0.269 N 
ATOM     13  N   UNL     1      -4.186  -3.727  11.702  0.00  0.00    -0.224 N 
ATOM     14  C   UNL     1      -3.548  -3.349  10.554  0.00  0.00    +0.256 C 
ATOM     15  O   UNL     1      -2.368  -3.067  10.536  0.00  0.00    -0.272 OA
ATOM     16  C   UNL     1      -4.403  -3.308   9.306  0.00  0.00    +0.194 C 
ATOM     17  C   UNL     1      -3.455  -3.857  12.965  0.00  0.00    +0.156 C 
ATOM     18  H   UNL     1      -5.976  -4.747  12.082  0.00  0.00    +0.170 HD
ENDBRANCH   1   3
BRANCH   1  20
ATOM     19  N   UNL     1      -1.377  -2.600   5.613  0.00  0.00    -0.313 N 
ATOM     20  C   UNL     1      -2.537  -2.599   6.299  0.00  0.00    +0.233 C 
ATOM     21  O   UNL     1      -3.583  -2.808   5.722  0.00  0.00    -0.274 OA
ATOM     22  H   UNL     1      -0.540  -2.433   6.075  0.00  0.00    +0.149 HD
BRANCH  19  23
ATOM     23  C   UNL     1      -1.379  -2.854   4.170  0.00  0.00    +0.108 C 
BRANCH  23  24
ATOM     24  C   UNL     1       0.055  -2.799   3.641  0.00  0.00    +0.052 C 
BRANCH  24  32
ATOM     25  C   UNL     1      -0.018   1.503   0.010  0.00  0.00    +0.044 C 
ATOM     26  C   UNL     1       0.002  -0.004   0.002  0.00  0.00    -0.050 A 
ATOM     27  C   UNL     1       0.005  -0.680  -1.226  0.00  0.00    +0.005 A 
ATOM     28  C   UNL     1       0.023  -2.026  -1.317  0.00  0.00    +0.026 A 
ATOM     29  C   UNL     1       0.039  -2.826  -0.141  0.00  0.00    +0.043 A 
ATOM     30  N   UNL     1       0.057  -4.126   0.030  0.00  0.00    -0.380 N 
ATOM     31  C   UNL     1       0.067  -4.408   1.470  0.00  0.00    +0.144 C 
ATOM     32  C   UNL     1       0.052  -3.060   2.156  0.00  0.00    -0.040 C 
ATOM     33  C   UNL     1       0.036  -2.137   1.168  0.00  0.00    -0.001 A 
ATOM     34  C   UNL     1       0.022  -0.669   1.180  0.00  0.00    +0.013 A 
ATOM     35  H   UNL     1       0.062  -4.790  -0.677  0.00  0.00    +0.160 HD
ENDBRANCH  24  32
ENDBRANCH  23  24
ENDBRANCH  19  23
ENDBRANCH   1  20
TORSDOF 5
