REMARK  Name = ZINC12443783
REMARK  4 active torsions:
REMARK  status: ('A' for Active; 'I' for Inactive)
REMARK    1  A    between atoms: C_6  and  C_11
REMARK    2  A    between atoms: C_11  and  N_58
REMARK    3  A    between atoms: C_17  and  C_19
REMARK    4  A    between atoms: C_19  and  C_20
REMARK                            x       y       z     vdW  Elec       q    Type
REMARK                         _______ _______ _______ _____ _____    ______ ____
ROOT
ATOM      1  C   UNL     1      -5.282   7.288   4.781  0.00  0.00    -0.058 C 
ATOM      2  C   UNL     1      -6.098   6.236   5.534  0.00  0.00    +0.085 C 
ATOM      3  N   UNL     1      -6.732   5.323   4.587  0.00  0.00    -0.318 N 
ATOM      4  C   UNL     1      -6.330   5.198   3.318  0.00  0.00    +0.200 C 
ATOM      5  O   UNL     1      -6.893   4.392   2.607  0.00  0.00    -0.278 OA
ATOM      6  C   UNL     1      -5.210   6.012   2.736  0.00  0.00    +0.028 C 
ATOM      7  H   UNL     1      -7.479   4.784   4.893  0.00  0.00    +0.149 HD
ATOM      8  N   UNL     1      -4.400   6.586   3.827  0.00  0.00    +0.391 N 
ATOM      9  H   UNL     1      -3.912   5.827   4.318  0.00  0.00    -0.080 HD
ENDROOT
BRANCH   8  10
ATOM     10  C   UNL     1      -3.398   7.526   3.275  0.00  0.00    -0.042 C 
BRANCH  10  16
ATOM     11  C   UNL     1       1.598   7.827   7.356  0.00  0.00    +0.001 A 
ATOM     12  C   UNL     1       1.778   6.754   6.485  0.00  0.00    +0.001 A 
ATOM     13  C   UNL     1       0.859   6.471   5.522  0.00  0.00    +0.008 A 
ATOM     14  C   UNL     1      -0.289   7.271   5.400  0.00  0.00    -0.018 A 
ATOM     15  C   UNL     1      -1.260   7.011   4.418  0.00  0.00    +0.010 A 
ATOM     16  C   UNL     1      -2.360   7.808   4.330  0.00  0.00    -0.063 A 
ATOM     17  C   UNL     1      -2.537   8.884   5.197  0.00  0.00    +0.002 A 
ATOM     18  C   UNL     1      -1.621   9.163   6.164  0.00  0.00    +0.009 A 
ATOM     19  C   UNL     1      -0.472   8.363   6.286  0.00  0.00    -0.018 A 
ATOM     20  C   UNL     1       0.498   8.623   7.268  0.00  0.00    +0.008 A 
ENDBRANCH  10  16
ENDBRANCH   8  10
BRANCH   6  21
ATOM     21  C   UNL     1      -4.320   5.112   1.877  0.00  0.00    +0.090 C 
BRANCH  21  22
ATOM     22  C   UNL     1      -3.698   4.047   2.743  0.00  0.00    +0.215 C 
ATOM     23  O   UNL     1      -3.863   4.069   3.945  0.00  0.00    -0.276 OA
ATOM     24  N   UNL     1      -2.957   3.070   2.183  0.00  0.00    -0.297 N 
ATOM     25  C   UNL     1      -2.336   2.016   3.001  0.00  0.00    +0.113 C 
ATOM     26  C   UNL     1      -2.964   0.681   2.605  0.00  0.00    +0.056 C 
ATOM     27  C   UNL     1      -3.001   0.529   1.107  0.00  0.00    -0.023 A 
ATOM     28  C   UNL     1      -2.920   1.600   0.246  0.00  0.00    -0.026 A 
ATOM     29  C   UNL     1      -2.986   1.391  -1.125  0.00  0.00    +0.005 A 
ATOM     30  C   UNL     1      -3.133   0.116  -1.633  0.00  0.00    +0.002 A 
ATOM     31  C   UNL     1      -3.204  -0.962  -0.771  0.00  0.00    +0.020 A 
ATOM     32  C   UNL     1      -3.137  -0.756   0.593  0.00  0.00    +0.044 A 
ATOM     33 CL   UNL     1      -3.226  -2.111   1.673  0.00  0.00    -0.083 Cl
ATOM     34  C   UNL     1      -2.739   3.015   0.734  0.00  0.00    +0.143 C 
ENDBRANCH  21  22
ENDBRANCH   6  21
TORSDOF 4
