REMARK  Name = ZINC10322253
REMARK  4 active torsions:
REMARK  status: ('A' for Active; 'I' for Inactive)
REMARK    1  A    between atoms: C_6  and  C_10
REMARK    2  A    between atoms: C_13  and  N_16
REMARK    3  A    between atoms: C_17  and  C_19
REMARK    4  A    between atoms: N_25  and  C_26
REMARK                            x       y       z     vdW  Elec       q    Type
REMARK                         _______ _______ _______ _____ _____    ______ ____
ROOT
ATOM      1  N   UNL     1       8.867   2.835   0.296  0.00  0.00    -0.280 N 
ATOM      2  C   UNL     1       9.585   1.783   0.736  0.00  0.00    +0.267 C 
ATOM      3  O   UNL     1       9.018   0.782   1.133  0.00  0.00    -0.268 OA
ATOM      4  H   UNL     1       9.318   3.604  -0.086  0.00  0.00    +0.155 HD
ENDROOT
BRANCH   2   5
ATOM      5  C   UNL     1      11.050   1.843   0.735  0.00  0.00    +0.127 A 
ATOM      6  C   UNL     1      11.891   0.919   1.251  0.00  0.00    +0.116 A 
ATOM      7  N   UNL     1      13.173   1.353   1.042  0.00  0.00    -0.339 N 
ATOM      8  H   UNL     1      13.979   0.885   1.308  0.00  0.00    +0.167 HD
ATOM      9  C   UNL     1      13.128   2.542   0.410  0.00  0.00    +0.163 A 
ATOM     10  S   UNL     1      14.484   3.476  -0.057  0.00  0.00    -0.013 S 
ATOM     11  N   UNL     1      11.838   2.871   0.207  0.00  0.00    -0.284 N 
BRANCH  11  12
ATOM     12  C   UNL     1      11.370   4.034  -0.420  0.00  0.00    +0.049 A 
ATOM     13  C   UNL     1      10.846   3.968  -1.705  0.00  0.00    +0.029 A 
ATOM     14  C   UNL     1      10.381   5.114  -2.319  0.00  0.00    +0.040 A 
ATOM     15  C   UNL     1      10.445   6.330  -1.659  0.00  0.00    +0.124 A 
ATOM     16  C   UNL     1      10.972   6.398  -0.380  0.00  0.00    +0.040 A 
ATOM     17  C   UNL     1      11.434   5.253   0.240  0.00  0.00    +0.029 A 
ATOM     18  F   UNL     1       9.995   7.450  -2.264  0.00  0.00    -0.205 F 
ENDBRANCH  11  12
ENDBRANCH   2   5
BRANCH   1  22
ATOM     19  C   UNL     1       4.709   2.785   0.581  0.00  0.00    +0.002 A 
ATOM     20  C   UNL     1       5.404   1.608   0.306  0.00  0.00    +0.012 A 
ATOM     21  C   UNL     1       6.779   1.628   0.207  0.00  0.00    +0.024 A 
ATOM     22  C   UNL     1       7.473   2.818   0.392  0.00  0.00    +0.034 A 
ATOM     23  C   UNL     1       6.782   3.992   0.670  0.00  0.00    +0.024 A 
ATOM     24  C   UNL     1       5.407   3.977   0.765  0.00  0.00    +0.012 A 
BRANCH  19  30
ATOM     25  C   UNL     1      -1.205   3.466   1.133  0.00  0.00    +0.005 A 
ATOM     26  C   UNL     1      -1.213   2.088   0.859  0.00  0.00    +0.018 A 
ATOM     27  C   UNL     1      -0.053   1.429   0.653  0.00  0.00    +0.093 A 
ATOM     28  N   UNL     1       1.140   2.090   0.698  0.00  0.00    -0.306 N 
ATOM     29  C   UNL     1       2.431   1.674   0.525  0.00  0.00    +0.121 A 
ATOM     30  C   UNL     1       3.228   2.767   0.682  0.00  0.00    +0.090 A 
ATOM     31  N   UNL     1       2.446   3.825   0.945  0.00  0.00    -0.228 NA
ATOM     32  C   UNL     1       1.179   3.436   0.958  0.00  0.00    +0.138 A 
ATOM     33  C   UNL     1      -0.023   4.137   1.181  0.00  0.00    +0.047 A 
ENDBRANCH  19  30
ENDBRANCH   1  22
TORSDOF 4
