REMARK  Name = ZINC06220676
REMARK  2 active torsions:
REMARK  status: ('A' for Active; 'I' for Inactive)
REMARK    1  A    between atoms: C_3  and  C_8
REMARK    2  A    between atoms: C_21  and  N_24
REMARK                            x       y       z     vdW  Elec       q    Type
REMARK                         _______ _______ _______ _____ _____    ______ ____
ROOT
ATOM      1  C   UNL     1      -3.397  -0.749   1.018  0.00  0.00    +0.105 C 
ATOM      2  C   UNL     1      -3.463  -2.036   0.212  0.00  0.00    +0.029 C 
ATOM      3  C   UNL     1      -3.685  -1.742  -1.292  0.00  0.00    +0.033 C 
ATOM      4  C   UNL     1      -2.981  -2.898  -1.978  0.00  0.00    -0.030 C 
ATOM      5  C   UNL     1      -2.083  -3.449  -1.171  0.00  0.00    -0.023 C 
ATOM      6  C   UNL     1      -2.079  -2.715   0.161  0.00  0.00    +0.049 C 
ATOM      7  C   UNL     1      -0.971  -1.696   0.127  0.00  0.00    -0.016 A 
ATOM      8  C   UNL     1       0.332  -2.165   0.017  0.00  0.00    +0.026 A 
ATOM      9  C   UNL     1       1.395  -1.285  -0.017  0.00  0.00    +0.044 A 
ATOM     10  C   UNL     1       1.168   0.078   0.060  0.00  0.00    +0.054 A 
ATOM     11  C   UNL     1      -0.122   0.552   0.168  0.00  0.00    +0.149 A 
ATOM     12  C   UNL     1      -1.197  -0.335   0.206  0.00  0.00    +0.062 A 
ATOM     13  N   UNL     1      -2.480   0.196   0.378  0.00  0.00    -0.335 N 
ATOM     14 CL   UNL     1       3.017  -1.889  -0.155  0.00  0.00    -0.083 Cl
ATOM     15  H   UNL     1      -2.462   1.074   0.874  0.00  0.00    +0.147 HD
ENDROOT
BRANCH   1  18
ATOM     16  C   UNL     1      -2.713  -2.570   4.254  0.00  0.00    +0.002 A 
ATOM     17  C   UNL     1      -3.168  -2.287   2.979  0.00  0.00    +0.005 A 
ATOM     18  C   UNL     1      -2.906  -1.055   2.409  0.00  0.00    -0.026 A 
ATOM     19  C   UNL     1      -2.198  -0.102   3.118  0.00  0.00    +0.025 A 
ATOM     20  C   UNL     1      -1.747  -0.383   4.395  0.00  0.00    +0.041 A 
ATOM     21  C   UNL     1      -2.005  -1.618   4.963  0.00  0.00    +0.020 A 
ATOM     22 CL   UNL     1      -0.859   0.814   5.285  0.00  0.00    -0.084 Cl
ENDBRANCH   1  18
BRANCH  11  23
ATOM     23  N   UNL     1      -0.366   2.010   0.251  0.00  0.00    +0.058 N 
ATOM     24  O   UNL     1      -1.337   2.497  -0.301  0.00  0.00    -0.126 OA
ATOM     25  O   UNL     1       0.401   2.722   0.874  0.00  0.00    -0.126 OA
ENDBRANCH  11  23
TORSDOF 2
