REMARK  Name = ZINC48868592
REMARK  5 active torsions:
REMARK  status: ('A' for Active; 'I' for Inactive)
REMARK    1  A    between atoms: C_1  and  N_2
REMARK    2  A    between atoms: N_2  and  C_3
REMARK    3  A    between atoms: N_2  and  S_4
REMARK    4  A    between atoms: S_4  and  N_7
REMARK    5  A    between atoms: C_8  and  C_10
REMARK                            x       y       z     vdW  Elec       q    Type
REMARK                         _______ _______ _______ _____ _____    ______ ____
ROOT
ATOM      1  C   UNL     1       3.273  -1.867  -3.375  0.00  0.00    +0.127 A 
ATOM      2  C   UNL     1       4.353  -1.448  -2.663  0.00  0.00    +0.079 A 
ATOM      3  C   UNL     1       5.539  -1.851  -3.414  0.00  0.00    +0.020 A 
ATOM      4  C   UNL     1       6.914  -1.707  -3.200  0.00  0.00    +0.026 A 
ATOM      5  C   UNL     1       7.799  -2.206  -4.114  0.00  0.00    +0.019 A 
ATOM      6  C   UNL     1       7.344  -2.857  -5.255  0.00  0.00    +0.017 A 
ATOM      7  C   UNL     1       5.995  -3.010  -5.486  0.00  0.00    +0.027 A 
ATOM      8  C   UNL     1       5.074  -2.510  -4.569  0.00  0.00    +0.049 A 
ATOM      9  N   UNL     1       3.700  -2.511  -4.519  0.00  0.00    -0.349 N 
ATOM     10  H   UNL     1       3.118  -2.904  -5.189  0.00  0.00    +0.166 HD
ATOM     11 BR   UNL     1       9.657  -2.011  -3.824  0.00  0.00    -0.050 Br
ATOM     12 CL   UNL     1       4.326  -0.596  -1.151  0.00  0.00    -0.081 Cl
ENDROOT
BRANCH   1  14
ATOM     13  N   UNL     1       1.581  -1.045  -1.877  0.00  0.00    -0.073 NA
ATOM     14  C   UNL     1       1.867  -1.671  -2.984  0.00  0.00    +0.314 C 
ATOM     15  O   UNL     1       0.873  -2.140  -3.773  0.00  0.00    -0.262 OA
BRANCH  13  16
ATOM     16  S   UNL     1      -0.000  -0.824  -1.437  0.00  0.00    +0.142 S 
ATOM     17  O   UNL     1      -0.531  -2.115  -1.167  0.00  0.00    -0.134 OA
ATOM     18  O   UNL     1      -0.572   0.049  -2.401  0.00  0.00    -0.134 OA
BRANCH  16  20
ATOM     19  C   UNL     1      -0.018   1.461   0.010  0.00  0.00    +0.133 C 
ATOM     20  N   UNL     1       0.002  -0.004   0.002  0.00  0.00    -0.166 NA
ATOM     21  C   UNL     1       0.024  -0.743   1.267  0.00  0.00    +0.133 C 
ENDBRANCH  16  20
ENDBRANCH  13  16
ENDBRANCH   1  14
TORSDOF 3
