REMARK  Name = ZINC01068831
REMARK  4 active torsions:
REMARK  status: ('A' for Active; 'I' for Inactive)
REMARK    1  A    between atoms: C_6  and  C_7
REMARK    2  A    between atoms: C_14  and  N_27
REMARK    3  A    between atoms: C_15  and  C_25
REMARK    4  A    between atoms: C_16  and  C_18
REMARK                            x       y       z     vdW  Elec       q    Type
REMARK                         _______ _______ _______ _____ _____    ______ ____
ROOT
ATOM      1  C   UNL     1      -1.555  -1.028   0.156  0.00  0.00    +0.100 A 
ATOM      2  C   UNL     1      -1.666  -2.118  -0.713  0.00  0.00    +0.054 A 
ATOM      3  C   UNL     1      -2.923  -2.635  -0.582  0.00  0.00    +0.223 A 
ATOM      4  N   UNL     1      -3.577  -1.897   0.338  0.00  0.00    -0.246 N 
ATOM      5  H   UNL     1      -4.490  -2.035   0.636  0.00  0.00    +0.192 HD
ATOM      6  N   UNL     1      -2.703  -0.898   0.793  0.00  0.00    -0.171 NA
ATOM      7  O   UNL     1      -3.351  -3.706  -1.296  0.00  0.00    -0.423 OA
ATOM      8  C   UNL     1      -2.604  -4.095  -2.349  0.00  0.00    +0.200 C 
ATOM      9  C   UNL     1      -1.344  -3.662  -2.577  0.00  0.00    +0.098 C 
ATOM     10  C   UNL     1      -0.643  -2.692  -1.658  0.00  0.00    +0.102 C 
ENDROOT
BRANCH   1  16
ATOM     11  C   UNL     1       0.383   0.235  -0.775  0.00  0.00    +0.011 A 
ATOM     12  C   UNL     1       1.498   1.031  -0.605  0.00  0.00    +0.020 A 
ATOM     13  C   UNL     1       1.883   1.423   0.666  0.00  0.00    +0.041 A 
ATOM     14  C   UNL     1       1.153   1.020   1.771  0.00  0.00    +0.020 A 
ATOM     15  C   UNL     1       0.037   0.224   1.610  0.00  0.00    +0.011 A 
ATOM     16  C   UNL     1      -0.355  -0.173   0.334  0.00  0.00    +0.003 A 
ATOM     17 CL   UNL     1       3.286   2.424   0.874  0.00  0.00    -0.084 Cl
ENDBRANCH   1  16
BRANCH  10  18
ATOM     18  C   UNL     1       0.424  -3.413  -0.875  0.00  0.00    -0.034 A 
ATOM     19  C   UNL     1       0.075  -4.428  -0.004  0.00  0.00    +0.007 A 
ATOM     20  C   UNL     1       1.053  -5.090   0.714  0.00  0.00    +0.038 A 
ATOM     21  C   UNL     1       2.383  -4.735   0.561  0.00  0.00    +0.123 A 
ATOM     22  C   UNL     1       2.731  -3.718  -0.312  0.00  0.00    +0.038 A 
ATOM     23  C   UNL     1       1.752  -3.061  -1.033  0.00  0.00    +0.007 A 
ATOM     24  F   UNL     1       3.340  -5.381   1.262  0.00  0.00    -0.205 F 
ENDBRANCH  10  18
BRANCH   8  25
ATOM     25  N   UNL     1      -3.154  -4.982  -3.240  0.00  0.00    -0.328 N 
ATOM     26  H   UNL     1      -4.056  -5.311  -3.103  0.00  0.00    +0.145 HD
ATOM     27  H   UNL     1      -2.641  -5.280  -4.007  0.00  0.00    +0.145 HD
ENDBRANCH   8  25
BRANCH   9  28
ATOM     28  C   UNL     1      -0.648  -4.143  -3.733  0.00  0.00    +0.101 C 
ATOM     29  N   UNL     1      -0.096  -4.524  -4.649  0.00  0.00    -0.191 NA
ENDBRANCH   9  28
TORSDOF 4
