REMARK  Name = ZINC35333580
REMARK  7 active torsions:
REMARK  status: ('A' for Active; 'I' for Inactive)
REMARK    1  A    between atoms: C_3  and  C_9
REMARK    2  A    between atoms: C_12  and  C_14
REMARK    3  A    between atoms: N_16  and  C_17
REMARK    4  A    between atoms: C_17  and  N_19
REMARK    5  A    between atoms: N_19  and  C_20
REMARK    6  A    between atoms: C_22  and  N_27
REMARK    7  A    between atoms: C_25  and  O_26
REMARK                            x       y       z     vdW  Elec       q    Type
REMARK                         _______ _______ _______ _____ _____    ______ ____
ROOT
ATOM      1  C   UNL     1       5.622   5.010  -0.986  0.00  0.00    +0.285 C 
ATOM      2  O   UNL     1       6.633   5.471  -0.491  0.00  0.00    -0.266 OA
ATOM      3  N   UNL     1       5.147   5.513  -2.143  0.00  0.00    -0.261 N 
ATOM      4  H   UNL     1       4.341   5.146  -2.538  0.00  0.00    +0.157 HD
ENDROOT
BRANCH   1   8
ATOM      5  C   UNL     1       3.438   2.342   0.097  0.00  0.00    +0.137 A 
ATOM      6  C   UNL     1       4.346   2.309   1.117  0.00  0.00    +0.051 A 
ATOM      7  C   UNL     1       5.293   3.304   0.856  0.00  0.00    +0.055 A 
ATOM      8  C   UNL     1       4.919   3.909  -0.325  0.00  0.00    +0.190 A 
ATOM      9  O   UNL     1       3.796   3.306  -0.768  0.00  0.00    -0.450 OA
BRANCH   5  12
ATOM     10  C   UNL     1      -0.095   1.177  -0.417  0.00  0.00    +0.002 A 
ATOM     11  C   UNL     1       1.001   2.006  -0.294  0.00  0.00    +0.013 A 
ATOM     12  C   UNL     1       2.261   1.461  -0.036  0.00  0.00    +0.037 A 
ATOM     13  C   UNL     1       2.402   0.076   0.096  0.00  0.00    +0.070 A 
ATOM     14  C   UNL     1       1.296  -0.742  -0.030  0.00  0.00    +0.060 A 
ATOM     15  C   UNL     1       0.051  -0.193  -0.286  0.00  0.00    +0.021 A 
ATOM     16 CL   UNL     1       1.467  -2.462   0.132  0.00  0.00    -0.082 Cl
ATOM     17 CL   UNL     1       3.963  -0.613   0.416  0.00  0.00    -0.081 Cl
ENDBRANCH   5  12
ENDBRANCH   1   8
BRANCH   3  18
ATOM     18  C   UNL     1       5.794   6.527  -2.752  0.00  0.00    +0.141 C 
ATOM     19  S   UNL     1       7.217   7.176  -2.056  0.00  0.00    -0.018 S 
BRANCH  18  20
ATOM     20  N   UNL     1       5.320   7.030  -3.909  0.00  0.00    -0.294 N 
ATOM     21  H   UNL     1       4.550   6.623  -4.336  0.00  0.00    +0.154 HD
BRANCH  20  22
ATOM     22  C   UNL     1       5.939   8.142  -4.495  0.00  0.00    +0.077 A 
ATOM     23  C   UNL     1       7.319   8.180  -4.628  0.00  0.00    +0.059 A 
ATOM     24  C   UNL     1       7.928   9.278  -5.207  0.00  0.00    +0.128 A 
ATOM     25  C   UNL     1       7.164  10.340  -5.655  0.00  0.00    +0.036 A 
ATOM     26  C   UNL     1       5.788  10.309  -5.526  0.00  0.00    +0.049 A 
ATOM     27  C   UNL     1       5.170   9.210  -4.952  0.00  0.00    +0.138 A 
BRANCH  24  28
ATOM     28  N   UNL     1       9.401   9.317  -5.348  0.00  0.00    +0.056 N 
ATOM     29  O   UNL     1      10.070   8.389  -4.956  0.00  0.00    -0.126 OA
ATOM     30  O   UNL     1       9.934  10.276  -5.854  0.00  0.00    -0.126 OA
ENDBRANCH  24  28
BRANCH  27  31
ATOM     31  O   UNL     1       3.816   9.176  -4.830  0.00  0.00    -0.505 OA
ATOM     32  H   UNL     1       3.486   9.550  -4.001  0.00  0.00    +0.292 HD
ENDBRANCH  27  31
ENDBRANCH  20  22
ENDBRANCH  18  20
ENDBRANCH   3  18
TORSDOF 7
