REMARK  Name = ZINC65119293
REMARK  6 active torsions:
REMARK  status: ('A' for Active; 'I' for Inactive)
REMARK    1  A    between atoms: C_1  and  C_2
REMARK    2  A    between atoms: C_6  and  C_24
REMARK    3  A    between atoms: C_7  and  N_8
REMARK    4  A    between atoms: N_8  and  S_9
REMARK    5  A    between atoms: S_9  and  C_12
REMARK    6  A    between atoms: C_14  and  C_17
REMARK                            x       y       z     vdW  Elec       q    Type
REMARK                         _______ _______ _______ _____ _____    ______ ____
ROOT
ATOM      1  C   UNL     1      -0.484   0.227   5.095  0.00  0.00    +0.148 A 
ATOM      2  C   UNL     1      -1.664   0.639   5.611  0.00  0.00    +0.046 A 
ATOM      3  C   UNL     1      -1.661   1.596   6.622  0.00  0.00    +0.011 A 
ATOM      4  C   UNL     1      -0.460   2.083   7.055  0.00  0.00    +0.057 A 
ATOM      5  S   UNL     1       0.695   1.181   6.035  0.00  0.00    -0.076 S 
ENDROOT
BRANCH   3   6
ATOM      6  C   UNL     1      -2.933   2.076   7.215  0.00  0.00    +0.092 A 
ATOM      7  C   UNL     1      -2.909   3.049   8.241  0.00  0.00    +0.035 A 
ATOM      8  C   UNL     1      -4.098   3.467   8.762  0.00  0.00    +0.073 A 
ATOM      9  C   UNL     1      -5.283   2.900   8.243  0.00  0.00    +0.265 A 
ATOM     10  O   UNL     1      -6.370   3.243   8.679  0.00  0.00    -0.266 OA
ATOM     11  N   UNL     1      -5.205   1.979   7.265  0.00  0.00    -0.243 N 
ATOM     12  N   UNL     1      -4.077   1.600   6.781  0.00  0.00    -0.171 NA
ATOM     13  H   UNL     1      -6.022   1.593   6.913  0.00  0.00    +0.192 HD
ENDBRANCH   3   6
BRANCH   1  14
ATOM     14  S   UNL     1      -0.186  -0.957   3.824  0.00  0.00    +0.098 S 
ATOM     15  O   UNL     1      -1.321  -1.812   3.791  0.00  0.00    -0.148 OA
ATOM     16  O   UNL     1       1.132  -1.448   4.027  0.00  0.00    -0.148 OA
BRANCH  14  17
ATOM     17  N   UNL     1      -0.169  -0.137   2.385  0.00  0.00    -0.097 NA
BRANCH  17  24
ATOM     18  C   UNL     1       2.250   0.334   0.964  0.00  0.00    +0.046 C 
ATOM     19  C   UNL     1       1.205  -0.629   0.463  0.00  0.00    -0.026 A 
ATOM     20  C   UNL     1       1.408  -1.319  -0.716  0.00  0.00    +0.005 A 
ATOM     21  C   UNL     1       0.449  -2.202  -1.177  0.00  0.00    +0.001 A 
ATOM     22  C   UNL     1      -0.716  -2.399  -0.458  0.00  0.00    +0.005 A 
ATOM     23  C   UNL     1      -0.926  -1.713   0.722  0.00  0.00    -0.026 A 
ATOM     24  C   UNL     1       0.038  -0.828   1.190  0.00  0.00    +0.080 A 
ATOM     25  C   UNL     1      -2.196  -1.928   1.503  0.00  0.00    +0.046 C 
ENDBRANCH  17  24
ENDBRANCH  14  17
ENDBRANCH   1  14
TORSDOF 4
