REMARK  Name = ZINC66250919
REMARK  7 active torsions:
REMARK  status: ('A' for Active; 'I' for Inactive)
REMARK    1  A    between atoms: C_1  and  O_2
REMARK    2  A    between atoms: O_2  and  C_3
REMARK    3  A    between atoms: C_3  and  C_5
REMARK    4  A    between atoms: C_7  and  C_11
REMARK    5  A    between atoms: C_14  and  N_16
REMARK    6  A    between atoms: N_16  and  S_17
REMARK    7  A    between atoms: S_17  and  C_20
REMARK                            x       y       z     vdW  Elec       q    Type
REMARK                         _______ _______ _______ _____ _____    ______ ____
ROOT
ATOM      1  C   UNL     1       1.529  -5.327  -2.588  0.00  0.00    +0.082 A 
ATOM      2  C   UNL     1       1.301  -6.609  -2.178  0.00  0.00    +0.077 A 
ATOM      3  S   UNL     1       2.070  -7.526  -3.503  0.00  0.00    -0.057 S 
ATOM      4  C   UNL     1       2.591  -6.218  -4.425  0.00  0.00    +0.202 A 
ATOM      5  N   UNL     1       2.181  -5.176  -3.735  0.00  0.00    -0.222 NA
ENDROOT
BRANCH   1   8
ATOM      6  C   UNL     1       0.659  -2.065  -1.123  0.00  0.00    +0.125 A 
ATOM      7  C   UNL     1       1.241  -2.804  -2.129  0.00  0.00    +0.044 A 
ATOM      8  C   UNL     1       1.065  -4.160  -1.796  0.00  0.00    +0.019 A 
ATOM      9  C   UNL     1       0.388  -4.207  -0.611  0.00  0.00    +0.093 A 
ATOM     10  N   UNL     1       0.146  -2.946  -0.197  0.00  0.00    -0.355 N 
ATOM     11  H   UNL     1      -0.317  -2.700   0.619  0.00  0.00    +0.166 HD
BRANCH   6  12
ATOM     12  C   UNL     1       0.601  -0.603  -1.048  0.00  0.00    +0.355 C 
ATOM     13  O   UNL     1       1.094   0.071  -1.932  0.00  0.00    -0.243 OA
BRANCH  12  15
ATOM     14  C   UNL     1      -0.017   1.425   0.010  0.00  0.00    +0.280 C 
ATOM     15  O   UNL     1       0.002  -0.004   0.002  0.00  0.00    -0.463 OA
ENDBRANCH  12  15
ENDBRANCH   6  12
ENDBRANCH   1   8
BRANCH   4  16
ATOM     16  N   UNL     1       3.282  -6.235  -5.625  0.00  0.00    -0.070 NA
BRANCH  16  17
ATOM     17  S   UNL     1       3.694  -7.679  -6.324  0.00  0.00    +0.093 S 
ATOM     18  O   UNL     1       4.636  -8.296  -5.457  0.00  0.00    -0.148 OA
ATOM     19  O   UNL     1       2.477  -8.310  -6.699  0.00  0.00    -0.148 OA
BRANCH  17  20
ATOM     20  C   UNL     1       4.552  -7.309  -7.818  0.00  0.00    +0.111 A 
ATOM     21  C   UNL     1       3.850  -7.166  -9.000  0.00  0.00    +0.030 A 
ATOM     22  C   UNL     1       4.522  -6.876 -10.172  0.00  0.00    +0.022 A 
ATOM     23  C   UNL     1       5.898  -6.729 -10.162  0.00  0.00    +0.041 A 
ATOM     24  C   UNL     1       6.600  -6.873  -8.979  0.00  0.00    +0.022 A 
ATOM     25  C   UNL     1       5.926  -7.158  -7.806  0.00  0.00    +0.030 A 
ATOM     26 CL   UNL     1       6.743  -6.366 -11.635  0.00  0.00    -0.084 Cl
ENDBRANCH  17  20
ENDBRANCH  16  17
ENDBRANCH   4  16
TORSDOF 6
