REMARK  Name = ZINC63731571
REMARK  14 active torsions:
REMARK  status: ('A' for Active; 'I' for Inactive)
REMARK    1  A    between atoms: C_1  and  C_2
REMARK    2  A    between atoms: C_2  and  C_3
REMARK    3  A    between atoms: C_6  and  N_9
REMARK    4  A    between atoms: C_10  and  S_21
REMARK    5  A    between atoms: C_15  and  C_18
REMARK    6  A    between atoms: S_21  and  C_22
REMARK    7  A    between atoms: C_22  and  C_23
REMARK    8  A    between atoms: N_25  and  C_26
REMARK    9  A    between atoms: C_26  and  C_27
REMARK   10  A    between atoms: C_27  and  C_28
REMARK   11  A    between atoms: C_31  and  O_36
REMARK   12  A    between atoms: C_32  and  O_34
REMARK   13  A    between atoms: O_34  and  C_35
REMARK   14  A    between atoms: O_36  and  C_37
REMARK                            x       y       z     vdW  Elec       q    Type
REMARK                         _______ _______ _______ _____ _____    ______ ____
ROOT
ATOM      1  N   UNL     1      -5.319  -1.968   0.042  0.00  0.00    -0.253 N 
ATOM      2  C   UNL     1      -6.071  -2.130  -1.205  0.00  0.00    +0.260 C 
ATOM      3  N   UNL     1      -7.412  -1.542  -1.136  0.00  0.00    -0.230 NA
ATOM      4  C   UNL     1      -8.032  -1.461  -0.004  0.00  0.00    +0.185 C 
ATOM      5  C   UNL     1      -7.357  -1.854   1.281  0.00  0.00    +0.083 C 
ATOM      6  C   UNL     1      -8.271  -1.658   2.236  0.00  0.00    +0.075 C 
ATOM      7  N   UNL     1      -9.388  -1.172   1.653  0.00  0.00    -0.152 NA
ATOM      8  N   UNL     1      -9.264  -1.041   0.376  0.00  0.00    -0.129 NA
ATOM      9  C   UNL     1      -8.088  -1.932   3.706  0.00  0.00    +0.068 C 
ATOM     10  C   UNL     1      -5.951  -2.318   1.249  0.00  0.00    +0.133 C 
ATOM     11  N   UNL     1      -5.368  -2.968   2.219  0.00  0.00    -0.285 NA
ATOM     12  H   UNL     1      -4.441  -3.240   2.132  0.00  0.00    +0.188 HD
ENDROOT
BRANCH   1  16
ATOM     13  C   UNL     1      -1.412  -0.526   0.013  0.00  0.00    -0.048 A 
ATOM     14  C   UNL     1      -2.057  -0.744   1.216  0.00  0.00    +0.005 A 
ATOM     15  C   UNL     1      -3.353  -1.222   1.229  0.00  0.00    +0.024 A 
ATOM     16  C   UNL     1      -4.008  -1.483   0.032  0.00  0.00    +0.038 A 
ATOM     17  C   UNL     1      -3.356  -1.263  -1.175  0.00  0.00    +0.024 A 
ATOM     18  C   UNL     1      -2.062  -0.779  -1.181  0.00  0.00    +0.005 A 
BRANCH  13  20
ATOM     19  C   UNL     1      -0.019   1.526  -0.017  0.00  0.00    +0.009 C 
ATOM     20  C   UNL     1       0.002  -0.004   0.002  0.00  0.00    +0.032 C 
ENDBRANCH  13  20
ENDBRANCH   1  16
BRANCH   2  21
ATOM     21  S   UNL     1      -6.228  -3.900  -1.569  0.00  0.00    -0.106 S 
BRANCH  21  22
ATOM     22  C   UNL     1      -7.117  -4.566  -0.135  0.00  0.00    +0.168 C 
BRANCH  22  23
ATOM     23  C   UNL     1      -7.316  -6.049  -0.311  0.00  0.00    +0.223 C 
ATOM     24  O   UNL     1      -6.899  -6.603  -1.306  0.00  0.00    -0.275 OA
ATOM     25  N   UNL     1      -7.957  -6.761   0.637  0.00  0.00    -0.314 N 
ATOM     26  H   UNL     1      -8.291  -6.318   1.434  0.00  0.00    +0.149 HD
BRANCH  25  27
ATOM     27  C   UNL     1      -8.151  -8.203   0.466  0.00  0.00    +0.109 C 
BRANCH  27  28
ATOM     28  C   UNL     1      -8.901  -8.764   1.676  0.00  0.00    +0.054 C 
BRANCH  28  29
ATOM     29  C   UNL     1      -9.100 -10.247   1.499  0.00  0.00    -0.042 A 
ATOM     30  C   UNL     1     -10.232 -10.720   0.862  0.00  0.00    +0.007 A 
ATOM     31  C   UNL     1     -10.420 -12.080   0.698  0.00  0.00    +0.049 A 
ATOM     32  C   UNL     1      -9.471 -12.972   1.172  0.00  0.00    +0.161 A 
ATOM     33  C   UNL     1      -8.332 -12.496   1.813  0.00  0.00    +0.162 A 
ATOM     34  C   UNL     1      -8.148 -11.132   1.970  0.00  0.00    +0.053 A 
BRANCH  33  35
ATOM     35  O   UNL     1      -7.398 -13.368   2.280  0.00  0.00    -0.491 OA
ATOM     36  C   UNL     1      -6.254 -12.808   2.927  0.00  0.00    +0.277 C 
ENDBRANCH  33  35
BRANCH  32  37
ATOM     37  O   UNL     1      -9.654 -14.310   1.011  0.00  0.00    -0.491 OA
ATOM     38  C   UNL     1     -10.848 -14.726   0.345  0.00  0.00    +0.277 C 
ENDBRANCH  32  37
ENDBRANCH  28  29
ENDBRANCH  27  28
ENDBRANCH  25  27
ENDBRANCH  22  23
ENDBRANCH  21  22
ENDBRANCH   2  21
TORSDOF 10
