REMARK  Name = ZINC12638953
REMARK  4 active torsions:
REMARK  status: ('A' for Active; 'I' for Inactive)
REMARK    1  A    between atoms: C_6  and  S_7
REMARK    2  A    between atoms: S_7  and  N_10
REMARK    3  A    between atoms: C_13  and  C_16
REMARK    4  A    between atoms: C_22  and  C_24
REMARK                            x       y       z     vdW  Elec       q    Type
REMARK                         _______ _______ _______ _____ _____    ______ ____
ROOT
ATOM      1  C   UNL     1       1.136   7.486   4.416  0.00  0.00    +0.222 C 
ATOM      2  O   UNL     1       2.033   8.268   4.184  0.00  0.00    -0.275 OA
ATOM      3  N   UNL     1       0.128   7.841   5.236  0.00  0.00    -0.263 N 
ATOM      4  C   UNL     1       0.115   9.106   5.816  0.00  0.00    +0.188 A 
ATOM      5  N   UNL     1       0.986  10.094   5.700  0.00  0.00    -0.126 NA
ATOM      6  N   UNL     1       0.827  11.196   6.295  0.00  0.00    -0.144 NA
ATOM      7  C   UNL     1      -0.220  11.396   7.070  0.00  0.00    +0.110 A 
ATOM      8  S   UNL     1      -1.046   9.818   6.897  0.00  0.00    -0.035 S 
ATOM      9  H   UNL     1      -0.590   7.216   5.422  0.00  0.00    +0.157 HD
ENDROOT
BRANCH   7  10
ATOM     10  C   UNL     1      -0.611  12.609   7.874  0.00  0.00    +0.022 C 
ATOM     11  C   UNL     1       0.486  12.921   8.893  0.00  0.00    +0.017 C 
ATOM     12  C   UNL     1       0.090  14.153   9.710  0.00  0.00    -0.010 C 
ATOM     13  C   UNL     1      -0.091  15.349   8.773  0.00  0.00    +0.007 C 
ATOM     14  C   UNL     1      -1.189  15.037   7.753  0.00  0.00    -0.010 C 
ATOM     15  C   UNL     1      -0.792  13.805   6.937  0.00  0.00    +0.017 C 
ATOM     16  C   UNL     1      -2.503  14.761   8.487  0.00  0.00    +0.007 C 
ATOM     17  C   UNL     1      -2.322  13.565   9.424  0.00  0.00    -0.010 C 
ATOM     18  C   UNL     1      -1.224  13.877  10.443  0.00  0.00    +0.007 C 
ATOM     19  C   UNL     1      -1.925  12.333   8.608  0.00  0.00    +0.017 C 
ENDBRANCH   7  10
BRANCH   1  23
ATOM     20  N   UNL     1       1.154   4.329   1.596  0.00  0.00    -0.177 NA
ATOM     21  C   UNL     1      -0.107   4.535   2.322  0.00  0.00    +0.110 C 
ATOM     22  C   UNL     1      -0.106   5.935   2.932  0.00  0.00    +0.030 C 
ATOM     23  C   UNL     1       1.149   6.116   3.788  0.00  0.00    +0.078 C 
ATOM     24  C   UNL     1       2.394   5.970   2.909  0.00  0.00    +0.030 C 
ATOM     25  C   UNL     1       2.422   4.565   2.300  0.00  0.00    +0.110 C 
BRANCH  20  26
ATOM     26  S   UNL     1       1.146   3.847   0.011  0.00  0.00    +0.061 S 
ATOM     27  O   UNL     1       2.380   4.274  -0.549  0.00  0.00    -0.153 OA
ATOM     28  O   UNL     1      -0.110   4.239  -0.526  0.00  0.00    -0.153 OA
BRANCH  26  34
ATOM     29  C   UNL     1      -0.017   1.378   0.010  0.00  0.00    +0.030 A 
ATOM     30  C   UNL     1       0.002  -0.004   0.002  0.00  0.00    +0.022 A 
ATOM     31  C   UNL     1       1.210  -0.679  -0.013  0.00  0.00    +0.041 A 
ATOM     32  C   UNL     1       2.398   0.030  -0.021  0.00  0.00    +0.022 A 
ATOM     33  C   UNL     1       2.378   1.412  -0.013  0.00  0.00    +0.030 A 
ATOM     34  C   UNL     1       1.171   2.086   0.002  0.00  0.00    +0.106 A 
ATOM     35 CL   UNL     1       1.234  -2.415  -0.022  0.00  0.00    -0.084 Cl
ENDBRANCH  26  34
ENDBRANCH  20  26
ENDBRANCH   1  23
TORSDOF 4
