REMARK  Name = ZINC39599870
REMARK  11 active torsions:
REMARK  status: ('A' for Active; 'I' for Inactive)
REMARK    1  A    between atoms: C_1  and  C_2
REMARK    2  A    between atoms: C_2  and  C_3
REMARK    3  A    between atoms: C_3  and  C_4
REMARK    4  A    between atoms: C_4  and  C_5
REMARK    5  A    between atoms: C_5  and  C_7
REMARK    6  A    between atoms: C_5  and  C_8
REMARK    7  A    between atoms: C_12  and  C_21
REMARK    8  A    between atoms: N_23  and  C_24
REMARK    9  A    between atoms: C_24  and  C_25
REMARK   10  A    between atoms: C_28  and  O_31
REMARK   11  A    between atoms: O_31  and  C_32
REMARK                            x       y       z     vdW  Elec       q    Type
REMARK                         _______ _______ _______ _____ _____    ______ ____
ROOT
ATOM      1  C   UNL     1       1.301  -4.262  -2.827  0.00  0.00    +0.218 C 
ATOM      2  O   UNL     1       0.629  -4.949  -2.088  0.00  0.00    -0.275 OA
ATOM      3  N   UNL     1       2.061  -4.839  -3.779  0.00  0.00    -0.300 N 
ATOM      4  C   UNL     1       3.024  -4.183  -4.694  0.00  0.00    +0.121 C 
ATOM      5  C   UNL     1       4.212  -5.167  -4.781  0.00  0.00    +0.100 C 
ATOM      6  C   UNL     1       3.615  -6.537  -4.422  0.00  0.00    -0.004 C 
ATOM      7  C   UNL     1       2.128  -6.276  -4.141  0.00  0.00    +0.115 C 
ATOM      8  C   UNL     1       3.770  -7.505  -5.591  0.00  0.00    -0.010 C 
ATOM      9  C   UNL     1       3.221  -8.877  -5.189  0.00  0.00    -0.082 C 
ATOM     10  N   UNL     1       3.951  -9.374  -4.017  0.00  0.00    +0.379 N 
ATOM     11  C   UNL     1       3.720  -8.486  -2.870  0.00  0.00    -0.082 C 
ATOM     12  C   UNL     1       4.291  -7.098  -3.174  0.00  0.00    -0.010 C 
ATOM     13  H   UNL     1       3.629 -10.303  -3.791  0.00  0.00    -0.086 HD
ATOM     14  H   UNL     1       4.938  -9.403  -4.224  0.00  0.00    -0.086 HD
ENDROOT
BRANCH   5  15
ATOM     15  C   UNL     1       4.775  -5.187  -6.179  0.00  0.00    +0.218 C 
ATOM     16  O   UNL     1       4.055  -4.955  -7.126  0.00  0.00    -0.275 OA
ATOM     17  N   UNL     1       6.080  -5.464  -6.376  0.00  0.00    -0.311 N 
ATOM     18  H   UNL     1       6.656  -5.650  -5.618  0.00  0.00    +0.149 HD
BRANCH  17  19
ATOM     19  C   UNL     1       6.627  -5.484  -7.735  0.00  0.00    +0.139 C 
BRANCH  19  20
ATOM     20  C   UNL     1       8.096  -5.816  -7.680  0.00  0.00    -0.030 A 
ATOM     21  C   UNL     1       9.029  -4.803  -7.561  0.00  0.00    +0.009 A 
ATOM     22  C   UNL     1      10.376  -5.104  -7.511  0.00  0.00    +0.046 A 
ATOM     23  C   UNL     1      10.792  -6.426  -7.580  0.00  0.00    +0.130 A 
ATOM     24  C   UNL     1       9.854  -7.441  -7.698  0.00  0.00    +0.046 A 
ATOM     25  C   UNL     1       8.508  -7.134  -7.743  0.00  0.00    +0.009 A 
BRANCH  23  26
ATOM     26  O   UNL     1      12.117  -6.726  -7.531  0.00  0.00    -0.406 OA
BRANCH  26  27
ATOM     27  C   UNL     1      12.473  -8.108  -7.607  0.00  0.00    +0.575 C 
ATOM     28  F   UNL     1      12.010  -8.643  -8.814  0.00  0.00    -0.133 F 
ATOM     29  F   UNL     1      13.864  -8.235  -7.543  0.00  0.00    -0.133 F 
ATOM     30  F   UNL     1      11.892  -8.798  -6.538  0.00  0.00    -0.133 F 
ENDBRANCH  26  27
ENDBRANCH  23  26
ENDBRANCH  19  20
ENDBRANCH  17  19
ENDBRANCH   5  15
BRANCH   1  31
ATOM     31  C   UNL     1       1.286  -2.762  -2.682  0.00  0.00    +0.072 C 
ATOM     32  C   UNL     1       2.370  -2.336  -1.689  0.00  0.00    +0.017 C 
BRANCH  31  33
ATOM     33  C   UNL     1      -0.083  -2.313  -2.167  0.00  0.00    +0.012 C 
BRANCH  33  34
ATOM     34  C   UNL     1      -0.140  -0.784  -2.138  0.00  0.00    +0.000 C 
BRANCH  34  36
ATOM     35  C   UNL     1      -1.566   1.194  -1.593  0.00  0.00    +0.004 C 
ATOM     36  C   UNL     1      -1.509  -0.335  -1.623  0.00  0.00    -0.003 C 
ENDBRANCH  34  36
ENDBRANCH  33  34
ENDBRANCH  31  33
ENDBRANCH   1  31
TORSDOF 9
