REMARK  Name = ZINC09289394
REMARK  8 active torsions:
REMARK  status: ('A' for Active; 'I' for Inactive)
REMARK    1  A    between atoms: C_1  and  C_2
REMARK    2  A    between atoms: C_2  and  O_3
REMARK    3  A    between atoms: O_3  and  C_4
REMARK    4  A    between atoms: C_8  and  C_11
REMARK    5  A    between atoms: C_9  and  O_10
REMARK    6  A    between atoms: N_12  and  N_13
REMARK    7  A    between atoms: C_14  and  C_16
REMARK    8  A    between atoms: C_16  and  C_17
REMARK                            x       y       z     vdW  Elec       q    Type
REMARK                         _______ _______ _______ _____ _____    ______ ____
ROOT
ATOM      1  C   UNL     1      -0.530   1.435  -4.763  0.00  0.00    +0.142 C 
ATOM      2  N   UNL     1      -0.966   1.736  -3.578  0.00  0.00    -0.188 NA
ENDROOT
BRANCH   1   7
ATOM      3  C   UNL     1      -3.055   3.168  -6.949  0.00  0.00    +0.163 A 
ATOM      4  C   UNL     1      -2.581   2.841  -8.210  0.00  0.00    +0.064 A 
ATOM      5  C   UNL     1      -1.446   2.060  -8.349  0.00  0.00    +0.022 A 
ATOM      6  C   UNL     1      -0.776   1.601  -7.234  0.00  0.00    +0.028 A 
ATOM      7  C   UNL     1      -1.242   1.923  -5.957  0.00  0.00    +0.041 A 
ATOM      8  C   UNL     1      -2.394   2.708  -5.817  0.00  0.00    +0.167 A 
ATOM      9 BR   UNL     1      -0.811   1.622 -10.076  0.00  0.00    -0.050 Br
BRANCH   8  10
ATOM     10  O   UNL     1      -2.860   3.022  -4.579  0.00  0.00    -0.503 OA
ATOM     11  H   UNL     1      -2.497   3.843  -4.219  0.00  0.00    +0.292 HD
ENDBRANCH   8  10
BRANCH   3  12
ATOM     12  O   UNL     1      -4.171   3.934  -6.820  0.00  0.00    -0.489 OA
BRANCH  12  14
ATOM     13  C   UNL     1      -6.032   5.212  -7.683  0.00  0.00    +0.048 C 
ATOM     14  C   UNL     1      -4.803   4.368  -8.026  0.00  0.00    +0.226 C 
ENDBRANCH  12  14
ENDBRANCH   3  12
ENDBRANCH   1   7
BRANCH   2  15
ATOM     15  N   UNL     1      -0.288   1.272  -2.443  0.00  0.00    -0.207 N 
ATOM     16  C   UNL     1      -0.742   1.585  -1.213  0.00  0.00    +0.237 C 
ATOM     17  O   UNL     1      -1.736   2.268  -1.088  0.00  0.00    -0.274 OA
ATOM     18  H   UNL     1       0.507   0.726  -2.543  0.00  0.00    +0.177 HD
BRANCH  16  19
ATOM     19  C   UNL     1      -0.013   1.086   0.008  0.00  0.00    +0.132 C 
BRANCH  19  20
ATOM     20  C   UNL     1      -0.718   1.572   1.248  0.00  0.00    -0.039 A 
ATOM     21  C   UNL     1      -0.360   2.779   1.819  0.00  0.00    +0.005 A 
ATOM     22  C   UNL     1      -1.010   3.227   2.953  0.00  0.00    +0.015 A 
ATOM     23  C   UNL     1      -2.012   2.463   3.523  0.00  0.00    +0.018 A 
ATOM     24  C   UNL     1      -2.366   1.253   2.955  0.00  0.00    +0.015 A 
ATOM     25  C   UNL     1      -1.719   0.808   1.818  0.00  0.00    +0.005 A 
ATOM     26 BR   UNL     1      -2.897   3.073   5.079  0.00  0.00    -0.050 Br
ENDBRANCH  19  20
ENDBRANCH  16  19
ENDBRANCH   2  15
TORSDOF 7
