REMARK  Name = ZINC09123835
REMARK  5 active torsions:
REMARK  status: ('A' for Active; 'I' for Inactive)
REMARK    1  A    between atoms: C_6  and  N_7
REMARK    2  A    between atoms: N_19  and  C_20
REMARK    3  A    between atoms: C_20  and  C_22
REMARK    4  A    between atoms: C_22  and  C_23
REMARK    5  A    between atoms: C_23  and  C_24
REMARK                            x       y       z     vdW  Elec       q    Type
REMARK                         _______ _______ _______ _____ _____    ______ ____
ROOT
ATOM      1  N   UNL     1      -1.088  -0.870   0.008  0.00  0.00    -0.276 N 
ATOM      2  C   UNL     1      -0.725  -2.253  -0.000  0.00  0.00    +0.116 C 
ATOM      3  C   UNL     1      -1.641  -3.370  -0.473  0.00  0.00    +0.190 C 
ATOM      4  S   UNL     1      -0.438  -4.750  -0.641  0.00  0.00    -0.028 S 
ATOM      5  O   UNL     1      -0.438  -5.221  -1.982  0.00  0.00    -0.174 OA
ATOM      6  O   UNL     1      -0.648  -5.667   0.423  0.00  0.00    -0.174 OA
ATOM      7  C   UNL     1       1.132  -3.811  -0.331  0.00  0.00    +0.182 C 
ATOM      8  C   UNL     1       0.648  -2.412  -0.756  0.00  0.00    +0.097 C 
ATOM      9  S   UNL     1       1.444  -1.009   0.106  0.00  0.00    -0.086 S 
ATOM     10  C   UNL     1      -0.034   0.008   0.245  0.00  0.00    +0.154 C 
ATOM     11  N   UNL     1      -0.103   1.308   0.508  0.00  0.00    -0.159 NA
ENDROOT
BRANCH   1  17
ATOM     12  C   UNL     1      -2.714   0.292  -1.348  0.00  0.00    +0.027 A 
ATOM     13  C   UNL     1      -4.011   0.720  -1.562  0.00  0.00    +0.051 A 
ATOM     14  C   UNL     1      -5.000   0.437  -0.633  0.00  0.00    +0.162 A 
ATOM     15  C   UNL     1      -4.689  -0.285   0.514  0.00  0.00    +0.164 A 
ATOM     16  C   UNL     1      -3.389  -0.718   0.726  0.00  0.00    +0.073 A 
ATOM     17  C   UNL     1      -2.401  -0.432  -0.206  0.00  0.00    +0.039 A 
ATOM     18  O   UNL     1      -5.648  -0.580   1.433  0.00  0.00    -0.485 OA
ATOM     19  C   UNL     1      -6.857   0.185   1.371  0.00  0.00    +0.270 C 
ATOM     20  C   UNL     1      -7.309   0.250  -0.094  0.00  0.00    +0.270 C 
ATOM     21  O   UNL     1      -6.270   0.874  -0.857  0.00  0.00    -0.485 OA
ENDBRANCH   1  17
BRANCH  11  22
ATOM     22  C   UNL     1       1.012   2.005   0.711  0.00  0.00    +0.239 C 
ATOM     23  O   UNL     1       2.093   1.453   0.655  0.00  0.00    -0.274 OA
BRANCH  22  24
ATOM     24  C   UNL     1       0.933   3.480   1.011  0.00  0.00    +0.109 C 
BRANCH  24  25
ATOM     25  C   UNL     1       2.345   4.038   1.201  0.00  0.00    +0.134 C 
BRANCH  25  26
ATOM     26  C   UNL     1       2.267   5.513   1.500  0.00  0.00    +0.356 C 
ATOM     27  O   UNL     1       1.192   6.062   1.556  0.00  0.00    -0.246 OA
ATOM     28  O   UNL     1       3.391   6.217   1.705  0.00  0.00    -0.246 OA
ENDBRANCH  25  26
ENDBRANCH  24  25
ENDBRANCH  22  24
ENDBRANCH  11  22
TORSDOF 5
