REMARK  Name = ZINC42444987
REMARK  9 active torsions:
REMARK  status: ('A' for Active; 'I' for Inactive)
REMARK    1  A    between atoms: C_1  and  C_2
REMARK    2  A    between atoms: C_2  and  N_3
REMARK    3  A    between atoms: N_3  and  C_4
REMARK    4  A    between atoms: N_3  and  C_12
REMARK    5  A    between atoms: C_4  and  C_5
REMARK    6  A    between atoms: C_12  and  C_13
REMARK    7  A    between atoms: C_13  and  C_15
REMARK    8  A    between atoms: C_13  and  C_16
REMARK    9  A    between atoms: N_17  and  O_18
REMARK                            x       y       z     vdW  Elec       q    Type
REMARK                         _______ _______ _______ _____ _____    ______ ____
ROOT
ATOM      1  N   UNL     1       0.728  -0.889   1.476  0.00  0.00    +0.383 N 
ATOM      2  H   UNL     1       1.529  -0.280   1.548  0.00  0.00    -0.081 HD
ENDROOT
BRANCH   1   4
ATOM      3  C   UNL     1       0.212   0.274  -0.616  0.00  0.00    -0.017 C 
ATOM      4  C   UNL     1      -0.338  -0.210   0.727  0.00  0.00    -0.082 C 
ENDBRANCH   1   4
BRANCH   1   5
ATOM      5  C   UNL     1       0.243  -1.224   2.822  0.00  0.00    -0.043 C 
BRANCH   5   6
ATOM      6  C   UNL     1      -0.006   0.045   3.595  0.00  0.00    -0.063 A 
ATOM      7  C   UNL     1       1.038   0.672   4.251  0.00  0.00    +0.002 A 
ATOM      8  C   UNL     1       0.809   1.836   4.960  0.00  0.00    +0.001 A 
ATOM      9  C   UNL     1      -0.463   2.374   5.015  0.00  0.00    +0.015 A 
ATOM     10  C   UNL     1      -1.507   1.748   4.359  0.00  0.00    +0.018 A 
ATOM     11  C   UNL     1      -1.277   0.586   3.645  0.00  0.00    +0.017 A 
ATOM     12 BR   UNL     1      -3.248   2.483   4.435  0.00  0.00    -0.050 Br
ENDBRANCH   5   6
ENDBRANCH   1   5
BRANCH   1  13
ATOM     13  C   UNL     1       1.112  -2.121   0.774  0.00  0.00    -0.068 C 
BRANCH  13  14
ATOM     14  C   UNL     1       2.312  -2.757   1.478  0.00  0.00    +0.036 C 
ATOM     15  C   UNL     1       3.515  -1.816   1.384  0.00  0.00    +0.013 C 
BRANCH  14  16
ATOM     16  C   UNL     1       2.647  -4.068   0.815  0.00  0.00    +0.133 C 
ATOM     17  N   UNL     1       3.554  -4.114  -0.104  0.00  0.00    -0.077 NA
ATOM     18  N   UNL     1       1.987  -5.217   1.189  0.00  0.00    -0.344 N 
ATOM     19  H   UNL     1       1.306  -5.183   1.880  0.00  0.00    +0.144 HD
ATOM     20  H   UNL     1       2.202  -6.061   0.763  0.00  0.00    +0.144 HD
BRANCH  17  21
ATOM     21  O   UNL     1       3.868  -5.346  -0.727  0.00  0.00    -0.408 OA
ATOM     22  H   UNL     1       4.558  -5.281  -1.402  0.00  0.00    +0.328 HD
ENDBRANCH  17  21
ENDBRANCH  14  16
ENDBRANCH  13  14
ENDBRANCH   1  13
TORSDOF 7
