REMARK  Name = ZINC17207896
REMARK  8 active torsions:
REMARK  status: ('A' for Active; 'I' for Inactive)
REMARK    1  A    between atoms: C_1  and  C_2
REMARK    2  A    between atoms: C_2  and  O_3
REMARK    3  A    between atoms: O_3  and  C_4
REMARK    4  A    between atoms: C_7  and  N_10
REMARK    5  A    between atoms: C_14  and  C_19
REMARK    6  A    between atoms: C_19  and  N_54
REMARK    7  A    between atoms: C_21  and  C_28
REMARK    8  A    between atoms: C_24  and  C_27
REMARK                            x       y       z     vdW  Elec       q    Type
REMARK                         _______ _______ _______ _____ _____    ______ ____
ROOT
ATOM      1  N   UNL     1      -3.819  -0.034  -5.357  0.00  0.00    -0.213 NA
ATOM      2  C   UNL     1      -2.837   0.779  -5.002  0.00  0.00    +0.233 A 
ATOM      3  N   UNL     1      -2.030   0.471  -3.925  0.00  0.00    -0.314 N 
ATOM      4  H   UNL     1      -2.175  -0.344  -3.420  0.00  0.00    +0.170 HD
ATOM      5  C   UNL     1      -1.036   1.322  -3.582  0.00  0.00    +0.097 A 
ATOM      6  N   UNL     1      -0.845   2.417  -4.272  0.00  0.00    -0.204 NA
ATOM      7  C   UNL     1      -1.625   2.716  -5.322  0.00  0.00    +0.217 A 
ATOM      8  N   UNL     1      -2.610   1.911  -5.686  0.00  0.00    -0.179 NA
ATOM      9  N   UNL     1      -1.399   3.873  -6.027  0.00  0.00    -0.327 N 
ATOM     10  H   UNL     1      -0.679   4.468  -5.766  0.00  0.00    +0.145 HD
ATOM     11  H   UNL     1      -1.960   4.095  -6.787  0.00  0.00    +0.145 HD
ENDROOT
BRANCH   1  15
ATOM     12  C   UNL     1      -6.418   1.062  -8.388  0.00  0.00    +0.121 A 
ATOM     13  C   UNL     1      -5.312   0.275  -8.676  0.00  0.00    +0.048 A 
ATOM     14  C   UNL     1      -4.443  -0.092  -7.670  0.00  0.00    +0.031 A 
ATOM     15  C   UNL     1      -4.678   0.329  -6.359  0.00  0.00    +0.068 A 
ATOM     16  C   UNL     1      -5.795   1.116  -6.073  0.00  0.00    +0.031 A 
ATOM     17  C   UNL     1      -6.656   1.483  -7.087  0.00  0.00    +0.048 A 
BRANCH  12  18
ATOM     18  O   UNL     1      -7.272   1.422  -9.383  0.00  0.00    -0.492 OA
BRANCH  18  20
ATOM     19  C   UNL     1      -9.232   2.533 -10.259  0.00  0.00    +0.048 C 
ATOM     20  C   UNL     1      -8.391   2.232  -9.017  0.00  0.00    +0.225 C 
ENDBRANCH  18  20
ENDBRANCH  12  18
ENDBRANCH   1  15
BRANCH   5  21
ATOM     21  C   UNL     1      -0.147   1.007  -2.407  0.00  0.00    -0.003 C 
BRANCH  21  29
ATOM     22  C   UNL     1      -0.019   1.104   0.008  0.00  0.00    -0.075 C 
ATOM     23  C   UNL     1      -0.735   1.610   1.263  0.00  0.00    -0.031 C 
ATOM     24  C   UNL     1      -0.763   3.141   1.247  0.00  0.00    +0.003 C 
ATOM     25  C   UNL     1      -1.460   3.617  -0.031  0.00  0.00    -0.031 C 
ATOM     26  C   UNL     1      -0.723   3.053  -1.248  0.00  0.00    -0.075 C 
ATOM     27  C   UNL     1      -1.441   5.146  -0.085  0.00  0.00    +0.005 C 
ATOM     28  C   UNL     1      -2.167   1.072   1.285  0.00  0.00    +0.005 C 
ATOM     29  N   UNL     1      -0.752   1.576  -1.185  0.00  0.00    +0.385 N 
ATOM     30  H   UNL     1      -1.728   1.265  -1.121  0.00  0.00    -0.081 HD
ENDBRANCH  21  29
ENDBRANCH   5  21
TORSDOF 5
