REMARK  Name = ZINC17425515
REMARK  3 active torsions:
REMARK  status: ('A' for Active; 'I' for Inactive)
REMARK    1  A    between atoms: C_8  and  N_11
REMARK    2  A    between atoms: C_12  and  C_13
REMARK    3  A    between atoms: C_18  and  O_19
REMARK                            x       y       z     vdW  Elec       q    Type
REMARK                         _______ _______ _______ _____ _____    ______ ____
ROOT
ATOM      1  C   UNL     1      -0.016   1.357   0.009  0.00  0.00    +0.001 A 
ATOM      2  C   UNL     1       1.170   2.088   0.002  0.00  0.00    +0.002 A 
ATOM      3  C   UNL     1       2.380   1.464  -0.013  0.00  0.00    +0.028 A 
ATOM      4  C   UNL     1       2.442   0.059  -0.021  0.00  0.00    +0.071 A 
ATOM      5  C   UNL     1       1.233  -0.682  -0.013  0.00  0.00    +0.002 A 
ATOM      6  C   UNL     1       0.002  -0.004   0.002  0.00  0.00    +0.010 A 
ATOM      7  C   UNL     1       1.291  -2.086  -0.021  0.00  0.00    +0.039 A 
ATOM      8  C   UNL     1       2.545  -2.686  -0.036  0.00  0.00    +0.083 A 
ATOM      9  C   UNL     1       3.698  -1.880  -0.043  0.00  0.00    +0.139 A 
ATOM     10  N   UNL     1       3.620  -0.574  -0.035  0.00  0.00    -0.253 NA
ENDROOT
BRANCH   8  11
ATOM     11  N   UNL     1       2.657  -4.050  -0.044  0.00  0.00    -0.253 NA
ATOM     12  C   UNL     1       3.498  -4.630  -0.854  0.00  0.00    +0.123 C 
BRANCH  12  13
ATOM     13  C   UNL     1       3.618  -6.096  -0.862  0.00  0.00    +0.034 A 
ATOM     14  C   UNL     1       4.524  -6.723  -1.725  0.00  0.00    +0.013 A 
ATOM     15  C   UNL     1       4.630  -8.096  -1.727  0.00  0.00    +0.001 A 
ATOM     16  C   UNL     1       3.845  -8.860  -0.879  0.00  0.00    +0.004 A 
ATOM     17  C   UNL     1       2.947  -8.255  -0.022  0.00  0.00    +0.046 A 
ATOM     18  C   UNL     1       2.830  -6.874  -0.001  0.00  0.00    +0.125 A 
BRANCH  18  19
ATOM     19  O   UNL     1       1.952  -6.277   0.845  0.00  0.00    -0.506 OA
ATOM     20  H   UNL     1       1.069  -6.152   0.472  0.00  0.00    +0.292 HD
ENDBRANCH  18  19
ENDBRANCH  12  13
ENDBRANCH   8  11
TORSDOF 3
