REMARK  Name = ZINC08836502
REMARK  4 active torsions:
REMARK  status: ('A' for Active; 'I' for Inactive)
REMARK    1  A    between atoms: N_10  and  C_11
REMARK    2  A    between atoms: C_11  and  C_13
REMARK    3  A    between atoms: N_17  and  C_20
REMARK    4  A    between atoms: C_20  and  C_21
REMARK                            x       y       z     vdW  Elec       q    Type
REMARK                         _______ _______ _______ _____ _____    ______ ____
ROOT
ATOM      1  C   UNL     1       2.489  -6.266  -0.053  0.00  0.00    +0.150 A 
ATOM      2  C   UNL     1       1.531  -7.283  -0.059  0.00  0.00    +0.201 A 
ATOM      3  C   UNL     1       1.949  -8.632  -0.076  0.00  0.00    +0.020 A 
ATOM      4  C   UNL     1       3.264  -8.925  -0.095  0.00  0.00    +0.029 A 
ATOM      5  N   UNL     1       4.197  -7.926  -0.082  0.00  0.00    -0.304 N 
ATOM      6  C   UNL     1       3.856  -6.629  -0.069  0.00  0.00    +0.268 A 
ATOM      7  O   UNL     1       4.719  -5.768  -0.065  0.00  0.00    -0.267 OA
ATOM      8  C   UNL     1       3.781 -10.341  -0.142  0.00  0.00    +0.054 C 
ATOM      9  C   UNL     1       2.698 -11.327   0.288  0.00  0.00    +0.006 C 
ATOM     10  C   UNL     1       1.430 -11.032  -0.523  0.00  0.00    +0.005 C 
ATOM     11  C   UNL     1       0.873  -9.686  -0.065  0.00  0.00    +0.041 C 
ATOM     12  O   UNL     1       0.213  -6.979  -0.048  0.00  0.00    -0.287 OA
ENDROOT
BRANCH   1  13
ATOM     13  C   UNL     1       2.085  -4.850  -0.037  0.00  0.00    +0.278 C 
ATOM     14  O   UNL     1       0.901  -4.553  -0.024  0.00  0.00    -0.268 OA
BRANCH  13  24
ATOM     15  C   UNL     1      -0.017   1.369   0.033  0.00  0.00    +0.002 A 
ATOM     16  C   UNL     1       1.157   2.104   0.028  0.00  0.00    +0.001 A 
ATOM     17  C   UNL     1       2.369   1.437   0.012  0.00  0.00    +0.017 A 
ATOM     18  C   UNL     1       2.389   0.063   0.001  0.00  0.00    +0.039 A 
ATOM     19  C   UNL     1       1.218  -0.710   0.005  0.00  0.00    +0.055 A 
ATOM     20  C   UNL     1       0.002  -0.004   0.021  0.00  0.00    +0.027 A 
ATOM     21  N   UNL     1       1.396  -2.081  -0.008  0.00  0.00    -0.335 N 
ATOM     22  H   UNL     1       0.625  -2.669  -0.006  0.00  0.00    +0.168 HD
ATOM     23  C   UNL     1       2.652  -2.611  -0.024  0.00  0.00    +0.164 A 
ATOM     24  N   UNL     1       3.017  -3.887  -0.038  0.00  0.00    -0.152 NA
ATOM     25  S   UNL     1       3.683  -1.153  -0.021  0.00  0.00    -0.052 S 
ENDBRANCH  13  24
ENDBRANCH   1  13
BRANCH   5  26
ATOM     26  C   UNL     1       5.618  -8.285  -0.089  0.00  0.00    +0.199 C 
BRANCH  26  27
ATOM     27  C   UNL     1       6.072  -8.511  -1.508  0.00  0.00    +0.125 A 
ATOM     28  C   UNL     1       6.580  -7.576  -2.330  0.00  0.00    +0.046 A 
ATOM     29  C   UNL     1       6.869  -8.220  -3.554  0.00  0.00    +0.041 A 
ATOM     30  C   UNL     1       6.521  -9.511  -3.407  0.00  0.00    +0.195 A 
ATOM     31  O   UNL     1       6.044  -9.683  -2.164  0.00  0.00    -0.466 OA
ENDBRANCH  26  27
ENDBRANCH   5  26
TORSDOF 4
