REMARK  Name = ZINC12425821
REMARK  9 active torsions:
REMARK  status: ('A' for Active; 'I' for Inactive)
REMARK    1  A    between atoms: C_1  and  C_2
REMARK    2  A    between atoms: C_2  and  C_4
REMARK    3  A    between atoms: C_2  and  O_20
REMARK    4  A    between atoms: N_6  and  C_7
REMARK    5  A    between atoms: C_7  and  C_8
REMARK    6  A    between atoms: N_10  and  C_11
REMARK    7  A    between atoms: O_20  and  C_21
REMARK    8  A    between atoms: C_21  and  C_23
REMARK    9  A    between atoms: C_23  and  C_24
REMARK                            x       y       z     vdW  Elec       q    Type
REMARK                         _______ _______ _______ _____ _____    ______ ____
ROOT
ATOM      1  C   UNL     1       5.764  -2.121  -2.914  0.00  0.00    +0.062 C 
ATOM      2  C   UNL     1       4.485  -2.951  -3.051  0.00  0.00    +0.258 C 
ENDROOT
BRANCH   2   3
ATOM      3  C   UNL     1       4.487  -3.662  -4.379  0.00  0.00    +0.254 C 
ATOM      4  O   UNL     1       3.654  -3.385  -5.216  0.00  0.00    -0.272 OA
ATOM      5  N   UNL     1       5.414  -4.605  -4.637  0.00  0.00    -0.304 N 
ATOM      6  H   UNL     1       6.080  -4.827  -3.968  0.00  0.00    +0.149 HD
BRANCH   5   7
ATOM      7  C   UNL     1       5.416  -5.297  -5.929  0.00  0.00    +0.200 C 
BRANCH   7   8
ATOM      8  C   UNL     1       6.544  -6.295  -5.963  0.00  0.00    +0.234 C 
ATOM      9  O   UNL     1       7.275  -6.417  -5.002  0.00  0.00    -0.274 OA
ATOM     10  N   UNL     1       6.741  -7.053  -7.060  0.00  0.00    -0.282 N 
ATOM     11  H   UNL     1       6.119  -7.002  -7.802  0.00  0.00    +0.155 HD
BRANCH  10  12
ATOM     12  C   UNL     1       7.845  -7.914  -7.128  0.00  0.00    +0.072 A 
ATOM     13  C   UNL     1       8.302  -8.550  -5.982  0.00  0.00    +0.029 A 
ATOM     14  C   UNL     1       9.390  -9.399  -6.050  0.00  0.00    +0.043 A 
ATOM     15  C   UNL     1      10.026  -9.617  -7.260  0.00  0.00    +0.161 A 
ATOM     16  C   UNL     1       9.573  -8.984  -8.407  0.00  0.00    +0.195 A 
ATOM     17  C   UNL     1       8.480  -8.136  -8.344  0.00  0.00    +0.182 A 
ATOM     18  F   UNL     1       8.034  -7.522  -9.462  0.00  0.00    -0.200 F 
ATOM     19  F   UNL     1      10.195  -9.198  -9.587  0.00  0.00    -0.199 F 
ATOM     20  F   UNL     1      11.090 -10.447  -7.323  0.00  0.00    -0.202 F 
ENDBRANCH  10  12
ENDBRANCH   7   8
ENDBRANCH   5   7
ENDBRANCH   2   3
BRANCH   2  21
ATOM     21  O   UNL     1       3.330  -2.075  -2.972  0.00  0.00    -0.452 OA
BRANCH  21  22
ATOM     22  C   UNL     1       2.814  -1.855  -1.753  0.00  0.00    +0.309 C 
ATOM     23  O   UNL     1       3.311  -2.376  -0.783  0.00  0.00    -0.251 OA
BRANCH  22  24
ATOM     24  C   UNL     1       1.614  -0.957  -1.593  0.00  0.00    +0.144 C 
BRANCH  24  25
ATOM     25  C   UNL     1       1.231  -0.876  -0.114  0.00  0.00    +0.148 C 
ATOM     26  C   UNL     1      -0.039  -0.079   0.037  0.00  0.00    +0.231 C 
ATOM     27  O   UNL     1      -1.087  -0.680   0.153  0.00  0.00    -0.274 OA
ATOM     28  N   UNL     1      -0.067   1.249   0.049  0.00  0.00    -0.284 N 
ATOM     29  C   UNL     1       1.032   2.102   0.045  0.00  0.00    +0.047 A 
ATOM     30  C   UNL     1       0.853   3.439  -0.296  0.00  0.00    +0.024 A 
ATOM     31  C   UNL     1       1.929   4.304  -0.316  0.00  0.00    +0.002 A 
ATOM     32  C   UNL     1       3.197   3.853   0.002  0.00  0.00    +0.001 A 
ATOM     33  C   UNL     1       3.390   2.527   0.346  0.00  0.00    +0.016 A 
ATOM     34  C   UNL     1       2.313   1.656   0.370  0.00  0.00    +0.030 A 
ATOM     35  S   UNL     1       2.551  -0.036   0.815  0.00  0.00    -0.110 S 
ATOM     36  H   UNL     1      -0.943   1.667   0.058  0.00  0.00    +0.155 HD
ENDBRANCH  24  25
ENDBRANCH  22  24
ENDBRANCH  21  22
ENDBRANCH   2  21
TORSDOF 8
