REMARK  Name = ZINC14551319
REMARK  7 active torsions:
REMARK  status: ('A' for Active; 'I' for Inactive)
REMARK    1  A    between atoms: C_1  and  C_2
REMARK    2  A    between atoms: C_2  and  C_3
REMARK    3  A    between atoms: C_2  and  C_4
REMARK    4  A    between atoms: C_2  and  N_5
REMARK    5  A    between atoms: N_5  and  S_6
REMARK    6  A    between atoms: S_6  and  C_9
REMARK    7  A    between atoms: C_22  and  C_25
REMARK                            x       y       z     vdW  Elec       q    Type
REMARK                         _______ _______ _______ _____ _____    ______ ____
ROOT
ATOM      1  C   UNL     1      -1.041   1.540   0.212  0.00  0.00    +0.106 A 
ATOM      2  C   UNL     1      -0.574   2.682   0.836  0.00  0.00    +0.030 A 
ATOM      3  C   UNL     1       0.769   2.998   0.791  0.00  0.00    +0.025 A 
ATOM      4  C   UNL     1       1.663   2.168   0.126  0.00  0.00    +0.031 A 
ATOM      5  C   UNL     1       1.182   1.018  -0.510  0.00  0.00    -0.018 A 
ATOM      6  C   UNL     1      -0.160   0.708  -0.455  0.00  0.00    +0.034 A 
ATOM      7  C   UNL     1       2.160   0.182  -1.240  0.00  0.00    +0.049 C 
ATOM      8  C   UNL     1       1.940  -1.271  -1.461  0.00  0.00    -0.023 C 
ATOM      9  C   UNL     1       3.119  -1.880  -1.487  0.00  0.00    -0.030 C 
ATOM     10  C   UNL     1       4.238  -0.864  -1.247  0.00  0.00    +0.033 C 
ATOM     11  C   UNL     1       3.503   0.222  -0.450  0.00  0.00    +0.029 C 
ATOM     12  C   UNL     1       4.011   1.645  -0.586  0.00  0.00    +0.105 C 
ATOM     13  N   UNL     1       3.026   2.490   0.123  0.00  0.00    -0.336 N 
ATOM     14  H   UNL     1       3.329   3.282   0.595  0.00  0.00    +0.147 HD
ENDROOT
BRANCH  12  15
ATOM     15  C   UNL     1       5.368   1.778   0.057  0.00  0.00    -0.027 A 
ATOM     16  C   UNL     1       5.477   1.844   1.433  0.00  0.00    +0.005 A 
ATOM     17  C   UNL     1       6.722   1.961   2.023  0.00  0.00    +0.000 A 
ATOM     18  C   UNL     1       7.857   2.021   1.236  0.00  0.00    +0.000 A 
ATOM     19  C   UNL     1       7.747   1.959  -0.141  0.00  0.00    +0.000 A 
ATOM     20  C   UNL     1       6.503   1.837  -0.730  0.00  0.00    +0.005 A 
ENDBRANCH  12  15
BRANCH   1  21
ATOM     21  S   UNL     1      -2.756   1.141   0.272  0.00  0.00    +0.059 S 
ATOM     22  O   UNL     1      -3.462   2.368   0.163  0.00  0.00    -0.153 OA
ATOM     23  O   UNL     1      -2.954   0.064  -0.634  0.00  0.00    -0.153 OA
BRANCH  21  24
ATOM     24  N   UNL     1      -3.068   0.548   1.786  0.00  0.00    -0.185 NA
ATOM     25  H   UNL     1      -3.635   1.046   2.395  0.00  0.00    +0.149 HD
BRANCH  24  27
ATOM     26  C   UNL     1      -0.963  -0.658   2.097  0.00  0.00    +0.029 C 
ATOM     27  C   UNL     1      -2.487  -0.730   2.207  0.00  0.00    +0.032 C 
ATOM     28  C   UNL     1      -2.881  -1.017   3.657  0.00  0.00    +0.029 C 
ATOM     29  C   UNL     1      -3.011  -1.849   1.305  0.00  0.00    +0.029 C 
ENDBRANCH  24  27
ENDBRANCH  21  24
ENDBRANCH   1  21
TORSDOF 4
