REMARK  Name = ZINC39689272
REMARK  5 active torsions:
REMARK  status: ('A' for Active; 'I' for Inactive)
REMARK    1  A    between atoms: C_4  and  N_6
REMARK    2  A    between atoms: C_9  and  C_12
REMARK    3  A    between atoms: C_12  and  N_13
REMARK    4  A    between atoms: C_14  and  C_16
REMARK    5  A    between atoms: C_27  and  C_29
REMARK                            x       y       z     vdW  Elec       q    Type
REMARK                         _______ _______ _______ _____ _____    ______ ____
ROOT
ATOM      1  C   UNL     1       3.667  -5.854  -7.191  0.00  0.00    +0.100 C 
ATOM      2  C   UNL     1       4.502  -4.638  -7.651  0.00  0.00    +0.121 C 
ATOM      3  N   UNL     1       5.132  -5.075  -8.919  0.00  0.00    -0.300 N 
ATOM      4  C   UNL     1       4.076  -5.857  -9.605  0.00  0.00    +0.115 C 
ATOM      5  C   UNL     1       3.389  -6.652  -8.476  0.00  0.00    -0.004 C 
ATOM      6  C   UNL     1       1.887  -6.737  -8.731  0.00  0.00    -0.010 C 
ATOM      7  C   UNL     1       1.633  -7.583  -9.981  0.00  0.00    -0.082 C 
ATOM      8  N   UNL     1       2.194  -8.926  -9.788  0.00  0.00    +0.379 N 
ATOM      9  C   UNL     1       3.652  -8.842  -9.637  0.00  0.00    -0.082 C 
ATOM     10  C   UNL     1       3.991  -8.049  -8.372  0.00  0.00    -0.010 C 
ATOM     11  C   UNL     1       6.382  -4.818  -9.351  0.00  0.00    +0.219 C 
ATOM     12  O   UNL     1       6.754  -5.249 -10.422  0.00  0.00    -0.275 OA
ATOM     13  H   UNL     1       1.794  -9.340  -8.959  0.00  0.00    -0.086 HD
ATOM     14  H   UNL     1       1.972  -9.500 -10.588  0.00  0.00    -0.086 HD
ENDROOT
BRANCH  11  15
ATOM     15  C   UNL     1       7.319  -3.997  -8.504  0.00  0.00    +0.079 C 
ATOM     16  C   UNL     1       6.721  -2.603  -8.283  0.00  0.00    +0.041 C 
ATOM     17  C   UNL     1       7.714  -1.751  -7.488  0.00  0.00    +0.160 C 
ATOM     18  O   UNL     1       8.955  -1.685  -8.194  0.00  0.00    -0.380 OA
ATOM     19  C   UNL     1       9.584  -2.954  -8.388  0.00  0.00    +0.160 C 
ATOM     20  C   UNL     1       8.666  -3.855  -9.219  0.00  0.00    +0.041 C 
ENDBRANCH  11  15
BRANCH   1  22
ATOM     21  N   UNL     1       1.779  -6.151  -5.621  0.00  0.00    -0.315 N 
ATOM     22  C   UNL     1       2.374  -5.397  -6.567  0.00  0.00    +0.218 C 
ATOM     23  O   UNL     1       1.869  -4.352  -6.915  0.00  0.00    -0.275 OA
ATOM     24  H   UNL     1       2.183  -6.987  -5.342  0.00  0.00    +0.149 HD
BRANCH  21  25
ATOM     25  C   UNL     1       0.522  -5.707  -5.014  0.00  0.00    +0.107 C 
BRANCH  25  29
ATOM     26  N   UNL     1      -0.742  -7.303  -1.254  0.00  0.00    +0.382 N 
ATOM     27  C   UNL     1      -1.728  -7.326  -2.342  0.00  0.00    -0.078 C 
ATOM     28  C   UNL     1      -1.311  -6.337  -3.434  0.00  0.00    -0.014 C 
ATOM     29  C   UNL     1       0.064  -6.736  -3.979  0.00  0.00    +0.003 C 
ATOM     30  C   UNL     1       1.067  -6.781  -2.823  0.00  0.00    -0.014 C 
ATOM     31  C   UNL     1       0.562  -7.753  -1.754  0.00  0.00    -0.078 C 
ATOM     32  H   UNL     1      -0.659  -6.362  -0.899  0.00  0.00    -0.081 HD
BRANCH  26  36
ATOM     33  C   UNL     1      -2.262  -7.388   1.897  0.00  0.00    -0.002 C 
ATOM     34  C   UNL     1      -1.036  -8.262   2.259  0.00  0.00    -0.002 C 
ATOM     35  C   UNL     1      -0.165  -8.175   0.981  0.00  0.00    -0.015 C 
ATOM     36  C   UNL     1      -1.186  -8.195  -0.175  0.00  0.00    -0.069 C 
ATOM     37  C   UNL     1      -2.520  -7.694   0.407  0.00  0.00    -0.015 C 
ENDBRANCH  26  36
ENDBRANCH  25  29
ENDBRANCH  21  25
ENDBRANCH   1  22
TORSDOF 5
