REMARK  Name = ZINC35455312
REMARK  9 active torsions:
REMARK  status: ('A' for Active; 'I' for Inactive)
REMARK    1  A    between atoms: C_1  and  C_2
REMARK    2  A    between atoms: C_2  and  C_4
REMARK    3  A    between atoms: C_10  and  O_34
REMARK    4  A    between atoms: C_16  and  O_33
REMARK    5  A    between atoms: C_21  and  O_31
REMARK    6  A    between atoms: C_22  and  O_29
REMARK    7  A    between atoms: C_25  and  O_28
REMARK    8  A    between atoms: O_29  and  C_30
REMARK    9  A    between atoms: O_31  and  C_32
REMARK                            x       y       z     vdW  Elec       q    Type
REMARK                         _______ _______ _______ _____ _____    ______ ____
ROOT
ATOM      1  C   UNL     1      -1.293  -0.775   0.010  0.00  0.00    +0.203 C 
ATOM      2  C   UNL     1      -2.092  -0.490   1.307  0.00  0.00    +0.091 C 
ATOM      3  C   UNL     1      -3.509  -0.474   0.802  0.00  0.00    +0.041 A 
ATOM      4  C   UNL     1      -3.448  -0.374  -0.597  0.00  0.00    +0.132 A 
ATOM      5  C   UNL     1      -4.620  -0.348  -1.361  0.00  0.00    +0.092 A 
ATOM      6  C   UNL     1      -5.831  -0.413  -0.688  0.00  0.00    +0.134 A 
ATOM      7  C   UNL     1      -5.887  -0.498   0.710  0.00  0.00    +0.104 A 
ATOM      8  C   UNL     1      -4.704  -0.541   1.484  0.00  0.00    +0.142 A 
ATOM      9  O   UNL     1      -4.739  -0.648   2.834  0.00  0.00    -0.478 OA
ATOM     10  C   UNL     1      -5.935  -1.165   3.408  0.00  0.00    +0.285 C 
ATOM     11  C   UNL     1      -5.936  -1.085   4.932  0.00  0.00    +0.350 C 
ATOM     12  O   UNL     1      -7.121  -1.731   5.407  0.00  0.00    -0.459 OA
ATOM     13  C   UNL     1      -8.305  -1.471   4.791  0.00  0.00    +0.134 A 
ATOM     14  C   UNL     1      -9.477  -1.884   5.417  0.00  0.00    +0.095 A 
ATOM     15  C   UNL     1     -10.705  -1.651   4.825  0.00  0.00    +0.165 A 
ATOM     16  C   UNL     1     -10.771  -1.001   3.595  0.00  0.00    +0.162 A 
ATOM     17  C   UNL     1      -9.605  -0.588   2.975  0.00  0.00    +0.060 A 
ATOM     18  C   UNL     1      -8.376  -0.817   3.571  0.00  0.00    +0.041 A 
ATOM     19  C   UNL     1      -7.124  -0.332   2.901  0.00  0.00    +0.200 C 
ATOM     20  C   UNL     1      -7.186  -0.541   1.402  0.00  0.00    +0.210 C 
ATOM     21  O   UNL     1      -8.231  -0.731   0.814  0.00  0.00    -0.288 OA
ATOM     22  O   UNL     1      -2.172  -0.305  -1.030  0.00  0.00    -0.484 OA
ENDROOT
BRANCH   1  24
ATOM     23  C   UNL     1      -0.018   1.503   0.010  0.00  0.00    +0.042 C 
ATOM     24  C   UNL     1       0.002  -0.004   0.002  0.00  0.00    -0.040 C 
ATOM     25  C   UNL     1       1.145  -0.644  -0.012  0.00  0.00    +0.011 C 
ENDBRANCH   1  24
BRANCH  19  26
ATOM     26  O   UNL     1      -6.909   1.048   3.203  0.00  0.00    -0.373 OA
ATOM     27  H   UNL     1      -7.623   1.631   2.909  0.00  0.00    +0.211 HD
ENDBRANCH  19  26
BRANCH  16  28
ATOM     28  O   UNL     1     -11.976  -0.774   3.006  0.00  0.00    -0.491 OA
ATOM     29  C   UNL     1     -11.965  -0.102   1.745  0.00  0.00    +0.277 C 
ENDBRANCH  16  28
BRANCH  15  30
ATOM     30  O   UNL     1     -11.847  -2.056   5.442  0.00  0.00    -0.491 OA
ATOM     31  C   UNL     1     -11.704  -2.716   6.702  0.00  0.00    +0.277 C 
ENDBRANCH  15  30
BRANCH  11  32
ATOM     32  O   UNL     1      -4.782  -1.747   5.452  0.00  0.00    -0.355 OA
ATOM     33  H   UNL     1      -4.721  -1.733   6.417  0.00  0.00    +0.214 HD
ENDBRANCH  11  32
BRANCH   6  34
ATOM     34  O   UNL     1      -6.987  -0.393  -1.398  0.00  0.00    -0.506 OA
ATOM     35  H   UNL     1      -7.304  -1.269  -1.657  0.00  0.00    +0.292 HD
ENDBRANCH   6  34
TORSDOF 6
