REMARK  Name = ZINC28843049
REMARK  9 active torsions:
REMARK  status: ('A' for Active; 'I' for Inactive)
REMARK    1  A    between atoms: C_1  and  C_2
REMARK    2  A    between atoms: C_2  and  C_3
REMARK    3  A    between atoms: C_3  and  N_13
REMARK    4  A    between atoms: N_13  and  C_14
REMARK    5  A    between atoms: C_14  and  C_15
REMARK    6  A    between atoms: C_15  and  C_17
REMARK    7  A    between atoms: C_15  and  N_24
REMARK    8  A    between atoms: N_24  and  C_25
REMARK    9  A    between atoms: N_24  and  C_26
REMARK                            x       y       z     vdW  Elec       q    Type
REMARK                         _______ _______ _______ _____ _____    ______ ____
ROOT
ATOM      1  N   UNL     1       2.123   7.292  -0.775  0.00  0.00    -0.348 N 
ATOM      2  H   UNL     1       3.203   7.093  -0.831  0.00  0.00    +0.146 HD
ENDROOT
BRANCH   1   3
ATOM      3  C   UNL     1       1.266   6.589  -1.543  0.00  0.00    +0.021 C 
ATOM      4  C   UNL     1       1.739   5.573  -2.352  0.00  0.00    +0.116 C 
ATOM      5  C   UNL     1       3.166   5.204  -2.370  0.00  0.00    +0.256 C 
ATOM      6  O   UNL     1       3.971   5.788  -1.670  0.00  0.00    -0.270 OA
ATOM      7  N   UNL     1       3.555   4.201  -3.185  0.00  0.00    -0.263 N 
ATOM      8  C   UNL     1       2.678   3.550  -3.962  0.00  0.00    +0.143 C 
ATOM      9  S   UNL     1       3.263   2.291  -4.964  0.00  0.00    -0.018 S 
ATOM     10  N   UNL     1       1.369   3.835  -4.001  0.00  0.00    -0.263 N 
ATOM     11  C   UNL     1       0.837   4.810  -3.235  0.00  0.00    +0.256 C 
ATOM     12  O   UNL     1      -0.354   5.057  -3.275  0.00  0.00    -0.270 OA
ATOM     13  H   UNL     1       4.612   3.902  -3.222  0.00  0.00    +0.157 HD
ATOM     14  H   UNL     1       0.702   3.269  -4.667  0.00  0.00    +0.157 HD
BRANCH   3  16
ATOM     15  C   UNL     1      -0.534   7.881  -2.656  0.00  0.00    +0.010 C 
ATOM     16  C   UNL     1      -0.206   6.911  -1.519  0.00  0.00    +0.048 C 
ENDBRANCH   3  16
ENDBRANCH   1   3
BRANCH   1  17
ATOM     17  C   UNL     1       1.615   8.321   0.136  0.00  0.00    +0.090 C 
BRANCH  17  18
ATOM     18  C   UNL     1       2.751   8.814   1.033  0.00  0.00    -0.020 C 
BRANCH  18  19
ATOM     19  C   UNL     1       2.279   9.999   1.836  0.00  0.00    -0.041 A 
ATOM     20  C   UNL     1       1.956   9.845   3.171  0.00  0.00    +0.003 A 
ATOM     21  C   UNL     1       1.527  10.933   3.909  0.00  0.00    +0.000 A 
ATOM     22  C   UNL     1       1.412  12.173   3.309  0.00  0.00    +0.001 A 
ATOM     23  C   UNL     1       1.730  12.327   1.973  0.00  0.00    +0.020 A 
ATOM     24  C   UNL     1       2.163  11.240   1.235  0.00  0.00    +0.043 A 
ATOM     25 CL   UNL     1       2.562  11.433  -0.443  0.00  0.00    -0.083 Cl
ENDBRANCH  18  19
BRANCH  18  26
ATOM     26  N   UNL     1       3.158   7.737   1.944  0.00  0.00    +0.382 N 
ATOM     27  C   UNL     1       1.990   6.997   2.441  0.00  0.00    -0.096 C 
ATOM     28  C   UNL     1       4.117   6.832   1.295  0.00  0.00    -0.096 C 
ATOM     29  H   UNL     1       3.660   8.196   2.809  0.00  0.00    -0.082 HD
ENDBRANCH  18  26
ENDBRANCH  17  18
ENDBRANCH   1  17
TORSDOF 6
