REMARK  Name = ZINC63349990
REMARK  6 active torsions:
REMARK  status: ('A' for Active; 'I' for Inactive)
REMARK    1  A    between atoms: C_1  and  O_2
REMARK    2  A    between atoms: O_2  and  C_3
REMARK    3  A    between atoms: C_10  and  C_18
REMARK    4  A    between atoms: C_23  and  O_24
REMARK    5  A    between atoms: O_24  and  C_25
REMARK    6  A    between atoms: C_25  and  C_26
REMARK                            x       y       z     vdW  Elec       q    Type
REMARK                         _______ _______ _______ _____ _____    ______ ____
ROOT
ATOM      1  C   UNL     1      -0.993  -0.813  -0.043  0.00  0.00    +0.121 A 
ATOM      2  C   UNL     1      -2.131   0.011  -0.000  0.00  0.00    +0.047 A 
ATOM      3  C   UNL     1      -3.385  -0.487   0.037  0.00  0.00    +0.029 A 
ATOM      4  C   UNL     1      -3.596  -1.937   0.034  0.00  0.00    +0.043 A 
ATOM      5  N   UNL     1      -4.690  -2.664   0.042  0.00  0.00    -0.376 N 
ATOM      6  C   UNL     1      -4.309  -4.070   0.123  0.00  0.00    +0.128 C 
ATOM      7  C   UNL     1      -4.890  -4.905  -1.021  0.00  0.00    +0.114 C 
ATOM      8  N   UNL     1      -4.226  -6.218  -1.019  0.00  0.00    -0.307 NA
ATOM      9  C   UNL     1      -2.803  -6.146  -1.365  0.00  0.00    +0.086 C 
ATOM     10  C   UNL     1      -2.034  -5.369  -0.280  0.00  0.00    +0.048 C 
ATOM     11  C   UNL     1      -2.797  -4.087  -0.033  0.00  0.00    -0.035 C 
ATOM     12  C   UNL     1      -2.396  -2.810  -0.022  0.00  0.00    +0.003 A 
ATOM     13  C   UNL     1      -1.078  -2.164  -0.060  0.00  0.00    +0.055 A 
ATOM     14  H   UNL     1      -4.360  -6.691  -0.138  0.00  0.00    +0.123 HD
ATOM     15  H   UNL     1      -5.597  -2.323   0.001  0.00  0.00    +0.160 HD
ENDROOT
BRANCH   7  16
ATOM     16  C   UNL     1      -4.641  -4.210  -2.334  0.00  0.00    +0.014 A 
ATOM     17  C   UNL     1      -3.365  -3.800  -2.668  0.00  0.00    +0.024 A 
ATOM     18  C   UNL     1      -3.135  -3.162  -3.874  0.00  0.00    +0.018 A 
ATOM     19  C   UNL     1      -4.183  -2.933  -4.748  0.00  0.00    +0.019 A 
ATOM     20  C   UNL     1      -5.460  -3.342  -4.418  0.00  0.00    +0.047 A 
ATOM     21  C   UNL     1      -5.692  -3.987  -3.212  0.00  0.00    +0.126 A 
ATOM     22 BR   UNL     1      -1.387  -2.601  -4.327  0.00  0.00    -0.050 Br
BRANCH  21  23
ATOM     23  O   UNL     1      -6.947  -4.395  -2.888  0.00  0.00    -0.486 OA
BRANCH  23  24
ATOM     24  C   UNL     1      -7.980  -4.132  -3.840  0.00  0.00    +0.284 C 
BRANCH  24  25
ATOM     25  C   UNL     1      -9.293  -4.651  -3.312  0.00  0.00    +0.078 A 
ATOM     26  C   UNL     1      -9.338  -5.262  -2.073  0.00  0.00    +0.027 A 
ATOM     27  C   UNL     1     -10.550  -5.736  -1.596  0.00  0.00    +0.003 A 
ATOM     28  C   UNL     1     -11.678  -5.577  -2.388  0.00  0.00    +0.020 A 
ATOM     29  C   UNL     1     -11.556  -4.955  -3.616  0.00  0.00    +0.111 A 
ATOM     30  N   UNL     1     -10.387  -4.512  -4.035  0.00  0.00    -0.256 NA
ENDBRANCH  24  25
ENDBRANCH  23  24
ENDBRANCH  21  23
ENDBRANCH   7  16
BRANCH   1  32
ATOM     31  C   UNL     1       0.280   1.195  -0.055  0.00  0.00    +0.277 C 
ATOM     32  O   UNL     1       0.236  -0.233  -0.075  0.00  0.00    -0.495 OA
ENDBRANCH   1  32
TORSDOF 5
