REMARK  Name = ZINC47871145
REMARK  8 active torsions:
REMARK  status: ('A' for Active; 'I' for Inactive)
REMARK    1  A    between atoms: C_1  and  C_2
REMARK    2  A    between atoms: C_15  and  C_17
REMARK    3  A    between atoms: C_17  and  N_18
REMARK    4  A    between atoms: N_21  and  C_24
REMARK    5  A    between atoms: C_24  and  C_25
REMARK    6  A    between atoms: C_25  and  C_26
REMARK    7  A    between atoms: C_26  and  C_27
REMARK    8  A    between atoms: C_26  and  C_28
REMARK                            x       y       z     vdW  Elec       q    Type
REMARK                         _______ _______ _______ _____ _____    ______ ____
ROOT
ATOM      1  C   UNL     1      -0.019   1.526   0.010  0.00  0.00    +0.029 C 
ATOM      2  C   UNL     1       0.002  -0.004   0.002  0.00  0.00    +0.087 C 
ATOM      3  C   UNL     1      -1.433  -0.532   0.009  0.00  0.00    +0.118 C 
ATOM      4  C   UNL     1      -1.448  -1.987   0.396  0.00  0.00    +0.219 C 
ATOM      5  O   UNL     1      -1.623  -2.835  -0.454  0.00  0.00    -0.275 OA
ATOM      6  N   UNL     1      -1.268  -2.354   1.683  0.00  0.00    -0.284 N 
ATOM      7  C   UNL     1      -0.970  -1.397   2.659  0.00  0.00    +0.055 A 
ATOM      8  C   UNL     1      -1.673  -1.354   3.851  0.00  0.00    +0.025 A 
ATOM      9  C   UNL     1      -1.345  -0.414   4.811  0.00  0.00    +0.002 A 
ATOM     10  C   UNL     1      -0.316   0.482   4.584  0.00  0.00    +0.002 A 
ATOM     11  C   UNL     1       0.385   0.452   3.393  0.00  0.00    +0.025 A 
ATOM     12  C   UNL     1       0.054  -0.479   2.422  0.00  0.00    +0.058 A 
ATOM     13  N   UNL     1       0.714  -0.487   1.187  0.00  0.00    -0.265 N 
ATOM     14  C   UNL     1       1.982  -0.932   1.091  0.00  0.00    +0.234 C 
ATOM     15  O   UNL     1       2.545  -0.934   0.017  0.00  0.00    -0.274 OA
ATOM     16  H   UNL     1      -1.347  -3.288   1.933  0.00  0.00    +0.155 HD
ENDROOT
BRANCH  14  17
ATOM     17  C   UNL     1       2.702  -1.427   2.320  0.00  0.00    +0.181 C 
BRANCH  17  18
ATOM     18  N   UNL     1       4.059  -1.853   1.954  0.00  0.00    -0.298 NA
ATOM     19  C   UNL     1       4.023  -3.032   1.078  0.00  0.00    +0.066 C 
ATOM     20  C   UNL     1       5.450  -3.407   0.672  0.00  0.00    -0.063 C 
ATOM     21  N   UNL     1       6.242  -3.694   1.876  0.00  0.00    +0.381 N 
ATOM     22  C   UNL     1       6.289  -2.499   2.729  0.00  0.00    -0.063 C 
ATOM     23  C   UNL     1       4.869  -2.117   3.152  0.00  0.00    +0.066 C 
ATOM     24  H   UNL     1       5.816  -4.454   2.385  0.00  0.00    -0.082 HD
BRANCH  21  25
ATOM     25  C   UNL     1       7.607  -4.071   1.486  0.00  0.00    -0.078 C 
BRANCH  25  26
ATOM     26  C   UNL     1       8.395  -4.490   2.728  0.00  0.00    -0.016 C 
BRANCH  26  27
ATOM     27  C   UNL     1       9.817  -4.883   2.321  0.00  0.00    -0.019 C 
ATOM     28  C   UNL     1      10.642  -5.182   3.575  0.00  0.00    +0.007 C 
ATOM     29  C   UNL     1       9.768  -6.128   1.434  0.00  0.00    +0.007 C 
ENDBRANCH  26  27
ENDBRANCH  25  26
ENDBRANCH  21  25
ENDBRANCH  17  18
ENDBRANCH  14  17
TORSDOF 5
