REMARK  Name = ZINC45112314
REMARK  4 active torsions:
REMARK  status: ('A' for Active; 'I' for Inactive)
REMARK    1  A    between atoms: C_3  and  C_12
REMARK    2  A    between atoms: C_5  and  N_7
REMARK    3  A    between atoms: N_7  and  S_8
REMARK    4  A    between atoms: S_8  and  N_11
REMARK                            x       y       z     vdW  Elec       q    Type
REMARK                         _______ _______ _______ _____ _____    ______ ____
ROOT
ATOM      1  C   UNL     1       3.366   2.324  -0.039  0.00  0.00    +0.142 A 
ATOM      2  N   UNL     1       3.244   3.685   0.007  0.00  0.00    -0.306 N 
ATOM      3  H   UNL     1       2.361   4.082   0.073  0.00  0.00    +0.170 HD
ATOM      4  C   UNL     1       4.327   4.485  -0.037  0.00  0.00    +0.260 A 
ATOM      5  O   UNL     1       4.204   5.697   0.005  0.00  0.00    -0.267 OA
ATOM      6  C   UNL     1       5.626   3.886  -0.135  0.00  0.00    +0.075 A 
ATOM      7  C   UNL     1       6.927   4.572  -0.199  0.00  0.00    -0.021 A 
ATOM      8  C   UNL     1       8.013   3.785  -0.283  0.00  0.00    +0.006 A 
ATOM      9  S   UNL     1       7.385   2.119  -0.293  0.00  0.00    -0.072 S 
ATOM     10  C   UNL     1       5.655   2.486  -0.176  0.00  0.00    +0.116 A 
ATOM     11  N   UNL     1       4.549   1.753  -0.122  0.00  0.00    -0.222 NA
ATOM     12  C   UNL     1       9.472   4.146  -0.349  0.00  0.00    +0.111 C 
ATOM     13  S   UNL     1       9.607   5.913  -0.761  0.00  0.00    -0.155 S 
ATOM     14  C   UNL     1       8.301   6.637   0.280  0.00  0.00    +0.074 C 
ATOM     15  C   UNL     1       6.954   6.095  -0.179  0.00  0.00    +0.047 C 
ENDROOT
BRANCH   1  18
ATOM     16  C   UNL     1      -0.239   1.286   0.148  0.00  0.00    +0.003 A 
ATOM     17  C   UNL     1       0.892   2.075   0.101  0.00  0.00    +0.011 A 
ATOM     18  C   UNL     1       2.153   1.482   0.012  0.00  0.00    +0.019 A 
ATOM     19  C   UNL     1       2.264   0.091  -0.028  0.00  0.00    +0.036 A 
ATOM     20  C   UNL     1       1.121  -0.692   0.020  0.00  0.00    +0.050 A 
ATOM     21  C   UNL     1      -0.130  -0.091   0.108  0.00  0.00    +0.024 A 
BRANCH  20  22
ATOM     22  N   UNL     1       1.226  -2.084  -0.021  0.00  0.00    -0.207 N 
ATOM     23  H   UNL     1       1.000  -2.564  -0.833  0.00  0.00    +0.175 HD
BRANCH  22  24
ATOM     24  S   UNL     1       1.738  -2.916   1.317  0.00  0.00    +0.107 S 
ATOM     25  O   UNL     1       1.722  -4.293   0.969  0.00  0.00    -0.138 OA
ATOM     26  O   UNL     1       2.911  -2.260   1.778  0.00  0.00    -0.138 OA
BRANCH  24  27
ATOM     27  N   UNL     1       0.588  -2.710   2.490  0.00  0.00    -0.191 NA
ATOM     28  H   UNL     1      -0.235  -2.237   2.286  0.00  0.00    +0.146 HD
ATOM     29  H   UNL     1       0.736  -3.061   3.382  0.00  0.00    +0.146 HD
ENDBRANCH  24  27
ENDBRANCH  22  24
ENDBRANCH  20  22
ENDBRANCH   1  18
TORSDOF 4
