REMARK  Name = ZINC02518302
REMARK  7 active torsions:
REMARK  status: ('A' for Active; 'I' for Inactive)
REMARK    1  A    between atoms: C_1  and  O_2
REMARK    2  A    between atoms: O_2  and  C_3
REMARK    3  A    between atoms: C_6  and  C_15
REMARK    4  A    between atoms: C_8  and  O_9
REMARK    5  A    between atoms: O_9  and  C_10
REMARK    6  A    between atoms: C_15  and  N_16
REMARK    7  A    between atoms: C_17  and  N_25
REMARK                            x       y       z     vdW  Elec       q    Type
REMARK                         _______ _______ _______ _____ _____    ______ ____
ROOT
ATOM      1  C   UNL     1       4.052   2.732  -0.018  0.00  0.00    +0.162 A 
ATOM      2  C   UNL     1       3.385   2.504  -1.211  0.00  0.00    +0.050 A 
ATOM      3  C   UNL     1       2.026   2.247  -1.204  0.00  0.00    +0.009 A 
ATOM      4  C   UNL     1       1.331   2.216  -0.010  0.00  0.00    -0.024 A 
ATOM      5  C   UNL     1       1.990   2.447   1.183  0.00  0.00    +0.054 A 
ATOM      6  C   UNL     1       3.352   2.701   1.184  0.00  0.00    +0.163 A 
ENDROOT
BRANCH   1   8
ATOM      7  C   UNL     1       6.041   3.001  -1.294  0.00  0.00    +0.277 C 
ATOM      8  O   UNL     1       5.388   2.985  -0.023  0.00  0.00    -0.491 OA
ENDBRANCH   1   8
BRANCH   6   9
ATOM      9  O   UNL     1       4.003   2.925   2.357  0.00  0.00    -0.485 OA
BRANCH   9  10
ATOM     10  C   UNL     1       3.248   2.760   3.559  0.00  0.00    +0.174 C 
ATOM     11  C   UNL     1       2.518   4.073   3.909  0.00  0.00    +0.044 C 
ATOM     12  C   UNL     1       2.588   4.146   5.455  0.00  0.00    +0.004 C 
ATOM     13  C   UNL     1       4.002   3.591   5.760  0.00  0.00    +0.004 C 
ATOM     14  C   UNL     1       4.191   2.454   4.736  0.00  0.00    +0.044 C 
ENDBRANCH   9  10
ENDBRANCH   6   9
BRANCH   4  15
ATOM     15  C   UNL     1      -0.149   1.935  -0.008  0.00  0.00    +0.160 C 
BRANCH  15  16
ATOM     16  N   UNL     1      -0.372   0.491   0.106  0.00  0.00    -0.305 N 
ATOM     17  C   UNL     1      -0.493  -0.084   1.347  0.00  0.00    +0.103 A 
ATOM     18  C   UNL     1      -0.701  -1.432   1.445  0.00  0.00    +0.111 A 
ATOM     19  C   UNL     1      -0.786  -2.196   0.270  0.00  0.00    +0.254 A 
ATOM     20  O   UNL     1      -0.971  -3.399   0.332  0.00  0.00    -0.268 OA
ATOM     21  N   UNL     1      -0.661  -1.591  -0.928  0.00  0.00    -0.303 N 
ATOM     22  H   UNL     1      -0.717  -2.133  -1.766  0.00  0.00    +0.171 HD
ATOM     23  C   UNL     1      -0.462  -0.262  -1.005  0.00  0.00    +0.162 A 
ATOM     24  S   UNL     1      -0.316   0.480  -2.541  0.00  0.00    -0.013 S 
BRANCH  17  25
ATOM     25  N   UNL     1      -0.406   0.686   2.479  0.00  0.00    -0.344 N 
ATOM     26  H   UNL     1      -0.259   1.642   2.404  0.00  0.00    +0.144 HD
ATOM     27  H   UNL     1      -0.493   0.275   3.353  0.00  0.00    +0.144 HD
ENDBRANCH  17  25
ENDBRANCH  15  16
ENDBRANCH   4  15
TORSDOF 6
