REMARK  Name = ZINC16267072
REMARK  7 active torsions:
REMARK  status: ('A' for Active; 'I' for Inactive)
REMARK    1  A    between atoms: C_1  and  C_2
REMARK    2  A    between atoms: C_6  and  C_10
REMARK    3  A    between atoms: C_7  and  O_9
REMARK    4  A    between atoms: C_10  and  C_11
REMARK    5  A    between atoms: C_10  and  C_18
REMARK    6  A    between atoms: C_19  and  O_20
REMARK    7  A    between atoms: C_22  and  C_26
REMARK                            x       y       z     vdW  Elec       q    Type
REMARK                         _______ _______ _______ _____ _____    ______ ____
ROOT
ATOM      1  C   UNL     1       0.215  -4.250  -0.022  0.00  0.00    +0.100 C 
ENDROOT
BRANCH   1   7
ATOM      2  C   UNL     1      -1.612  -8.202   3.747  0.00  0.00    +0.086 C 
ATOM      3  C   UNL     1      -1.099  -7.163   2.783  0.00  0.00    +0.110 A 
ATOM      4  C   UNL     1       0.099  -6.592   3.000  0.00  0.00    +0.092 A 
ATOM      5  C   UNL     1       0.575  -5.614   2.085  0.00  0.00    +0.193 A 
ATOM      6  O   UNL     1       1.659  -5.074   2.251  0.00  0.00    -0.287 OA
ATOM      7  C   UNL     1      -0.238  -5.281   0.980  0.00  0.00    +0.091 A 
ATOM      8  C   UNL     1      -1.437  -5.906   0.834  0.00  0.00    +0.292 A 
ATOM      9  O   UNL     1      -1.842  -6.827   1.719  0.00  0.00    -0.430 OA
BRANCH   8  10
ATOM     10  O   UNL     1      -2.226  -5.599  -0.219  0.00  0.00    -0.480 OA
ATOM     11  H   UNL     1      -3.058  -6.091  -0.243  0.00  0.00    +0.295 HD
ENDBRANCH   8  10
ENDBRANCH   1   7
BRANCH   1  12
ATOM     12  C   UNL     1       1.183  -4.882  -0.989  0.00  0.00    +0.090 A 
ATOM     13  C   UNL     1       1.504  -6.223  -0.888  0.00  0.00    +0.131 A 
ATOM     14  C   UNL     1       2.416  -6.774  -1.817  0.00  0.00    +0.087 A 
ATOM     15  C   UNL     1       2.950  -5.992  -2.774  0.00  0.00    +0.110 A 
ATOM     16  O   UNL     1       2.633  -4.693  -2.865  0.00  0.00    -0.427 OA
ATOM     17  C   UNL     1       1.768  -4.122  -2.010  0.00  0.00    +0.345 A 
ATOM     18  O   UNL     1       1.494  -2.938  -2.120  0.00  0.00    -0.245 OA
ATOM     19  C   UNL     1       3.922  -6.588  -3.760  0.00  0.00    +0.086 C 
BRANCH  13  20
ATOM     20  O   UNL     1       0.956  -6.993   0.081  0.00  0.00    -0.506 OA
ATOM     21  H   UNL     1       1.248  -7.915   0.063  0.00  0.00    +0.292 HD
ENDBRANCH  13  20
ENDBRANCH   1  12
BRANCH   1  22
ATOM     22  C   UNL     1       0.895  -3.115   0.699  0.00  0.00    -0.034 A 
ATOM     23  C   UNL     1       2.265  -2.959   0.606  0.00  0.00    +0.004 A 
ATOM     24  C   UNL     1       2.889  -1.917   1.267  0.00  0.00    +0.002 A 
ATOM     25  C   UNL     1       2.143  -1.031   2.022  0.00  0.00    +0.020 A 
ATOM     26  C   UNL     1       0.772  -1.187   2.115  0.00  0.00    +0.041 A 
ATOM     27  C   UNL     1       0.147  -2.226   1.448  0.00  0.00    +0.024 A 
ATOM     28 CL   UNL     1      -0.166  -0.075   3.062  0.00  0.00    -0.084 Cl
ENDBRANCH   1  22
TORSDOF 5
