REMARK  Name = ZINC08768834
REMARK  13 active torsions:
REMARK  status: ('A' for Active; 'I' for Inactive)
REMARK    1  A    between atoms: C_1  and  C_2
REMARK    2  A    between atoms: C_2  and  O_3
REMARK    3  A    between atoms: O_3  and  C_4
REMARK    4  A    between atoms: C_4  and  C_5
REMARK    5  A    between atoms: C_5  and  C_6
REMARK    6  A    between atoms: C_6  and  N_7
REMARK    7  A    between atoms: C_11  and  C_12
REMARK    8  A    between atoms: C_13  and  N_24
REMARK    9  A    between atoms: C_16  and  C_23
REMARK   10  A    between atoms: N_24  and  C_25
REMARK   11  A    between atoms: C_25  and  C_26
REMARK   12  A    between atoms: C_29  and  O_32
REMARK   13  A    between atoms: O_32  and  C_33
REMARK                            x       y       z     vdW  Elec       q    Type
REMARK                         _______ _______ _______ _____ _____    ______ ____
ROOT
ATOM      1  C   UNL     1      -2.385   5.312  -0.091  0.00  0.00    +0.081 A 
ATOM      2  C   UNL     1      -1.278   6.167  -0.306  0.00  0.00    +0.134 A 
ATOM      3  N   UNL     1      -0.069   5.646  -0.452  0.00  0.00    -0.214 NA
ATOM      4  C   UNL     1       0.137   4.330  -0.402  0.00  0.00    +0.145 A 
ATOM      5  C   UNL     1       1.444   3.835  -0.564  0.00  0.00    -0.007 A 
ATOM      6  C   UNL     1       1.664   2.490  -0.514  0.00  0.00    +0.008 A 
ATOM      7  C   UNL     1       0.586   1.620  -0.302  0.00  0.00    +0.019 A 
ATOM      8  C   UNL     1      -0.664   2.113  -0.154  0.00  0.00    +0.096 A 
ATOM      9  N   UNL     1      -0.894   3.457  -0.197  0.00  0.00    -0.267 N 
ATOM     10  C   UNL     1      -2.154   3.916  -0.039  0.00  0.00    +0.267 A 
ATOM     11  O   UNL     1      -3.078   3.142   0.144  0.00  0.00    -0.267 OA
ATOM     12  C   UNL     1       2.592   4.784  -0.791  0.00  0.00    +0.047 C 
ENDROOT
BRANCH   1  17
ATOM     13  N   UNL     1      -5.117   8.343   2.328  0.00  0.00    -0.255 N 
ATOM     14  C   UNL     1      -5.123   7.500   1.310  0.00  0.00    +0.258 C 
ATOM     15  O   UNL     1      -6.117   7.360   0.618  0.00  0.00    -0.269 OA
ATOM     16  C   UNL     1      -3.936   6.759   1.045  0.00  0.00    +0.077 C 
ATOM     17  C   UNL     1      -3.688   5.838   0.069  0.00  0.00    +0.037 C 
ATOM     18  S   UNL     1      -2.863   7.358   2.343  0.00  0.00    -0.061 S 
ATOM     19  C   UNL     1      -4.015   8.498   3.095  0.00  0.00    +0.121 C 
ATOM     20  S   UNL     1      -3.785   9.521   4.449  0.00  0.00    -0.027 S 
BRANCH  13  21
ATOM     21  C   UNL     1      -6.322   9.121   2.628  0.00  0.00    +0.117 C 
BRANCH  21  22
ATOM     22  C   UNL     1      -7.202   8.341   3.606  0.00  0.00    +0.047 C 
BRANCH  22  23
ATOM     23  C   UNL     1      -8.460   9.154   3.920  0.00  0.00    +0.161 C 
BRANCH  23  24
ATOM     24  O   UNL     1      -9.283   8.425   4.833  0.00  0.00    -0.380 OA
BRANCH  24  26
ATOM     25  C   UNL     1     -11.287   8.232   6.169  0.00  0.00    +0.034 C 
ATOM     26  C   UNL     1     -10.490   9.100   5.193  0.00  0.00    +0.156 C 
ENDBRANCH  24  26
ENDBRANCH  23  24
ENDBRANCH  22  23
ENDBRANCH  21  22
ENDBRANCH  13  21
ENDBRANCH   1  17
BRANCH   2  27
ATOM     27  N   UNL     1      -1.458   7.532  -0.364  0.00  0.00    -0.324 N 
ATOM     28  H   UNL     1      -2.345   7.910  -0.256  0.00  0.00    +0.148 HD
BRANCH  27  29
ATOM     29  C   UNL     1      -0.308   8.413  -0.587  0.00  0.00    +0.138 C 
BRANCH  29  30
ATOM     30  C   UNL     1      -0.771   9.847  -0.607  0.00  0.00    -0.030 A 
ATOM     31  C   UNL     1      -1.152  10.432  -1.801  0.00  0.00    +0.009 A 
ATOM     32  C   UNL     1      -1.582  11.745  -1.821  0.00  0.00    +0.046 A 
ATOM     33  C   UNL     1      -1.621  12.479  -0.644  0.00  0.00    +0.120 A 
ATOM     34  C   UNL     1      -1.233  11.891   0.551  0.00  0.00    +0.046 A 
ATOM     35  C   UNL     1      -0.809  10.576   0.567  0.00  0.00    +0.009 A 
BRANCH  33  36
ATOM     36  O   UNL     1      -2.039  13.772  -0.662  0.00  0.00    -0.495 OA
ATOM     37  C   UNL     1      -2.423  14.312  -1.928  0.00  0.00    +0.277 C 
ENDBRANCH  33  36
ENDBRANCH  29  30
ENDBRANCH  27  29
ENDBRANCH   2  27
TORSDOF 10
