REMARK  Name = ZINC44787062
REMARK  8 active torsions:
REMARK  status: ('A' for Active; 'I' for Inactive)
REMARK    1  A    between atoms: C_1  and  C_2
REMARK    2  A    between atoms: C_2  and  O_3
REMARK    3  A    between atoms: O_3  and  C_4
REMARK    4  A    between atoms: C_4  and  C_6
REMARK    5  A    between atoms: C_10  and  N_11
REMARK    6  A    between atoms: C_12  and  C_14
REMARK    7  A    between atoms: N_19  and  C_21
REMARK    8  A    between atoms: C_21  and  C_22
REMARK                            x       y       z     vdW  Elec       q    Type
REMARK                         _______ _______ _______ _____ _____    ______ ____
ROOT
ATOM      1  N   UNL     1       3.917  -1.732   1.561  0.00  0.00    -0.279 N 
ATOM      2  C   UNL     1       5.176  -2.200   1.671  0.00  0.00    +0.219 C 
ATOM      3  O   UNL     1       5.543  -2.718   2.704  0.00  0.00    -0.275 OA
ATOM      4  H   UNL     1       3.623  -1.319   0.734  0.00  0.00    +0.155 HD
ENDROOT
BRANCH   1   9
ATOM      5  C   UNL     1       1.721  -1.423   2.697  0.00  0.00    +0.091 A 
ATOM      6  C   UNL     1       1.011  -1.664   3.941  0.00  0.00    -0.021 A 
ATOM      7  C   UNL     1       1.751  -2.275   4.891  0.00  0.00    -0.004 A 
ATOM      8  S   UNL     1       3.335  -2.515   4.140  0.00  0.00    -0.077 S 
ATOM      9  C   UNL     1       3.041  -1.843   2.629  0.00  0.00    +0.086 A 
ATOM     10  C   UNL     1       1.309  -2.656   6.270  0.00  0.00    +0.043 C 
ATOM     11  C   UNL     1       0.002  -1.911   6.580  0.00  0.00    +0.005 C 
ATOM     12  C   UNL     1      -0.955  -2.076   5.396  0.00  0.00    +0.005 C 
ATOM     13  C   UNL     1      -0.440  -1.280   4.195  0.00  0.00    +0.037 C 
BRANCH   5  14
ATOM     14  C   UNL     1       1.069  -0.768   1.561  0.00  0.00    +0.342 C 
ATOM     15  O   UNL     1       0.481  -1.435   0.730  0.00  0.00    -0.245 OA
BRANCH  14  16
ATOM     16  O   UNL     1       1.120   0.573   1.435  0.00  0.00    -0.461 OA
BRANCH  16  18
ATOM     17  C   UNL     1       0.627   2.665   0.329  0.00  0.00    +0.048 C 
ATOM     18  C   UNL     1       0.462   1.144   0.302  0.00  0.00    +0.229 C 
ENDBRANCH  16  18
ENDBRANCH  14  16
ENDBRANCH   5  14
ENDBRANCH   1   9
BRANCH   2  19
ATOM     19  C   UNL     1       6.128  -2.080   0.509  0.00  0.00    +0.059 C 
ATOM     20  C   UNL     1       6.315  -0.602   0.151  0.00  0.00    +0.009 C 
ATOM     21  C   UNL     1       7.343  -0.486  -0.978  0.00  0.00    -0.018 C 
ATOM     22  C   UNL     1       8.652  -1.146  -0.538  0.00  0.00    -0.078 C 
ATOM     23  N   UNL     1       8.413  -2.562  -0.235  0.00  0.00    +0.383 N 
ATOM     24  C   UNL     1       7.482  -2.681   0.893  0.00  0.00    -0.066 C 
ATOM     25  H   UNL     1       8.017  -3.016  -1.045  0.00  0.00    -0.081 HD
BRANCH  23  26
ATOM     26  C   UNL     1       9.685  -3.209   0.111  0.00  0.00    -0.042 C 
BRANCH  26  27
ATOM     27  C   UNL     1      10.586  -3.225  -1.097  0.00  0.00    -0.046 A 
ATOM     28  C   UNL     1      11.624  -2.318  -1.197  0.00  0.00    +0.003 A 
ATOM     29  C   UNL     1      12.451  -2.332  -2.305  0.00  0.00    +0.000 A 
ATOM     30  C   UNL     1      12.239  -3.254  -3.314  0.00  0.00    +0.001 A 
ATOM     31  C   UNL     1      11.201  -4.161  -3.216  0.00  0.00    +0.020 A 
ATOM     32  C   UNL     1      10.377  -4.151  -2.104  0.00  0.00    +0.042 A 
ATOM     33 CL   UNL     1       9.077  -5.294  -1.976  0.00  0.00    -0.083 Cl
ENDBRANCH  26  27
ENDBRANCH  23  26
ENDBRANCH   2  19
TORSDOF 7
