REMARK  Name = ZINC05447370
REMARK  4 active torsions:
REMARK  status: ('A' for Active; 'I' for Inactive)
REMARK    1  A    between atoms: C_4  and  C_7
REMARK    2  A    between atoms: N_9  and  C_10
REMARK    3  A    between atoms: C_12  and  C_24
REMARK    4  A    between atoms: N_14  and  C_18
REMARK                            x       y       z     vdW  Elec       q    Type
REMARK                         _______ _______ _______ _____ _____    ______ ____
ROOT
ATOM      1  C   UNL     1      -1.256  -0.754   0.010  0.00  0.00    +0.187 C 
ATOM      2  C   UNL     1      -1.044  -2.156   0.610  0.00  0.00    +0.153 C 
ATOM      3  N   UNL     1      -1.396  -3.078  -0.478  0.00  0.00    -0.241 N 
ATOM      4  N   UNL     1      -1.776  -2.344  -1.600  0.00  0.00    -0.232 N 
ATOM      5  C   UNL     1      -1.723  -1.019  -1.403  0.00  0.00    +0.252 C 
ATOM      6  O   UNL     1      -2.004  -0.172  -2.225  0.00  0.00    -0.272 OA
ATOM      7  H   UNL     1      -2.049  -2.750  -2.438  0.00  0.00    +0.173 HD
ENDROOT
BRANCH   2   8
ATOM      8  C   UNL     1       0.396  -2.343   1.013  0.00  0.00    -0.023 A 
ATOM      9  C   UNL     1       1.344  -2.664   0.060  0.00  0.00    +0.007 A 
ATOM     10  C   UNL     1       2.666  -2.831   0.428  0.00  0.00    +0.020 A 
ATOM     11  C   UNL     1       3.038  -2.687   1.753  0.00  0.00    +0.041 A 
ATOM     12  C   UNL     1       2.087  -2.371   2.708  0.00  0.00    +0.020 A 
ATOM     13  C   UNL     1       0.767  -2.199   2.337  0.00  0.00    +0.007 A 
ATOM     14 CL   UNL     1       4.696  -2.903   2.217  0.00  0.00    -0.084 Cl
ENDBRANCH   2   8
BRANCH   3  15
ATOM     15  C   UNL     1      -1.358  -4.472  -0.400  0.00  0.00    +0.048 A 
ATOM     16  C   UNL     1      -0.956  -5.093   0.776  0.00  0.00    +0.025 A 
ATOM     17  C   UNL     1      -0.925  -6.471   0.852  0.00  0.00    +0.002 A 
ATOM     18  C   UNL     1      -1.281  -7.234  -0.245  0.00  0.00    +0.000 A 
ATOM     19  C   UNL     1      -1.676  -6.619  -1.419  0.00  0.00    +0.002 A 
ATOM     20  C   UNL     1      -1.715  -5.241  -1.500  0.00  0.00    +0.025 A 
ENDBRANCH   3  15
BRANCH   1  23
ATOM     21  C   UNL     1      -0.016   1.344   0.009  0.00  0.00    +0.245 C 
ATOM     22  O   UNL     1      -1.077   1.937   0.018  0.00  0.00    -0.270 OA
ATOM     23  N   UNL     1       0.002  -0.004   0.002  0.00  0.00    -0.298 N 
ATOM     24  H   UNL     1       0.849  -0.478  -0.009  0.00  0.00    +0.150 HD
BRANCH  21  28
ATOM     25  C   UNL     1       3.633   3.517  -0.013  0.00  0.00    +0.000 A 
ATOM     26  C   UNL     1       2.427   4.196   0.002  0.00  0.00    +0.001 A 
ATOM     27  C   UNL     1       1.239   3.496   0.009  0.00  0.00    +0.013 A 
ATOM     28  C   UNL     1       1.254   2.100   0.001  0.00  0.00    +0.037 A 
ATOM     29  C   UNL     1       2.474   1.422  -0.008  0.00  0.00    +0.013 A 
ATOM     30  C   UNL     1       3.655   2.134  -0.020  0.00  0.00    +0.001 A 
ENDBRANCH  21  28
ENDBRANCH   1  23
TORSDOF 4
