REMARK  Name = ZINC04177936
REMARK  3 active torsions:
REMARK  status: ('A' for Active; 'I' for Inactive)
REMARK    1  A    between atoms: C_3  and  C_7
REMARK    2  A    between atoms: N_8  and  C_9
REMARK    3  A    between atoms: C_11  and  N_16
REMARK                            x       y       z     vdW  Elec       q    Type
REMARK                         _______ _______ _______ _____ _____    ______ ____
ROOT
ATOM      1  C   UNL     1       5.589  -0.484  -0.055  0.00  0.00    +0.101 A 
ATOM      2  C   UNL     1       6.307   0.427   0.724  0.00  0.00    +0.063 A 
ATOM      3  C   UNL     1       7.686   0.410   0.705  0.00  0.00    +0.128 A 
ATOM      4  C   UNL     1       8.360  -0.506  -0.082  0.00  0.00    +0.035 A 
ATOM      5  C   UNL     1       7.658  -1.413  -0.857  0.00  0.00    +0.043 A 
ATOM      6  C   UNL     1       6.277  -1.412  -0.844  0.00  0.00    +0.149 A 
ATOM      7  F   UNL     1       5.592  -2.302  -1.595  0.00  0.00    -0.203 F 
ENDROOT
BRANCH   3   8
ATOM      8  N   UNL     1       8.447   1.376   1.530  0.00  0.00    +0.056 N 
ATOM      9  O   UNL     1       7.859   2.178   2.218  0.00  0.00    -0.126 OA
ATOM     10  O   UNL     1       9.655   1.363   1.515  0.00  0.00    -0.126 OA
ENDBRANCH   3   8
BRANCH   1  12
ATOM     11  C   UNL     1       3.578   0.665  -0.029  0.00  0.00    +0.137 C 
ATOM     12  N   UNL     1       4.222  -0.473  -0.041  0.00  0.00    -0.251 NA
BRANCH  11  15
ATOM     13  C   UNL     1      -0.016   1.350   0.009  0.00  0.00    +0.019 A 
ATOM     14  C   UNL     1       1.309   1.798  -0.001  0.00  0.00    +0.028 A 
ATOM     15  C   UNL     1       2.116   0.677  -0.015  0.00  0.00    +0.058 A 
ATOM     16  N   UNL     1       1.293  -0.426  -0.013  0.00  0.00    -0.360 N 
ATOM     17  H   UNL     1       1.586  -1.351  -0.020  0.00  0.00    +0.165 HD
ATOM     18  C   UNL     1       0.002  -0.004   0.002  0.00  0.00    +0.083 A 
ENDBRANCH  11  15
ENDBRANCH   1  12
TORSDOF 3
