REMARK  Name = ZINC39678926
REMARK  9 active torsions:
REMARK  status: ('A' for Active; 'I' for Inactive)
REMARK    1  A    between atoms: C_1  and  N_2
REMARK    2  A    between atoms: N_2  and  C_3
REMARK    3  A    between atoms: N_2  and  C_4
REMARK    4  A    between atoms: C_4  and  C_5
REMARK    5  A    between atoms: C_5  and  C_6
REMARK    6  A    between atoms: C_6  and  C_7
REMARK    7  A    between atoms: C_7  and  N_8
REMARK    8  A    between atoms: C_9  and  C_11
REMARK    9  A    between atoms: C_22  and  C_24
REMARK                            x       y       z     vdW  Elec       q    Type
REMARK                         _______ _______ _______ _____ _____    ______ ____
ROOT
ATOM      1  C   UNL     1      -5.397  -6.503   0.244  0.00  0.00    +0.100 C 
ATOM      2  C   UNL     1      -6.335  -6.224   1.440  0.00  0.00    +0.121 C 
ATOM      3  N   UNL     1      -7.168  -7.444   1.555  0.00  0.00    -0.296 N 
ATOM      4  C   UNL     1      -6.229  -8.559   1.282  0.00  0.00    +0.115 C 
ATOM      5  C   UNL     1      -5.330  -8.036   0.144  0.00  0.00    -0.004 C 
ATOM      6  C   UNL     1      -5.865  -8.501  -1.207  0.00  0.00    -0.010 C 
ATOM      7  C   UNL     1      -5.736 -10.024  -1.306  0.00  0.00    -0.082 C 
ATOM      8  N   UNL     1      -4.327 -10.407  -1.156  0.00  0.00    +0.379 N 
ATOM      9  C   UNL     1      -3.846 -10.039   0.181  0.00  0.00    -0.082 C 
ATOM     10  C   UNL     1      -3.896  -8.517   0.342  0.00  0.00    -0.010 C 
ATOM     11  C   UNL     1      -8.482  -7.523   1.844  0.00  0.00    +0.247 C 
ATOM     12  O   UNL     1      -9.150  -6.510   1.917  0.00  0.00    -0.270 OA
ATOM     13  H   UNL     1      -4.236 -11.404  -1.282  0.00  0.00    -0.086 HD
ATOM     14  H   UNL     1      -3.774  -9.931  -1.854  0.00  0.00    -0.086 HD
ENDROOT
BRANCH  11  15
ATOM     15  C   UNL     1      -9.112  -8.842   2.070  0.00  0.00    +0.040 A 
ATOM     16  C   UNL     1      -8.327  -9.943   2.414  0.00  0.00    +0.033 A 
ATOM     17  C   UNL     1      -8.920 -11.172   2.624  0.00  0.00    +0.043 A 
ATOM     18  C   UNL     1     -10.291 -11.313   2.494  0.00  0.00    +0.040 A 
ATOM     19  C   UNL     1     -11.075 -10.224   2.152  0.00  0.00    +0.043 A 
ATOM     20  C   UNL     1     -10.494  -8.989   1.946  0.00  0.00    +0.033 A 
ATOM     21 CL   UNL     1     -12.794 -10.411   1.990  0.00  0.00    -0.083 Cl
ATOM     22 CL   UNL     1      -7.945 -12.543   3.052  0.00  0.00    -0.083 Cl
ENDBRANCH  11  15
BRANCH   1  24
ATOM     23  N   UNL     1      -3.264  -5.511  -0.519  0.00  0.00    -0.315 N 
ATOM     24  C   UNL     1      -4.027  -5.934   0.508  0.00  0.00    +0.218 C 
ATOM     25  O   UNL     1      -3.611  -5.856   1.644  0.00  0.00    -0.275 OA
ATOM     26  H   UNL     1      -3.597  -5.573  -1.429  0.00  0.00    +0.149 HD
BRANCH  23  27
ATOM     27  C   UNL     1      -1.932  -4.958  -0.263  0.00  0.00    +0.104 C 
BRANCH  27  28
ATOM     28  C   UNL     1      -1.282  -4.557  -1.589  0.00  0.00    +0.017 C 
BRANCH  28  29
ATOM     29  C   UNL     1       0.109  -3.980  -1.322  0.00  0.00    -0.017 C 
BRANCH  29  30
ATOM     30  C   UNL     1       0.759  -3.579  -2.648  0.00  0.00    -0.080 C 
BRANCH  30  32
ATOM     31  C   UNL     1       2.765  -2.751  -3.669  0.00  0.00    -0.097 C 
ATOM     32  N   UNL     1       2.094  -3.024  -2.391  0.00  0.00    +0.376 N 
ATOM     33  C   UNL     1       1.968  -1.776  -1.627  0.00  0.00    -0.097 C 
ATOM     34  H   UNL     1       2.638  -3.689  -1.861  0.00  0.00    -0.083 HD
ENDBRANCH  30  32
ENDBRANCH  29  30
ENDBRANCH  28  29
ENDBRANCH  27  28
ENDBRANCH  23  27
ENDBRANCH   1  24
TORSDOF 7
