REMARK  Name = ZINC13568530
REMARK  5 active torsions:
REMARK  status: ('A' for Active; 'I' for Inactive)
REMARK    1  A    between atoms: C_1  and  O_2
REMARK    2  A    between atoms: O_2  and  C_3
REMARK    3  A    between atoms: C_7  and  C_10
REMARK    4  A    between atoms: C_8  and  O_9
REMARK    5  A    between atoms: C_15  and  C_20
REMARK                            x       y       z     vdW  Elec       q    Type
REMARK                         _______ _______ _______ _____ _____    ______ ____
ROOT
ATOM      1  C   UNL     1      -6.576   0.203  -0.034  0.00  0.00    +0.140 C 
ATOM      2  C   UNL     1      -5.280   0.948   0.181  0.00  0.00    +0.037 C 
ATOM      3  C   UNL     1      -4.700   1.196   1.367  0.00  0.00    +0.017 C 
ATOM      4  C   UNL     1      -3.401   1.982   1.439  0.00  0.00    +0.059 C 
ATOM      5  C   UNL     1      -2.550   1.691   0.204  0.00  0.00    +0.033 C 
ATOM      6  C   UNL     1      -3.356   2.114  -1.029  0.00  0.00    +0.088 C 
ATOM      7  C   UNL     1      -4.668   1.387  -1.017  0.00  0.00    +0.163 C 
ATOM      8  O   UNL     1      -5.225   1.167  -2.074  0.00  0.00    -0.292 OA
ATOM      9  N   UNL     1      -5.188   0.794   2.569  0.00  0.00    -0.316 N 
ATOM     10  C   UNL     1      -6.511   0.932   2.973  0.00  0.00    +0.052 A 
ATOM     11  C   UNL     1      -6.871   1.698   4.069  0.00  0.00    +0.025 A 
ATOM     12  C   UNL     1      -8.192   1.706   4.485  0.00  0.00    +0.002 A 
ATOM     13  C   UNL     1      -9.140   0.958   3.811  0.00  0.00    +0.002 A 
ATOM     14  C   UNL     1      -8.785   0.209   2.703  0.00  0.00    +0.025 A 
ATOM     15  C   UNL     1      -7.467   0.212   2.274  0.00  0.00    +0.049 A 
ATOM     16  N   UNL     1      -7.070  -0.489   1.137  0.00  0.00    -0.331 N 
ATOM     17  H   UNL     1      -4.568   0.381   3.190  0.00  0.00    +0.152 HD
ATOM     18  H   UNL     1      -7.126  -1.458   1.130  0.00  0.00    +0.147 HD
ENDROOT
BRANCH   5  19
ATOM     19  C   UNL     1      -1.267   2.479   0.271  0.00  0.00    -0.025 A 
ATOM     20  C   UNL     1      -1.307   3.860   0.332  0.00  0.00    +0.005 A 
ATOM     21  C   UNL     1      -0.131   4.584   0.387  0.00  0.00    +0.000 A 
ATOM     22  C   UNL     1       1.086   3.927   0.388  0.00  0.00    +0.001 A 
ATOM     23  C   UNL     1       1.127   2.547   0.334  0.00  0.00    +0.020 A 
ATOM     24  C   UNL     1      -0.051   1.822   0.278  0.00  0.00    +0.044 A 
ATOM     25 CL   UNL     1      -0.000   0.088   0.210  0.00  0.00    -0.083 Cl
ENDBRANCH   5  19
BRANCH   1  30
ATOM     26  C   UNL     1      -9.755   1.648  -1.494  0.00  0.00    +0.162 A 
ATOM     27  C   UNL     1      -9.550   3.005  -1.301  0.00  0.00    +0.049 A 
ATOM     28  C   UNL     1      -8.387   3.450  -0.700  0.00  0.00    +0.004 A 
ATOM     29  C   UNL     1      -7.427   2.543  -0.291  0.00  0.00    +0.009 A 
ATOM     30  C   UNL     1      -7.625   1.188  -0.481  0.00  0.00    +0.022 A 
ATOM     31  C   UNL     1      -8.786   0.737  -1.088  0.00  0.00    +0.164 A 
BRANCH  26  33
ATOM     32  C   UNL     1     -11.846   2.203  -2.482  0.00  0.00    +0.277 C 
ATOM     33  O   UNL     1     -10.899   1.210  -2.085  0.00  0.00    -0.491 OA
ENDBRANCH  26  33
BRANCH  31  34
ATOM     34  O   UNL     1      -8.980  -0.596  -1.281  0.00  0.00    -0.503 OA
ATOM     35  H   UNL     1      -9.427  -1.038  -0.547  0.00  0.00    +0.292 HD
ENDBRANCH  31  34
ENDBRANCH   1  30
TORSDOF 4
