REMARK  Name = ZINC04250417
REMARK  5 active torsions:
REMARK  status: ('A' for Active; 'I' for Inactive)
REMARK    1  A    between atoms: C_1  and  C_2
REMARK    2  A    between atoms: C_3  and  C_26
REMARK    3  A    between atoms: C_8  and  S_9
REMARK    4  A    between atoms: S_9  and  C_10
REMARK    5  A    between atoms: C_10  and  C_11
REMARK                            x       y       z     vdW  Elec       q    Type
REMARK                         _______ _______ _______ _____ _____    ______ ____
ROOT
ATOM      1  C   UNL     1      -4.475  -4.498  -0.002  0.00  0.00    +0.173 C 
ENDROOT
BRANCH   1   2
ATOM      2  C   UNL     1      -5.980  -4.440   0.006  0.00  0.00    +0.229 C 
ATOM      3  O   UNL     1      -6.545  -3.367   0.015  0.00  0.00    -0.275 OA
ATOM      4  N   UNL     1      -6.699  -5.580   0.003  0.00  0.00    -0.264 N 
ATOM      5  C   UNL     1      -8.084  -5.526   0.010  0.00  0.00    +0.165 A 
ATOM      6  N   UNL     1      -8.866  -4.473   0.014  0.00  0.00    -0.225 NA
ATOM      7  C   UNL     1     -10.213  -4.569   0.020  0.00  0.00    +0.080 A 
ATOM      8  C   UNL     1     -11.164  -3.522   0.026  0.00  0.00    +0.029 A 
ATOM      9  C   UNL     1     -12.507  -3.796   0.033  0.00  0.00    +0.002 A 
ATOM     10  C   UNL     1     -12.981  -5.099   0.035  0.00  0.00    +0.001 A 
ATOM     11  C   UNL     1     -12.080  -6.148   0.029  0.00  0.00    +0.017 A 
ATOM     12  C   UNL     1     -10.733  -5.884   0.022  0.00  0.00    +0.041 A 
ATOM     13  S   UNL     1      -9.258  -6.874   0.008  0.00  0.00    -0.052 S 
ATOM     14  H   UNL     1      -6.247  -6.438  -0.004  0.00  0.00    +0.157 HD
ENDBRANCH   1   2
BRANCH   1  15
ATOM     15  S   UNL     1      -3.804  -2.813   0.004  0.00  0.00    -0.076 S 
BRANCH  15  23
ATOM     16  C   UNL     1      -0.018   1.503   0.010  0.00  0.00    +0.051 C 
ATOM     17  C   UNL     1       0.002  -0.004   0.002  0.00  0.00    +0.035 A 
ATOM     18  C   UNL     1      -1.155  -0.702   0.004  0.00  0.00    +0.034 A 
ATOM     19  N   UNL     1      -1.107  -2.068  -0.004  0.00  0.00    -0.259 N 
ATOM     20  C   UNL     1       0.108  -2.719  -0.014  0.00  0.00    +0.260 A 
ATOM     21  N   UNL     1      -0.155  -4.013  -0.020  0.00  0.00    -0.107 NA
ATOM     22  N   UNL     1      -1.427  -4.200  -0.015  0.00  0.00    -0.120 NA
ATOM     23  C   UNL     1      -2.058  -3.049  -0.005  0.00  0.00    +0.198 A 
ATOM     24  N   UNL     1       1.250  -2.016  -0.015  0.00  0.00    -0.171 NA
ATOM     25  C   UNL     1       1.230  -0.700  -0.013  0.00  0.00    +0.278 A 
ATOM     26  O   UNL     1       2.395  -0.009  -0.021  0.00  0.00    -0.265 OA
ATOM     27  C   UNL     1      -2.480   0.016   0.015  0.00  0.00    +0.064 C 
ENDBRANCH  15  23
ENDBRANCH   1  15
TORSDOF 3
