REMARK  Name = ZINC32527304
REMARK  10 active torsions:
REMARK  status: ('A' for Active; 'I' for Inactive)
REMARK    1  A    between atoms: C_1  and  C_2
REMARK    2  A    between atoms: C_2  and  C_3
REMARK    3  A    between atoms: C_3  and  C_5
REMARK    4  A    between atoms: C_3  and  N_16
REMARK    5  A    between atoms: N_7  and  C_8
REMARK    6  A    between atoms: C_9  and  C_14
REMARK    7  A    between atoms: N_12  and  C_13
REMARK    8  A    between atoms: C_20  and  C_29
REMARK    9  A    between atoms: C_23  and  C_28
REMARK   10  A    between atoms: C_25  and  C_27
REMARK                            x       y       z     vdW  Elec       q    Type
REMARK                         _______ _______ _______ _____ _____    ______ ____
ROOT
ATOM      1  C   UNL     1      -3.178   2.159   0.587  0.00  0.00    +0.176 C 
ENDROOT
BRANCH   1   2
ATOM      2  N   UNL     1      -1.752   2.492   0.648  0.00  0.00    -0.296 N 
ATOM      3  C   UNL     1      -1.371   3.685   1.138  0.00  0.00    +0.253 A 
ATOM      4  O   UNL     1      -2.222   4.468   1.523  0.00  0.00    -0.268 OA
ATOM      5  C   UNL     1      -0.011   4.052   1.218  0.00  0.00    +0.074 A 
ATOM      6  C   UNL     1       0.953   3.197   0.797  0.00  0.00    -0.036 A 
ATOM      7  C   UNL     1       0.549   1.895   0.261  0.00  0.00    +0.002 A 
ATOM      8  C   UNL     1      -0.822   1.578   0.203  0.00  0.00    +0.056 A 
ATOM      9  C   UNL     1      -1.216   0.346  -0.309  0.00  0.00    -0.026 A 
ATOM     10  C   UNL     1      -0.263  -0.551  -0.743  0.00  0.00    +0.008 A 
ATOM     11  C   UNL     1       1.087  -0.234  -0.684  0.00  0.00    -0.050 A 
ATOM     12  C   UNL     1       1.497   0.972  -0.190  0.00  0.00    +0.013 A 
ATOM     13  C   UNL     1       2.109  -1.229  -1.170  0.00  0.00    +0.044 C 
ATOM     14  C   UNL     1      -2.678  -0.009  -0.384  0.00  0.00    +0.046 C 
ATOM     15  C   UNL     1       2.409   3.577   0.877  0.00  0.00    +0.044 C 
ENDBRANCH   1   2
BRANCH   1  16
ATOM     16  C   UNL     1      -3.418   0.847   1.290  0.00  0.00    +0.241 C 
ATOM     17  O   UNL     1      -2.490   0.250   1.792  0.00  0.00    -0.273 OA
ATOM     18  N   UNL     1      -4.664   0.338   1.360  0.00  0.00    -0.268 N 
ATOM     19  H   UNL     1      -5.491   0.835   0.832  0.00  0.00    +0.156 HD
BRANCH  18  20
ATOM     20  C   UNL     1      -4.903  -0.811   2.098  0.00  0.00    +0.140 A 
ATOM     21  C   UNL     1      -4.462  -1.068   3.391  0.00  0.00    +0.111 A 
ATOM     22  C   UNL     1      -4.938  -2.352   3.744  0.00  0.00    +0.155 A 
ATOM     23  N   UNL     1      -5.608  -2.829   2.732  0.00  0.00    -0.177 NA
ATOM     24  N   UNL     1      -5.602  -1.891   1.694  0.00  0.00    -0.252 N 
ATOM     25  C   UNL     1      -6.247  -2.055   0.388  0.00  0.00    +0.174 C 
BRANCH  21  26
ATOM     26  C   UNL     1      -3.676  -0.197   4.212  0.00  0.00    +0.104 C 
ATOM     27  N   UNL     1      -3.052   0.494   4.863  0.00  0.00    -0.191 NA
ENDBRANCH  21  26
ENDBRANCH  18  20
ENDBRANCH   1  16
BRANCH   1  29
ATOM     28  C   UNL     1      -4.071   4.480   0.353  0.00  0.00    +0.006 C 
ATOM     29  C   UNL     1      -3.989   3.260   1.273  0.00  0.00    +0.031 C 
ENDBRANCH   1  29
TORSDOF 5
