REMARK  Name = ZINC36492089
REMARK  10 active torsions:
REMARK  status: ('A' for Active; 'I' for Inactive)
REMARK    1  A    between atoms: C_1  and  C_2
REMARK    2  A    between atoms: C_2  and  C_3
REMARK    3  A    between atoms: C_2  and  C_4
REMARK    4  A    between atoms: C_2  and  N_5
REMARK    5  A    between atoms: C_6  and  C_8
REMARK    6  A    between atoms: C_8  and  C_10
REMARK    7  A    between atoms: C_8  and  N_17
REMARK    8  A    between atoms: C_13  and  O_16
REMARK    9  A    between atoms: N_17  and  C_18
REMARK   10  A    between atoms: C_24  and  C_26
REMARK                            x       y       z     vdW  Elec       q    Type
REMARK                         _______ _______ _______ _____ _____    ______ ____
ROOT
ATOM      1  C   UNL     1       2.245  -0.892  -2.918  0.00  0.00    +0.193 C 
ENDROOT
BRANCH   1   2
ATOM      2  C   UNL     1       1.564  -2.162  -3.357  0.00  0.00    -0.018 A 
ATOM      3  C   UNL     1       0.881  -2.933  -2.435  0.00  0.00    +0.009 A 
ATOM      4  C   UNL     1       0.255  -4.099  -2.835  0.00  0.00    +0.046 A 
ATOM      5  C   UNL     1       0.313  -4.494  -4.164  0.00  0.00    +0.117 A 
ATOM      6  C   UNL     1       0.999  -3.719  -5.087  0.00  0.00    +0.046 A 
ATOM      7  C   UNL     1       1.618  -2.552  -4.683  0.00  0.00    +0.009 A 
BRANCH   5   8
ATOM      8  O   UNL     1      -0.301  -5.640  -4.560  0.00  0.00    -0.507 OA
ATOM      9  H   UNL     1      -1.218  -5.518  -4.842  0.00  0.00    +0.292 HD
ENDBRANCH   5   8
ENDBRANCH   1   2
BRANCH   1  11
ATOM     10  N   UNL     1       1.242  -1.054  -0.662  0.00  0.00    -0.309 N 
ATOM     11  C   UNL     1       2.346  -0.870  -1.415  0.00  0.00    +0.239 C 
ATOM     12  O   UNL     1       3.420  -0.687  -0.881  0.00  0.00    -0.273 OA
ATOM     13  H   UNL     1       0.384  -1.200  -1.089  0.00  0.00    +0.149 HD
BRANCH  10  15
ATOM     14  C   UNL     1       1.876   0.326   1.255  0.00  0.00    +0.031 C 
ATOM     15  C   UNL     1       1.340  -1.033   0.799  0.00  0.00    +0.026 C 
ATOM     16  C   UNL     1       2.292  -2.137   1.263  0.00  0.00    +0.031 C 
ATOM     17  C   UNL     1      -0.045  -1.264   1.406  0.00  0.00    +0.031 C 
ENDBRANCH  10  15
ENDBRANCH   1  11
BRANCH   1  18
ATOM     18  N   UNL     1       3.589  -0.833  -3.498  0.00  0.00    -0.279 N 
ATOM     19  C   UNL     1       3.917   0.169  -4.338  0.00  0.00    +0.249 C 
ATOM     20  O   UNL     1       3.192   1.139  -4.440  0.00  0.00    -0.270 OA
BRANCH  19  21
ATOM     21  C   UNL     1       5.158   0.087  -5.136  0.00  0.00    +0.055 A 
ATOM     22  C   UNL     1       6.347  -0.341  -4.542  0.00  0.00    +0.014 A 
ATOM     23  C   UNL     1       7.502  -0.415  -5.293  0.00  0.00    +0.001 A 
ATOM     24  C   UNL     1       7.485  -0.066  -6.632  0.00  0.00    +0.001 A 
ATOM     25  C   UNL     1       6.312   0.360  -7.228  0.00  0.00    +0.021 A 
ATOM     26  C   UNL     1       5.146   0.433  -6.490  0.00  0.00    +0.053 A 
ATOM     27 CL   UNL     1       3.672   0.960  -7.240  0.00  0.00    -0.083 Cl
ENDBRANCH  19  21
BRANCH  18  28
ATOM     28  C   UNL     1       4.577  -1.863  -3.165  0.00  0.00    +0.077 C 
ATOM     29  C   UNL     1       3.855  -3.155  -2.778  0.00  0.00    +0.022 C 
ATOM     30  C   UNL     1       4.887  -4.230  -2.430  0.00  0.00    +0.002 C 
ATOM     31  C   UNL     1       5.744  -3.754  -1.256  0.00  0.00    +0.000 C 
ATOM     32  C   UNL     1       6.466  -2.461  -1.643  0.00  0.00    +0.002 C 
ATOM     33  C   UNL     1       5.434  -1.386  -1.991  0.00  0.00    +0.022 C 
ENDBRANCH  18  28
ENDBRANCH   1  18
TORSDOF 7
