REMARK  Name = ZINC37086387
REMARK  4 active torsions:
REMARK  status: ('A' for Active; 'I' for Inactive)
REMARK    1  A    between atoms: C_5  and  O_24
REMARK    2  A    between atoms: C_6  and  C_7
REMARK    3  A    between atoms: C_7  and  N_8
REMARK    4  A    between atoms: N_8  and  C_9
REMARK                            x       y       z     vdW  Elec       q    Type
REMARK                         _______ _______ _______ _____ _____    ______ ____
ROOT
ATOM      1  N   UNL     1      -1.576  -1.240   1.375  0.00  0.00    +0.384 N 
ATOM      2  H   UNL     1      -0.827  -1.838   1.690  0.00  0.00    -0.085 HD
ATOM      3  H   UNL     1      -1.654  -0.445   1.992  0.00  0.00    -0.085 HD
ENDROOT
BRANCH   1   4
ATOM      4  C   UNL     1      -2.838  -1.992   1.384  0.00  0.00    -0.068 C 
ATOM      5  C   UNL     1      -2.676  -3.312   0.582  0.00  0.00    -0.012 C 
ATOM      6  C   UNL     1      -3.275  -4.386   1.581  0.00  0.00    -0.009 C 
ATOM      7  C   UNL     1      -2.545  -3.836   2.880  0.00  0.00    +0.006 C 
ATOM      8  C   UNL     1      -3.204  -2.393   2.827  0.00  0.00    -0.021 C 
ATOM      9  C   UNL     1      -4.650  -2.853   2.943  0.00  0.00    -0.006 C 
ATOM     10  C   UNL     1      -4.671  -3.858   1.701  0.00  0.00    -0.005 C 
ATOM     11  C   UNL     1      -6.050  -4.347   1.590  0.00  0.00    +0.004 C 
ATOM     12  C   UNL     1      -6.896  -3.094   2.002  0.00  0.00    +0.001 C 
ATOM     13  C   UNL     1      -5.825  -1.976   2.528  0.00  0.00    +0.004 C 
ENDBRANCH   1   4
BRANCH   1  14
ATOM     14  C   UNL     1      -1.292  -0.776   0.011  0.00  0.00    -0.043 C 
BRANCH  14  20
ATOM     15  C   UNL     1      -0.017   1.377   0.010  0.00  0.00    +0.025 A 
ATOM     16  C   UNL     1       1.171   2.087   0.002  0.00  0.00    +0.043 A 
ATOM     17  C   UNL     1       2.381   1.415  -0.013  0.00  0.00    +0.043 A 
ATOM     18  C   UNL     1       2.404   0.032  -0.021  0.00  0.00    +0.084 A 
ATOM     19  C   UNL     1       1.213  -0.680  -0.013  0.00  0.00    +0.136 A 
ATOM     20  C   UNL     1       0.002  -0.004   0.002  0.00  0.00    -0.020 A 
ATOM     21 CL   UNL     1       3.921  -0.811  -0.040  0.00  0.00    -0.080 Cl
ATOM     22 CL   UNL     1       1.145   3.822   0.011  0.00  0.00    -0.083 Cl
BRANCH  19  23
ATOM     23  O   UNL     1       1.233  -2.040  -0.021  0.00  0.00    -0.505 OA
ATOM     24  H   UNL     1       1.248  -2.438   0.860  0.00  0.00    +0.292 HD
ENDBRANCH  19  23
ENDBRANCH  14  20
ENDBRANCH   1  14
TORSDOF 4
