REMARK  Name = ZINC12582444
REMARK  10 active torsions:
REMARK  status: ('A' for Active; 'I' for Inactive)
REMARK    1  A    between atoms: C_1  and  C_2
REMARK    2  A    between atoms: C_2  and  C_18
REMARK    3  A    between atoms: N_3  and  N_4
REMARK    4  A    between atoms: N_4  and  C_5
REMARK    5  A    between atoms: C_8  and  S_14
REMARK    6  A    between atoms: C_10  and  N_11
REMARK    7  A    between atoms: S_14  and  N_17
REMARK    8  A    between atoms: C_21  and  O_25
REMARK    9  A    between atoms: C_23  and  O_24
REMARK   10  A    between atoms: O_25  and  C_26
REMARK                            x       y       z     vdW  Elec       q    Type
REMARK                         _______ _______ _______ _____ _____    ______ ____
ROOT
ATOM      1  N   UNL     1      -0.476  -0.014   2.365  0.00  0.00    -0.235 N 
ATOM      2  H   UNL     1      -0.499   0.956   2.388  0.00  0.00    +0.174 HD
ENDROOT
BRANCH   1   3
ATOM      3  C   UNL     1      -0.207  -0.721   3.509  0.00  0.00    +0.079 A 
ATOM      4  C   UNL     1      -0.286  -2.120   3.507  0.00  0.00    +0.029 A 
ATOM      5  C   UNL     1      -0.015  -2.823   4.660  0.00  0.00    +0.030 A 
ATOM      6  C   UNL     1       0.336  -2.150   5.820  0.00  0.00    +0.107 A 
ATOM      7  C   UNL     1       0.416  -0.766   5.830  0.00  0.00    +0.063 A 
ATOM      8  C   UNL     1       0.153  -0.049   4.684  0.00  0.00    +0.150 A 
BRANCH   8   9
ATOM      9  N   UNL     1       0.245   1.429   4.695  0.00  0.00    +0.058 N 
ATOM     10  O   UNL     1       0.716   2.067   3.644  0.00  0.00    -0.126 OA
ATOM     11  O   UNL     1      -0.145   2.105   5.756  0.00  0.00    -0.126 OA
ENDBRANCH   8   9
BRANCH   6  12
ATOM     12  S   UNL     1       0.682  -3.058   7.290  0.00  0.00    +0.056 S 
ATOM     13  O   UNL     1       0.453  -2.173   8.378  0.00  0.00    -0.153 OA
ATOM     14  O   UNL     1       0.007  -4.303   7.166  0.00  0.00    -0.153 OA
BRANCH  12  15
ATOM     15  N   UNL     1       2.303  -3.396   7.287  0.00  0.00    -0.204 NA
ATOM     16  H   UNL     1       2.860  -3.095   6.552  0.00  0.00    +0.144 HD
ATOM     17  H   UNL     1       2.696  -3.896   8.020  0.00  0.00    +0.144 HD
ENDBRANCH  12  15
ENDBRANCH   6  12
ENDBRANCH   1   3
BRANCH   1  20
ATOM     18  C   UNL     1      -0.997   1.562   0.172  0.00  0.00    +0.068 C 
ATOM     19  C   UNL     1      -0.962   0.056   0.135  0.00  0.00    +0.067 C 
ATOM     20  N   UNL     1      -0.698  -0.638   1.258  0.00  0.00    -0.187 NA
BRANCH  19  21
ATOM     21  C   UNL     1      -1.201  -0.616  -1.057  0.00  0.00    +0.039 A 
ATOM     22  C   UNL     1      -1.484   0.123  -2.293  0.00  0.00    +0.017 A 
ATOM     23  C   UNL     1      -1.713  -0.563  -3.436  0.00  0.00    +0.046 A 
ATOM     24  C   UNL     1      -1.684  -1.970  -3.459  0.00  0.00    +0.124 A 
ATOM     25  C   UNL     1      -1.420  -2.716  -2.316  0.00  0.00    +0.091 A 
ATOM     26  C   UNL     1      -1.171  -2.091  -1.113  0.00  0.00    +0.129 A 
BRANCH  26  27
ATOM     27  O   UNL     1      -0.909  -2.816  -0.003  0.00  0.00    -0.506 OA
ATOM     28  H   UNL     1      -1.696  -3.052   0.508  0.00  0.00    +0.292 HD
ENDBRANCH  26  27
BRANCH  24  29
ATOM     29  O   UNL     1      -1.919  -2.613  -4.624  0.00  0.00    -0.495 OA
ATOM     30  C   UNL     1      -2.185  -1.803  -5.770  0.00  0.00    +0.277 C 
ENDBRANCH  24  29
ENDBRANCH  19  21
ENDBRANCH   1  20
TORSDOF 8
