REMARK  Name = ZINC05284377
REMARK  9 active torsions:
REMARK  status: ('A' for Active; 'I' for Inactive)
REMARK    1  A    between atoms: C_1  and  C_2
REMARK    2  A    between atoms: C_2  and  C_3
REMARK    3  A    between atoms: C_2  and  C_4
REMARK    4  A    between atoms: C_2  and  O_30
REMARK    5  A    between atoms: C_6  and  C_7
REMARK    6  A    between atoms: C_6  and  N_21
REMARK    7  A    between atoms: C_7  and  C_8
REMARK    8  A    between atoms: C_7  and  C_14
REMARK    9  A    between atoms: C_7  and  O_20
REMARK                            x       y       z     vdW  Elec       q    Type
REMARK                         _______ _______ _______ _____ _____    ______ ____
ROOT
ATOM      1  C   UNL     1       4.413   0.131  -1.106  0.00  0.00    +0.060 C 
ATOM      2  C   UNL     1       3.221   0.661  -1.183  0.00  0.00    -0.095 C 
ATOM      3  C   UNL     1       2.029   1.191  -1.260  0.00  0.00    +0.127 C 
ENDROOT
BRANCH   3   4
ATOM      4  N   UNL     1       1.459   1.407  -2.473  0.00  0.00    -0.205 N 
ATOM      5  C   UNL     1       2.010   1.128  -3.708  0.00  0.00    +0.095 A 
ATOM      6  C   UNL     1       3.211   0.572  -4.125  0.00  0.00    +0.030 A 
ATOM      7  C   UNL     1       3.461   0.418  -5.472  0.00  0.00    +0.002 A 
ATOM      8  C   UNL     1       2.517   0.810  -6.413  0.00  0.00    +0.002 A 
ATOM      9  C   UNL     1       1.327   1.353  -6.023  0.00  0.00    +0.032 A 
ATOM     10  C   UNL     1       1.049   1.520  -4.659  0.00  0.00    +0.113 A 
ATOM     11  N   UNL     1      -0.009   2.015  -3.990  0.00  0.00    -0.129 NA
ATOM     12  N   UNL     1       0.195   1.964  -2.721  0.00  0.00    -0.059 NA
ENDBRANCH   3   4
BRANCH   1  14
ATOM     13  C   UNL     1       3.188  -2.024  -1.049  0.00  0.00    +0.046 C 
ATOM     14  C   UNL     1       4.569  -1.366  -1.024  0.00  0.00    +0.086 C 
ATOM     15  C   UNL     1       5.390  -1.859  -2.217  0.00  0.00    +0.046 C 
BRANCH  14  16
ATOM     16  O   UNL     1       5.238  -1.710   0.191  0.00  0.00    -0.384 OA
ATOM     17  H   UNL     1       6.122  -1.326   0.275  0.00  0.00    +0.211 HD
ENDBRANCH  14  16
ENDBRANCH   1  14
BRANCH   3  18
ATOM     18  C   UNL     1       1.286   1.562  -0.002  0.00  0.00    +0.165 C 
BRANCH  18  19
ATOM     19  C   UNL     1       0.981   3.037  -0.016  0.00  0.00    -0.005 A 
ATOM     20  C   UNL     1       1.831   3.913  -0.664  0.00  0.00    +0.007 A 
ATOM     21  C   UNL     1       1.548   5.266  -0.681  0.00  0.00    +0.000 A 
ATOM     22  C   UNL     1       0.420   5.745  -0.041  0.00  0.00    +0.000 A 
ATOM     23  C   UNL     1      -0.427   4.869   0.613  0.00  0.00    +0.000 A 
ATOM     24  C   UNL     1      -0.147   3.516   0.625  0.00  0.00    +0.007 A 
ENDBRANCH  18  19
BRANCH  18  25
ATOM     25  C   UNL     1       2.138   1.236   1.198  0.00  0.00    -0.005 A 
ATOM     26  C   UNL     1       3.301   1.946   1.433  0.00  0.00    +0.007 A 
ATOM     27  C   UNL     1       4.079   1.651   2.537  0.00  0.00    +0.000 A 
ATOM     28  C   UNL     1       3.700   0.639   3.400  0.00  0.00    +0.000 A 
ATOM     29  C   UNL     1       2.540  -0.074   3.162  0.00  0.00    +0.000 A 
ATOM     30  C   UNL     1       1.759   0.225   2.061  0.00  0.00    +0.007 A 
ENDBRANCH  18  25
BRANCH  18  31
ATOM     31  O   UNL     1       0.065   0.823   0.066  0.00  0.00    -0.373 OA
ATOM     32  H   UNL     1       0.186  -0.136   0.079  0.00  0.00    +0.212 HD
ENDBRANCH  18  31
ENDBRANCH   3  18
TORSDOF 7
