REMARK  Name = ZINC31808550
REMARK  3 active torsions:
REMARK  status: ('A' for Active; 'I' for Inactive)
REMARK    1  A    between atoms: C_1  and  C_2
REMARK    2  A    between atoms: C_18  and  O_31
REMARK    3  A    between atoms: C_21  and  C_23
REMARK                            x       y       z     vdW  Elec       q    Type
REMARK                         _______ _______ _______ _____ _____    ______ ____
ROOT
ATOM      1  C   UNL     1       0.097   1.560  -0.042  0.00  0.00    +0.068 C 
ATOM      2  C   UNL     1       0.122   0.053  -0.018  0.00  0.00    +0.067 A 
ATOM      3  C   UNL     1      -0.024  -0.785  -1.139  0.00  0.00    +0.037 A 
ATOM      4  C   UNL     1       0.054  -2.080  -0.704  0.00  0.00    +0.166 A 
ATOM      5  N   UNL     1       0.252  -2.026   0.664  0.00  0.00    -0.194 N 
ATOM      6  N   UNL     1       0.289  -0.684   1.044  0.00  0.00    -0.168 NA
ATOM      7  C   UNL     1       0.395  -3.120   1.514  0.00  0.00    +0.187 A 
ATOM      8  C   UNL     1       0.587  -2.938   2.892  0.00  0.00    +0.152 A 
ATOM      9  C   UNL     1       0.724  -4.082   3.700  0.00  0.00    +0.163 A 
ATOM     10  N   UNL     1       0.897  -3.621   4.981  0.00  0.00    -0.329 N 
ATOM     11  H   UNL     1       1.021  -4.165   5.774  0.00  0.00    +0.168 HD
ATOM     12  C   UNL     1       0.863  -2.259   4.933  0.00  0.00    +0.198 A 
ATOM     13  N   UNL     1       0.680  -1.861   3.708  0.00  0.00    -0.231 NA
ATOM     14  N   UNL     1       0.668  -5.282   3.134  0.00  0.00    -0.216 NA
ATOM     15  C   UNL     1       0.486  -5.403   1.836  0.00  0.00    +0.226 A 
ATOM     16  N   UNL     1       0.347  -4.359   1.039  0.00  0.00    -0.214 NA
ATOM     17  N   UNL     1      -0.036  -3.252  -1.353  0.00  0.00    -0.197 NA
ATOM     18  C   UNL     1      -0.210  -3.626  -2.537  0.00  0.00    +0.199 C 
ATOM     19  C   UNL     1      -0.339  -2.827  -3.773  0.00  0.00    +0.165 C 
ATOM     20  S   UNL     1      -1.263  -1.303  -3.538  0.00  0.00    -0.138 S 
ATOM     21  C   UNL     1      -0.220  -0.248  -2.525  0.00  0.00    +0.116 C 
ENDROOT
BRANCH  21  22
ATOM     22  C   UNL     1      -0.853   1.117  -2.432  0.00  0.00    +0.023 A 
ATOM     23  C   UNL     1      -2.184   1.240  -2.074  0.00  0.00    +0.129 A 
ATOM     24  C   UNL     1      -2.764   2.494  -1.989  0.00  0.00    +0.039 A 
ATOM     25  C   UNL     1      -2.014   3.623  -2.262  0.00  0.00    +0.004 A 
ATOM     26  C   UNL     1      -0.685   3.499  -2.620  0.00  0.00    +0.020 A 
ATOM     27  C   UNL     1      -0.102   2.247  -2.700  0.00  0.00    +0.048 A 
ATOM     28 CL   UNL     1       1.570   2.093  -3.143  0.00  0.00    -0.083 Cl
ATOM     29  F   UNL     1      -2.917   0.137  -1.807  0.00  0.00    -0.205 F 
ENDBRANCH  21  22
BRANCH  18  30
ATOM     30  O   UNL     1      -0.292  -4.961  -2.708  0.00  0.00    -0.495 OA
ATOM     31  H   UNL     1      -0.206  -5.468  -1.889  0.00  0.00    +0.293 HD
ENDBRANCH  18  30
TORSDOF 2
