REMARK  Name = ZINC12651211
REMARK  8 active torsions:
REMARK  status: ('A' for Active; 'I' for Inactive)
REMARK    1  A    between atoms: C_1  and  O_2
REMARK    2  A    between atoms: O_2  and  C_3
REMARK    3  A    between atoms: C_5  and  C_12
REMARK    4  A    between atoms: C_7  and  O_10
REMARK    5  A    between atoms: C_8  and  O_9
REMARK    6  A    between atoms: O_10  and  C_11
REMARK    7  A    between atoms: C_17  and  N_19
REMARK    8  A    between atoms: N_19  and  C_20
REMARK                            x       y       z     vdW  Elec       q    Type
REMARK                         _______ _______ _______ _____ _____    ______ ____
ROOT
ATOM      1  C   UNL     1      -4.840   0.222  -0.112  0.00  0.00    +0.028 C 
ATOM      2  C   UNL     1      -6.041  -0.408  -0.149  0.00  0.00    +0.079 C 
ATOM      3  C   UNL     1      -7.411   0.156  -0.127  0.00  0.00    +0.276 C 
ATOM      4  O   UNL     1      -7.610   1.359  -0.068  0.00  0.00    -0.267 OA
ATOM      5  N   UNL     1      -8.399  -0.710  -0.175  0.00  0.00    -0.152 NA
ATOM      6  C   UNL     1      -8.196  -2.016  -0.239  0.00  0.00    +0.175 C 
ATOM      7  S   UNL     1      -6.416  -2.155  -0.245  0.00  0.00    -0.050 S 
ENDROOT
BRANCH   1  10
ATOM      8  C   UNL     1      -2.498  -2.594  -0.922  0.00  0.00    +0.166 A 
ATOM      9  C   UNL     1      -3.664  -1.879  -0.728  0.00  0.00    +0.057 A 
ATOM     10  C   UNL     1      -3.603  -0.541  -0.319  0.00  0.00    -0.017 A 
ATOM     11  C   UNL     1      -2.359   0.066  -0.108  0.00  0.00    +0.057 A 
ATOM     12  C   UNL     1      -1.198  -0.656  -0.305  0.00  0.00    +0.166 A 
ATOM     13  C   UNL     1      -1.263  -1.988  -0.706  0.00  0.00    +0.201 A 
BRANCH   8  15
ATOM     14  C   UNL     1      -3.856  -4.452  -1.523  0.00  0.00    +0.277 C 
ATOM     15  O   UNL     1      -2.556  -3.894  -1.320  0.00  0.00    -0.491 OA
ENDBRANCH   8  15
BRANCH  13  16
ATOM     16  O   UNL     1      -0.118  -2.696  -0.893  0.00  0.00    -0.501 OA
ATOM     17  H   UNL     1       0.235  -2.644  -1.792  0.00  0.00    +0.292 HD
ENDBRANCH  13  16
BRANCH  12  18
ATOM     18  O   UNL     1       0.011  -0.066  -0.101  0.00  0.00    -0.491 OA
ATOM     19  C   UNL     1       0.004   1.301   0.315  0.00  0.00    +0.277 C 
ENDBRANCH  12  18
ENDBRANCH   1  10
BRANCH   6  20
ATOM     20  N   UNL     1      -9.128  -3.020  -0.293  0.00  0.00    -0.192 NA
BRANCH  20  21
ATOM     21  C   UNL     1     -10.475  -2.713  -0.513  0.00  0.00    +0.056 A 
ATOM     22  C   UNL     1     -10.823  -1.536  -1.163  0.00  0.00    +0.025 A 
ATOM     23  C   UNL     1     -12.154  -1.236  -1.378  0.00  0.00    +0.002 A 
ATOM     24  C   UNL     1     -13.139  -2.106  -0.947  0.00  0.00    +0.000 A 
ATOM     25  C   UNL     1     -12.795  -3.278  -0.300  0.00  0.00    +0.002 A 
ATOM     26  C   UNL     1     -11.466  -3.587  -0.086  0.00  0.00    +0.025 A 
ENDBRANCH  20  21
ENDBRANCH   6  20
TORSDOF 6
