REMARK  Name = ZINC28295621
REMARK  7 active torsions:
REMARK  status: ('A' for Active; 'I' for Inactive)
REMARK    1  A    between atoms: C_1  and  N_2
REMARK    2  A    between atoms: N_2  and  C_3
REMARK    3  A    between atoms: N_2  and  S_14
REMARK    4  A    between atoms: C_3  and  C_4
REMARK    5  A    between atoms: C_4  and  C_5
REMARK    6  A    between atoms: C_5  and  C_6
REMARK    7  A    between atoms: S_14  and  C_17
REMARK                            x       y       z     vdW  Elec       q    Type
REMARK                         _______ _______ _______ _____ _____    ______ ____
ROOT
ATOM      1  S   UNL     1      -0.017   1.417   0.010  0.00  0.00    +0.061 S 
ATOM      2  O   UNL     1       0.002  -0.004   0.002  0.00  0.00    -0.153 OA
ATOM      3  O   UNL     1       1.172   2.195   0.003  0.00  0.00    -0.153 OA
ENDROOT
BRANCH   1   4
ATOM      4  C   UNL     1      -0.927   1.900   1.439  0.00  0.00    +0.106 A 
ATOM      5  C   UNL     1      -0.714   3.146   2.000  0.00  0.00    +0.029 A 
ATOM      6  C   UNL     1      -1.425   3.542   3.120  0.00  0.00    +0.014 A 
ATOM      7  C   UNL     1      -2.353   2.677   3.693  0.00  0.00    +0.033 A 
ATOM      8  C   UNL     1      -2.566   1.408   3.126  0.00  0.00    +0.035 A 
ATOM      9  C   UNL     1      -1.846   1.028   1.997  0.00  0.00    +0.041 A 
ATOM     10  C   UNL     1      -3.550   0.484   3.728  0.00  0.00    +0.195 C 
ATOM     11  O   UNL     1      -3.733  -0.613   3.239  0.00  0.00    -0.287 OA
ATOM     12  C   UNL     1      -4.309   0.896   4.927  0.00  0.00    +0.033 A 
ATOM     13  C   UNL     1      -5.238   0.032   5.501  0.00  0.00    +0.012 A 
ATOM     14  C   UNL     1      -5.945   0.426   6.624  0.00  0.00    +0.001 A 
ATOM     15  C   UNL     1      -5.735   1.674   7.181  0.00  0.00    +0.001 A 
ATOM     16  C   UNL     1      -4.816   2.545   6.623  0.00  0.00    +0.012 A 
ATOM     17  C   UNL     1      -4.097   2.165   5.494  0.00  0.00    +0.033 A 
ATOM     18  C   UNL     1      -3.113   3.089   4.892  0.00  0.00    +0.195 C 
ATOM     19  O   UNL     1      -2.929   4.186   5.382  0.00  0.00    -0.287 OA
ENDBRANCH   1   4
BRANCH   1  21
ATOM     20  C   UNL     1      -0.691   3.213  -1.897  0.00  0.00    +0.131 C 
ATOM     21  N   UNL     1      -0.897   1.885  -1.312  0.00  0.00    -0.180 NA
BRANCH  21  22
ATOM     22  C   UNL     1      -1.883   0.973  -1.897  0.00  0.00    +0.109 C 
BRANCH  22  23
ATOM     23  C   UNL     1      -3.267   1.280  -1.323  0.00  0.00    +0.026 C 
BRANCH  23  24
ATOM     24  C   UNL     1      -4.296   0.327  -1.934  0.00  0.00    +0.097 C 
BRANCH  24  25
ATOM     25  C   UNL     1      -5.659   0.629  -1.367  0.00  0.00    +0.215 C 
ATOM     26  O   UNL     1      -5.795   1.520  -0.555  0.00  0.00    -0.276 OA
ATOM     27  N   UNL     1      -6.728  -0.090  -1.764  0.00  0.00    -0.305 N 
ATOM     28  C   UNL     1      -6.587  -1.170  -2.752  0.00  0.00    +0.088 C 
ATOM     29  C   UNL     1      -7.618  -0.960  -3.860  0.00  0.00    -0.063 C 
ATOM     30  N   UNL     1      -8.955  -0.832  -3.265  0.00  0.00    +0.381 N 
ATOM     31  C   UNL     1      -9.041   0.349  -2.396  0.00  0.00    -0.063 C 
ATOM     32  C   UNL     1      -8.068   0.189  -1.224  0.00  0.00    +0.088 C 
ATOM     33  H   UNL     1      -9.705  -0.734  -4.064  0.00  0.00    -0.086 HD
ATOM     34  H   UNL     1      -9.176  -1.726  -2.663  0.00  0.00    -0.086 HD
ENDBRANCH  24  25
ENDBRANCH  23  24
ENDBRANCH  22  23
ENDBRANCH  21  22
ENDBRANCH   1  21
TORSDOF 6
