REMARK  Name = ZINC09350912
REMARK  11 active torsions:
REMARK  status: ('A' for Active; 'I' for Inactive)
REMARK    1  A    between atoms: C_1  and  N_59
REMARK    2  A    between atoms: C_2  and  N_59
REMARK    3  A    between atoms: C_3  and  C_4
REMARK    4  A    between atoms: C_3  and  N_59
REMARK    5  A    between atoms: C_4  and  N_5
REMARK    6  A    between atoms: C_6  and  C_29
REMARK    7  A    between atoms: C_9  and  C_10
REMARK    8  A    between atoms: C_9  and  O_24
REMARK    9  A    between atoms: C_13  and  O_16
REMARK   10  A    between atoms: O_16  and  C_17
REMARK   11  A    between atoms: C_17  and  C_18
REMARK                            x       y       z     vdW  Elec       q    Type
REMARK                         _______ _______ _______ _____ _____    ______ ____
ROOT
ATOM      1  N   UNL     1      11.554  -4.742   0.246  0.00  0.00    -0.285 N 
ATOM      2  C   UNL     1      11.120  -4.592  -1.146  0.00  0.00    +0.151 C 
ATOM      3  C   UNL     1       9.746  -3.963  -1.106  0.00  0.00    +0.072 C 
ATOM      4  C   UNL     1       8.951  -3.638  -2.188  0.00  0.00    +0.133 C 
ATOM      5  C   UNL     1       9.445  -3.771   0.250  0.00  0.00    +0.249 C 
ATOM      6  O   UNL     1       8.421  -3.280   0.691  0.00  0.00    -0.282 OA
ATOM      7  C   UNL     1      10.590  -4.272   1.056  0.00  0.00    +0.288 C 
ATOM      8  O   UNL     1      10.648  -4.256   2.269  0.00  0.00    -0.266 OA
ENDROOT
BRANCH   4   9
ATOM      9  C   UNL     1       7.573  -3.171  -1.973  0.00  0.00    +0.017 A 
ATOM     10  C   UNL     1       7.124  -1.998  -2.592  0.00  0.00    +0.015 A 
ATOM     11  C   UNL     1       5.834  -1.565  -2.387  0.00  0.00    +0.046 A 
ATOM     12  C   UNL     1       4.976  -2.290  -1.567  0.00  0.00    +0.121 A 
ATOM     13  C   UNL     1       5.419  -3.453  -0.946  0.00  0.00    +0.046 A 
ATOM     14  C   UNL     1       6.705  -3.898  -1.148  0.00  0.00    +0.015 A 
BRANCH  12  15
ATOM     15  O   UNL     1       3.705  -1.859  -1.369  0.00  0.00    -0.487 OA
BRANCH  15  16
ATOM     16  C   UNL     1       2.877  -2.652  -0.515  0.00  0.00    +0.264 C 
BRANCH  16  17
ATOM     17  C   UNL     1       1.512  -2.022  -0.414  0.00  0.00    -0.010 A 
ATOM     18  C   UNL     1       0.521  -2.372  -1.313  0.00  0.00    +0.007 A 
ATOM     19  C   UNL     1      -0.731  -1.794  -1.220  0.00  0.00    +0.000 A 
ATOM     20  C   UNL     1      -0.994  -0.867  -0.229  0.00  0.00    +0.000 A 
ATOM     21  C   UNL     1      -0.003  -0.518   0.671  0.00  0.00    +0.000 A 
ATOM     22  C   UNL     1       1.249  -1.096   0.578  0.00  0.00    +0.007 A 
ENDBRANCH  16  17
ENDBRANCH  15  16
ENDBRANCH  12  15
ENDBRANCH   4   9
BRANCH   2  23
ATOM     23  C   UNL     1      11.050  -5.942  -1.813  0.00  0.00    +0.015 A 
ATOM     24  C   UNL     1      11.393  -6.287  -3.079  0.00  0.00    +0.013 A 
ATOM     25  C   UNL     1      11.243  -7.602  -3.478  0.00  0.00    +0.008 A 
ATOM     26  C   UNL     1      10.758  -8.507  -2.593  0.00  0.00    +0.045 A 
ATOM     27  S   UNL     1      10.502  -7.502  -1.140  0.00  0.00    -0.099 S 
ENDBRANCH   2  23
BRANCH   4  28
ATOM     28  O   UNL     1       9.438  -3.749  -3.442  0.00  0.00    -0.506 OA
ATOM     29  H   UNL     1       8.735  -3.475  -4.098  0.00  0.00    +0.292 HD
ENDBRANCH   4  28
BRANCH   1  30
ATOM     30  C   UNL     1      12.832  -5.309   0.683  0.00  0.00    +0.090 C 
BRANCH  30  31
ATOM     31  C   UNL     1      13.875  -4.195   0.789  0.00  0.00    -0.060 C 
BRANCH  31  34
ATOM     32  C   UNL     1      16.238  -3.776   1.114  0.00  0.00    -0.097 C 
ATOM     33  C   UNL     1      15.060  -5.285   2.598  0.00  0.00    -0.097 C 
ATOM     34  N   UNL     1      15.163  -4.787   1.210  0.00  0.00    +0.377 N 
ATOM     35  H   UNL     1      15.387  -5.573   0.589  0.00  0.00    -0.083 HD
ENDBRANCH  31  34
ENDBRANCH  30  31
ENDBRANCH   1  30
TORSDOF 9
