REMARK  Name = ZINC61485070
REMARK  4 active torsions:
REMARK  status: ('A' for Active; 'I' for Inactive)
REMARK    1  A    between atoms: C_1  and  C_2
REMARK    2  A    between atoms: C_11  and  C_15
REMARK    3  A    between atoms: N_17  and  N_18
REMARK    4  A    between atoms: C_19  and  C_21
REMARK                            x       y       z     vdW  Elec       q    Type
REMARK                         _______ _______ _______ _____ _____    ______ ____
ROOT
ATOM      1  C   UNL     1      -0.019   1.526   0.010  0.00  0.00    +0.008 C 
ATOM      2  C   UNL     1       0.002  -0.004   0.002  0.00  0.00    -0.009 C 
ATOM      3  C   UNL     1      -1.434  -0.535   0.017  0.00  0.00    +0.009 C 
ATOM      4  C   UNL     1      -1.422  -2.045  -0.242  0.00  0.00    +0.054 C 
ATOM      5  C   UNL     1      -0.426  -2.687   0.695  0.00  0.00    +0.020 A 
ATOM      6  C   UNL     1       0.533  -2.001   1.353  0.00  0.00    -0.019 A 
ATOM      7  C   UNL     1       1.275  -2.963   2.143  0.00  0.00    +0.004 A 
ATOM      8  C   UNL     1       2.362  -2.838   3.013  0.00  0.00    +0.010 A 
ATOM      9  C   UNL     1       2.826  -3.997   3.614  0.00  0.00    +0.001 A 
ATOM     10  C   UNL     1       2.252  -5.229   3.375  0.00  0.00    +0.015 A 
ATOM     11  C   UNL     1       1.164  -5.386   2.509  0.00  0.00    +0.062 A 
ATOM     12  C   UNL     1       0.675  -4.222   1.887  0.00  0.00    +0.059 A 
ATOM     13  N   UNL     1      -0.344  -4.018   1.011  0.00  0.00    -0.357 N 
ATOM     14  H   UNL     1      -0.926  -4.711   0.662  0.00  0.00    +0.166 HD
ATOM     15  C   UNL     1       0.744  -0.513   1.244  0.00  0.00    +0.040 C 
ENDROOT
BRANCH  11  16
ATOM     16  C   UNL     1       0.559  -6.708   2.260  0.00  0.00    +0.262 C 
ATOM     17  O   UNL     1      -0.386  -6.811   1.501  0.00  0.00    -0.269 OA
ATOM     18  N   UNL     1       1.053  -7.802   2.872  0.00  0.00    -0.230 N 
ATOM     19  H   UNL     1       1.807  -7.720   3.477  0.00  0.00    +0.173 HD
BRANCH  18  20
ATOM     20  N   UNL     1       0.478  -9.058   2.635  0.00  0.00    -0.230 N 
ATOM     21  C   UNL     1       0.973 -10.152   3.248  0.00  0.00    +0.263 C 
ATOM     22  O   UNL     1       1.918 -10.049   4.006  0.00  0.00    -0.269 OA
ATOM     23  H   UNL     1      -0.275  -9.140   2.030  0.00  0.00    +0.173 HD
BRANCH  21  24
ATOM     24  C   UNL     1       0.368 -11.472   2.999  0.00  0.00    +0.076 A 
ATOM     25  C   UNL     1       0.773 -12.760   3.582  0.00  0.00    +0.054 A 
ATOM     26  C   UNL     1      -0.059 -13.677   3.067  0.00  0.00    +0.195 A 
ATOM     27  O   UNL     1      -0.921 -13.070   2.235  0.00  0.00    -0.470 OA
ATOM     28  C   UNL     1      -0.688 -11.755   2.183  0.00  0.00    +0.208 A 
ENDBRANCH  21  24
ENDBRANCH  18  20
ENDBRANCH  11  16
TORSDOF 3
