REMARK  Name = ZINC17044830
REMARK  3 active torsions:
REMARK  status: ('A' for Active; 'I' for Inactive)
REMARK    1  A    between atoms: C_1  and  C_2
REMARK    2  A    between atoms: C_5  and  C_17
REMARK    3  A    between atoms: C_8  and  C_12
REMARK                            x       y       z     vdW  Elec       q    Type
REMARK                         _______ _______ _______ _____ _____    ______ ____
ROOT
ATOM      1  C   UNL     1      -0.018   1.503   0.010  0.00  0.00    +0.085 C 
ATOM      2  C   UNL     1       0.002  -0.004   0.002  0.00  0.00    +0.117 C 
ATOM      3  N   UNL     1       0.008  -0.747  -1.058  0.00  0.00    -0.166 NA
ATOM      4  N   UNL     1       0.028  -2.085  -0.658  0.00  0.00    -0.182 N 
ATOM      5  C   UNL     1       0.042  -3.357  -1.392  0.00  0.00    +0.156 C 
ATOM      6  C   UNL     1       0.062  -4.620  -0.551  0.00  0.00    +0.033 C 
ATOM      7  C   UNL     1       0.066  -4.472   0.791  0.00  0.00    +0.108 C 
ATOM      8  N   UNL     1       0.052  -3.244   1.371  0.00  0.00    -0.214 NA
ATOM      9  C   UNL     1       0.034  -2.112   0.706  0.00  0.00    +0.209 C 
ATOM     10  N   UNL     1       0.024  -0.805   1.118  0.00  0.00    -0.273 N 
ATOM     11  H   UNL     1       0.028  -0.498   2.038  0.00  0.00    +0.156 HD
ENDROOT
BRANCH   5  12
ATOM     12  C   UNL     1       1.257  -3.369  -2.283  0.00  0.00    -0.021 A 
ATOM     13  C   UNL     1       2.459  -2.868  -1.819  0.00  0.00    +0.006 A 
ATOM     14  C   UNL     1       3.574  -2.880  -2.636  0.00  0.00    +0.000 A 
ATOM     15  C   UNL     1       3.487  -3.392  -3.917  0.00  0.00    +0.000 A 
ATOM     16  C   UNL     1       2.285  -3.894  -4.380  0.00  0.00    +0.000 A 
ATOM     17  C   UNL     1       1.171  -3.887  -3.562  0.00  0.00    +0.006 A 
ENDBRANCH   5  12
BRANCH   7  18
ATOM     18  C   UNL     1       0.086  -5.675   1.649  0.00  0.00    +0.153 A 
ATOM     19  C   UNL     1       0.086  -5.685   3.009  0.00  0.00    +0.051 A 
ATOM     20  C   UNL     1       0.107  -7.037   3.405  0.00  0.00    +0.042 A 
ATOM     21  C   UNL     1       0.119  -7.778   2.279  0.00  0.00    +0.196 A 
ATOM     22  O   UNL     1       0.100  -6.952   1.221  0.00  0.00    -0.461 OA
ENDBRANCH   7  18
TORSDOF 2
