REMARK  Name = ZINC05648133
REMARK  5 active torsions:
REMARK  status: ('A' for Active; 'I' for Inactive)
REMARK    1  A    between atoms: C_1  and  C_2
REMARK    2  A    between atoms: C_6  and  N_8
REMARK    3  A    between atoms: C_10  and  C_17
REMARK    4  A    between atoms: C_22  and  O_25
REMARK    5  A    between atoms: O_25  and  C_26
REMARK                            x       y       z     vdW  Elec       q    Type
REMARK                         _______ _______ _______ _____ _____    ______ ____
ROOT
ATOM      1  N   UNL     1      -0.013  -2.812   2.351  0.00  0.00    -0.228 N 
ATOM      2  C   UNL     1      -0.080  -4.172   2.344  0.00  0.00    +0.272 A 
ATOM      3  C   UNL     1      -0.025  -4.863   3.572  0.00  0.00    +0.105 A 
ATOM      4  C   UNL     1       0.103  -4.063   4.805  0.00  0.00    +0.265 A 
ATOM      5  O   UNL     1       0.156  -4.603   5.894  0.00  0.00    -0.267 OA
ATOM      6  N   UNL     1       0.161  -2.720   4.697  0.00  0.00    -0.274 N 
ATOM      7  H   UNL     1       0.246  -2.178   5.497  0.00  0.00    +0.173 HD
ATOM      8  C   UNL     1       0.109  -2.123   3.495  0.00  0.00    +0.337 A 
ATOM      9  O   UNL     1       0.170  -0.910   3.443  0.00  0.00    -0.246 OA
ATOM     10  O   UNL     1      -0.198  -4.845   1.187  0.00  0.00    -0.266 OA
ENDROOT
BRANCH   3  11
ATOM     11  C   UNL     1      -0.090  -6.259   3.620  0.00  0.00    +0.030 C 
ATOM     12  C   UNL     1       0.829  -7.030   2.892  0.00  0.00    +0.026 C 
ATOM     13  C   UNL     1       1.905  -6.418   2.216  0.00  0.00    +0.012 C 
ATOM     14  C   UNL     1       2.789  -7.175   1.514  0.00  0.00    +0.004 C 
ATOM     15  C   UNL     1       2.663  -8.560   1.440  0.00  0.00    +0.049 C 
ATOM     16  C   UNL     1       1.638  -9.219   2.075  0.00  0.00    +0.167 C 
ATOM     17  C   UNL     1       0.693  -8.488   2.824  0.00  0.00    +0.227 C 
ATOM     18  O   UNL     1      -0.223  -9.059   3.401  0.00  0.00    -0.283 OA
BRANCH  16  19
ATOM     19  O   UNL     1       1.539 -10.573   1.986  0.00  0.00    -0.491 OA
ATOM     20  C   UNL     1       2.535 -11.247   1.215  0.00  0.00    +0.277 C 
ENDBRANCH  16  19
ENDBRANCH   3  11
BRANCH   1  26
ATOM     21  C   UNL     1       2.221  -0.052  -1.052  0.00  0.00    +0.044 C 
ATOM     22  C   UNL     1       1.001  -0.771  -0.537  0.00  0.00    -0.048 A 
ATOM     23  C   UNL     1      -0.174  -0.746  -1.266  0.00  0.00    +0.003 A 
ATOM     24  C   UNL     1      -1.296  -1.404  -0.797  0.00  0.00    +0.002 A 
ATOM     25  C   UNL     1      -1.246  -2.089   0.402  0.00  0.00    +0.026 A 
ATOM     26  C   UNL     1      -0.068  -2.117   1.135  0.00  0.00    +0.055 A 
ATOM     27  C   UNL     1       1.059  -1.459   0.659  0.00  0.00    +0.029 A 
ENDBRANCH   1  26
TORSDOF 3
