REMARK  Name = ZINC63821793
REMARK  8 active torsions:
REMARK  status: ('A' for Active; 'I' for Inactive)
REMARK    1  A    between atoms: C_1  and  S_2
REMARK    2  A    between atoms: S_2  and  C_3
REMARK    3  A    between atoms: C_3  and  C_4
REMARK    4  A    between atoms: C_4  and  C_5
REMARK    5  A    between atoms: C_5  and  C_7
REMARK    6  A    between atoms: C_5  and  N_19
REMARK    7  A    between atoms: N_9  and  C_10
REMARK    8  A    between atoms: C_20  and  C_22
REMARK                            x       y       z     vdW  Elec       q    Type
REMARK                         _______ _______ _______ _____ _____    ______ ____
ROOT
ATOM      1  C   UNL     1       1.701  -2.297  -2.963  0.00  0.00    +0.160 C 
ENDROOT
BRANCH   1   2
ATOM      2  C   UNL     1       1.900  -3.789  -3.037  0.00  0.00    +0.236 C 
ATOM      3  O   UNL     1       1.426  -4.419  -3.958  0.00  0.00    -0.274 OA
ATOM      4  N   UNL     1       2.605  -4.423  -2.079  0.00  0.00    -0.277 N 
ATOM      5  H   UNL     1       2.985  -3.918  -1.342  0.00  0.00    +0.152 HD
BRANCH   4   6
ATOM      6  C   UNL     1       2.799  -5.873  -2.150  0.00  0.00    +0.269 C 
ATOM      7  N   UNL     1       1.583  -6.566  -1.707  0.00  0.00    -0.348 N 
ATOM      8  C   UNL     1       1.900  -7.286  -0.669  0.00  0.00    +0.061 A 
ATOM      9  C   UNL     1       1.125  -8.184   0.198  0.00  0.00    +0.027 A 
ATOM     10  C   UNL     1       1.737  -8.810   1.223  0.00  0.00    +0.002 A 
ATOM     11  C   UNL     1       3.103  -8.641   1.507  0.00  0.00    +0.002 A 
ATOM     12  C   UNL     1       3.904  -7.840   0.776  0.00  0.00    +0.027 A 
ATOM     13  C   UNL     1       3.347  -7.107  -0.369  0.00  0.00    +0.061 A 
ATOM     14  N   UNL     1       3.868  -6.284  -1.232  0.00  0.00    -0.348 N 
ATOM     15  H   UNL     1       0.705  -6.500  -2.113  0.00  0.00    +0.163 HD
ATOM     16  H   UNL     1       4.794  -5.996  -1.263  0.00  0.00    +0.163 HD
ENDBRANCH   4   6
ENDBRANCH   1   2
BRANCH   1  17
ATOM     17  N   UNL     1       0.907  -1.853  -4.112  0.00  0.00    -0.301 N 
ATOM     18  C   UNL     1       1.010  -0.583  -4.552  0.00  0.00    +0.258 C 
ATOM     19  O   UNL     1       1.760   0.192  -3.997  0.00  0.00    -0.272 OA
ATOM     20  H   UNL     1       0.307  -2.473  -4.556  0.00  0.00    +0.150 HD
BRANCH  18  21
ATOM     21  C   UNL     1       0.194  -0.127  -5.733  0.00  0.00    +0.296 C 
ATOM     22  C   UNL     1       0.646  -0.875  -6.995  0.00  0.00    +0.283 C 
ATOM     23  O   UNL     1      -0.139  -0.408  -8.098  0.00  0.00    -0.484 OA
ATOM     24  C   UNL     1      -0.291   0.939  -8.213  0.00  0.00    +0.162 A 
ATOM     25  C   UNL     1      -0.713   1.476  -9.421  0.00  0.00    +0.049 A 
ATOM     26  C   UNL     1      -0.875   2.842  -9.552  0.00  0.00    +0.004 A 
ATOM     27  C   UNL     1      -0.617   3.677  -8.481  0.00  0.00    +0.004 A 
ATOM     28  C   UNL     1      -0.195   3.149  -7.276  0.00  0.00    +0.049 A 
ATOM     29  C   UNL     1      -0.029   1.779  -7.137  0.00  0.00    +0.163 A 
ATOM     30  O   UNL     1       0.394   1.275  -5.946  0.00  0.00    -0.473 OA
ENDBRANCH  18  21
ENDBRANCH   1  17
BRANCH   1  31
ATOM     31  C   UNL     1       0.966  -1.944  -1.668  0.00  0.00    +0.042 C 
BRANCH  31  32
ATOM     32  C   UNL     1       0.873  -0.423  -1.533  0.00  0.00    +0.071 C 
BRANCH  32  34
ATOM     33  C   UNL     1      -0.022   1.810   0.012  0.00  0.00    +0.084 C 
ATOM     34  S   UNL     1       0.002  -0.004   0.002  0.00  0.00    -0.164 S 
ENDBRANCH  32  34
ENDBRANCH  31  32
ENDBRANCH   1  31
TORSDOF 7
