REMARK  Name = ZINC37869562
REMARK  5 active torsions:
REMARK  status: ('A' for Active; 'I' for Inactive)
REMARK    1  A    between atoms: C_1  and  C_2
REMARK    2  A    between atoms: C_2  and  N_3
REMARK    3  A    between atoms: N_3  and  C_4
REMARK    4  A    between atoms: C_4  and  C_6
REMARK    5  A    between atoms: C_4  and  C_18
REMARK                            x       y       z     vdW  Elec       q    Type
REMARK                         _______ _______ _______ _____ _____    ______ ____
ROOT
ATOM      1  C   UNL     1       1.520  -2.432  -2.389  0.00  0.00    -0.048 A 
ATOM      2  C   UNL     1       2.361  -3.521  -2.244  0.00  0.00    +0.052 A 
ATOM      3  C   UNL     1       3.104  -3.964  -3.325  0.00  0.00    +0.163 A 
ATOM      4  C   UNL     1       3.004  -3.317  -4.548  0.00  0.00    +0.176 A 
ATOM      5  C   UNL     1       2.162  -2.227  -4.691  0.00  0.00    +0.063 A 
ATOM      6  C   UNL     1       1.417  -1.790  -3.609  0.00  0.00    +0.021 A 
ATOM      7 BR   UNL     1       2.026  -1.344  -6.357  0.00  0.00    -0.046 Br
ATOM      8  O   UNL     1       3.740  -3.763  -5.608  0.00  0.00    -0.487 OA
ATOM      9  C   UNL     1       5.154  -3.580  -5.507  0.00  0.00    +0.232 C 
ATOM     10  C   UNL     1       5.791  -4.720  -4.729  0.00  0.00    +0.082 C 
ATOM     11  C   UNL     1       5.335  -4.757  -3.279  0.00  0.00    +0.232 C 
ATOM     12  O   UNL     1       3.936  -5.038  -3.195  0.00  0.00    -0.488 OA
ENDROOT
BRANCH   1  13
ATOM     13  C   UNL     1       0.710  -1.947  -1.215  0.00  0.00    +0.047 C 
BRANCH  13  14
ATOM     14  C   UNL     1      -0.700  -2.467  -1.328  0.00  0.00    +0.201 C 
ATOM     15  O   UNL     1      -1.630  -1.692  -1.395  0.00  0.00    -0.277 OA
ATOM     16  N   UNL     1      -0.927  -3.796  -1.354  0.00  0.00    -0.330 N 
ATOM     17  H   UNL     1      -0.184  -4.416  -1.300  0.00  0.00    +0.145 HD
ATOM     18  H   UNL     1      -1.835  -4.131  -1.427  0.00  0.00    +0.145 HD
ENDBRANCH  13  14
BRANCH  13  19
ATOM     19  N   UNL     1       0.690  -0.478  -1.207  0.00  0.00    +0.389 N 
ATOM     20  H   UNL     1       0.202  -0.144  -2.024  0.00  0.00    -0.084 HD
ATOM     21  H   UNL     1       1.636  -0.129  -1.214  0.00  0.00    -0.084 HD
BRANCH  19  23
ATOM     22  C   UNL     1      -0.019   1.526   0.010  0.00  0.00    -0.017 C 
ATOM     23  C   UNL     1       0.002  -0.004   0.002  0.00  0.00    -0.085 C 
ENDBRANCH  19  23
ENDBRANCH  13  19
ENDBRANCH   1  13
TORSDOF 4
