REMARK  Name = ZINC01381967
REMARK  2 active torsions:
REMARK  status: ('A' for Active; 'I' for Inactive)
REMARK    1  A    between atoms: C_4  and  N_7
REMARK    2  A    between atoms: N_21  and  C_23
REMARK                            x       y       z     vdW  Elec       q    Type
REMARK                         _______ _______ _______ _____ _____    ______ ____
ROOT
ATOM      1  N   UNL     1      -0.277   1.391   0.275  0.00  0.00    -0.187 N 
ATOM      2  C   UNL     1       0.724   2.160   0.725  0.00  0.00    +0.322 C 
ATOM      3  O   UNL     1       1.765   1.729   1.181  0.00  0.00    -0.251 OA
ATOM      4  N   UNL     1       0.434   3.470   0.609  0.00  0.00    -0.279 N 
ATOM      5  C   UNL     1      -0.906   3.554   0.016  0.00  0.00    +0.103 C 
ATOM      6  N   UNL     1      -1.315   2.154  -0.182  0.00  0.00    -0.209 NA
ATOM      7  C   UNL     1      -0.850   4.282  -1.323  0.00  0.00    +0.047 C 
ATOM      8  C   UNL     1      -0.375   5.721  -1.102  0.00  0.00    +0.047 C 
ATOM      9  C   UNL     1      -1.329   6.431  -0.145  0.00  0.00    +0.103 C 
ATOM     10  C   UNL     1      -1.390   5.701   1.194  0.00  0.00    +0.047 C 
ATOM     11  C   UNL     1      -1.864   4.262   0.971  0.00  0.00    +0.047 C 
ATOM     12  N   UNL     1      -2.668   6.528  -0.736  0.00  0.00    -0.279 N 
ATOM     13  C   UNL     1      -2.948   7.840  -0.848  0.00  0.00    +0.322 C 
ATOM     14  O   UNL     1      -3.985   8.282  -1.303  0.00  0.00    -0.251 OA
ATOM     15  N   UNL     1      -1.940   8.600  -0.396  0.00  0.00    -0.187 N 
ATOM     16  N   UNL     1      -0.907   7.828   0.054  0.00  0.00    -0.209 NA
ATOM     17  H   UNL     1       1.002   4.214   0.866  0.00  0.00    +0.152 HD
ATOM     18  H   UNL     1      -1.501   1.964  -1.155  0.00  0.00    +0.147 HD
ATOM     19  H   UNL     1      -3.241   5.790  -0.996  0.00  0.00    +0.152 HD
ATOM     20  H   UNL     1      -0.714   8.012   1.027  0.00  0.00    +0.147 HD
ENDROOT
BRANCH   1  24
ATOM     21  C   UNL     1      -0.225  -2.775   0.258  0.00  0.00    +0.000 A 
ATOM     22  C   UNL     1       0.867  -2.070  -0.214  0.00  0.00    +0.002 A 
ATOM     23  C   UNL     1       0.852  -0.689  -0.209  0.00  0.00    +0.025 A 
ATOM     24  C   UNL     1      -0.259  -0.009   0.270  0.00  0.00    +0.054 A 
ATOM     25  C   UNL     1      -1.352  -0.720   0.748  0.00  0.00    +0.025 A 
ATOM     26  C   UNL     1      -1.334  -2.101   0.736  0.00  0.00    +0.002 A 
ENDBRANCH   1  24
BRANCH  15  27
ATOM     27  C   UNL     1      -1.946  10.000  -0.387  0.00  0.00    +0.054 A 
ATOM     28  C   UNL     1      -0.844  10.703  -0.853  0.00  0.00    +0.025 A 
ATOM     29  C   UNL     1      -0.855  12.084  -0.848  0.00  0.00    +0.002 A 
ATOM     30  C   UNL     1      -1.958  12.767  -0.368  0.00  0.00    +0.000 A 
ATOM     31  C   UNL     1      -3.055  12.069   0.103  0.00  0.00    +0.002 A 
ATOM     32  C   UNL     1      -3.053  10.688   0.095  0.00  0.00    +0.025 A 
ENDBRANCH  15  27
TORSDOF 2
