REMARK  Name = ZINC14475948
REMARK  6 active torsions:
REMARK  status: ('A' for Active; 'I' for Inactive)
REMARK    1  A    between atoms: C_4  and  C_7
REMARK    2  A    between atoms: C_7  and  N_8
REMARK    3  A    between atoms: C_9  and  C_11
REMARK    4  A    between atoms: C_18  and  C_27
REMARK    5  A    between atoms: C_29  and  N_34
REMARK    6  A    between atoms: C_32  and  O_33
REMARK                            x       y       z     vdW  Elec       q    Type
REMARK                         _______ _______ _______ _____ _____    ______ ____
ROOT
ATOM      1  C   UNL     1      -3.300   0.804  -1.122  0.00  0.00    +0.058 A 
ATOM      2  C   UNL     1      -3.462  -0.183  -0.149  0.00  0.00    +0.015 A 
ATOM      3  C   UNL     1      -2.605  -0.224   0.928  0.00  0.00    +0.001 A 
ATOM      4  C   UNL     1      -1.589   0.707   1.046  0.00  0.00    +0.006 A 
ATOM      5  C   UNL     1      -1.412   1.696   0.090  0.00  0.00    -0.019 A 
ATOM      6  C   UNL     1      -2.266   1.752  -0.998  0.00  0.00    +0.044 A 
ATOM      7  N   UNL     1      -2.148   2.720  -1.983  0.00  0.00    -0.336 N 
ATOM      8  C   UNL     1      -0.794   3.250  -2.100  0.00  0.00    +0.108 C 
ATOM      9  C   UNL     1      -0.339   3.810  -0.750  0.00  0.00    +0.029 C 
ATOM     10  C   UNL     1      -0.286   2.669   0.286  0.00  0.00    +0.049 C 
ATOM     11  C   UNL     1       1.046   2.000   0.034  0.00  0.00    -0.023 C 
ATOM     12  C   UNL     1       1.852   2.811  -0.606  0.00  0.00    -0.030 C 
ATOM     13  C   UNL     1       1.175   4.143  -0.860  0.00  0.00    +0.033 C 
ATOM     14  H   UNL     1      -2.945   3.096  -2.642  0.00  0.00    +0.147 HD
ENDROOT
BRANCH   8  15
ATOM     15  C   UNL     1       0.125   2.130  -2.515  0.00  0.00    +0.017 A 
ATOM     16  C   UNL     1      -0.116   0.841  -2.080  0.00  0.00    +0.041 A 
ATOM     17  C   UNL     1       0.724  -0.188  -2.465  0.00  0.00    +0.127 A 
ATOM     18  C   UNL     1       1.812   0.072  -3.277  0.00  0.00    +0.036 A 
ATOM     19  C   UNL     1       2.060   1.360  -3.710  0.00  0.00    +0.048 A 
ATOM     20  C   UNL     1       1.216   2.393  -3.330  0.00  0.00    +0.122 A 
BRANCH  17  21
ATOM     21  N   UNL     1       0.460  -1.569  -2.003  0.00  0.00    +0.056 N 
ATOM     22  O   UNL     1       1.202  -2.475  -2.338  0.00  0.00    -0.126 OA
ATOM     23  O   UNL     1      -0.499  -1.799  -1.288  0.00  0.00    -0.126 OA
ENDBRANCH  17  21
BRANCH  20  24
ATOM     24  O   UNL     1       1.458   3.661  -3.755  0.00  0.00    -0.506 OA
ATOM     25  H   UNL     1       2.324   3.869  -4.401  0.00  0.00    +0.292 HD
ENDBRANCH  20  24
ENDBRANCH   8  15
BRANCH   1  27
ATOM     26  N   UNL     1      -5.201  -0.052  -2.398  0.00  0.00    -0.307 N 
ATOM     27  C   UNL     1      -4.212   0.855  -2.279  0.00  0.00    +0.246 C 
ATOM     28  O   UNL     1      -4.071   1.716  -3.127  0.00  0.00    -0.270 OA
ATOM     29  H   UNL     1      -5.329  -0.831  -1.631  0.00  0.00    +0.149 HD
BRANCH  26  30
ATOM     30  C   UNL     1      -6.107  -0.002  -3.548  0.00  0.00    +0.139 C 
BRANCH  30  34
ATOM     31  C   UNL     1      -8.964  -3.163  -3.251  0.00  0.00    +0.000 A 
ATOM     32  C   UNL     1      -9.237  -1.930  -2.689  0.00  0.00    +0.000 A 
ATOM     33  C   UNL     1      -8.312  -0.907  -2.785  0.00  0.00    +0.005 A 
ATOM     34  C   UNL     1      -7.115  -1.117  -3.443  0.00  0.00    -0.030 A 
ATOM     35  C   UNL     1      -6.845  -2.348  -4.011  0.00  0.00    +0.005 A 
ATOM     36  C   UNL     1      -7.767  -3.373  -3.910  0.00  0.00    +0.000 A 
ENDBRANCH  30  34
ENDBRANCH  26  30
ENDBRANCH   1  27
TORSDOF 6
