REMARK  Name = ZINC35746957
REMARK  14 active torsions:
REMARK  status: ('A' for Active; 'I' for Inactive)
REMARK    1  A    between atoms: C_1  and  C_2
REMARK    2  A    between atoms: C_5  and  C_36
REMARK    3  A    between atoms: C_6  and  C_8
REMARK    4  A    between atoms: C_17  and  C_19
REMARK    5  A    between atoms: C_19  and  N_20
REMARK    6  A    between atoms: N_20  and  C_21
REMARK    7  A    between atoms: N_20  and  C_27
REMARK    8  A    between atoms: C_21  and  C_22
REMARK    9  A    between atoms: C_27  and  C_28
REMARK   10  A    between atoms: C_28  and  C_30
REMARK   11  A    between atoms: C_28  and  O_35
REMARK   12  A    between atoms: C_30  and  O_31
REMARK   13  A    between atoms: O_31  and  C_32
REMARK   14  A    between atoms: C_32  and  C_33
REMARK                            x       y       z     vdW  Elec       q    Type
REMARK                         _______ _______ _______ _____ _____    ______ ____
ROOT
ATOM      1  C   UNL     1      -0.794  -3.415   2.491  0.00  0.00    +0.004 A 
ATOM      2  C   UNL     1      -1.849  -3.614   3.317  0.00  0.00    +0.056 A 
ATOM      3  S   UNL     1      -1.158  -4.584   4.644  0.00  0.00    -0.076 S 
ATOM      4  C   UNL     1       0.515  -4.698   4.064  0.00  0.00    +0.116 A 
ATOM      5  C   UNL     1       0.497  -3.986   2.853  0.00  0.00    +0.080 A 
ATOM      6  C   UNL     1       1.745  -3.921   2.155  0.00  0.00    +0.260 A 
ATOM      7  O   UNL     1       1.831  -3.322   1.097  0.00  0.00    -0.267 OA
ATOM      8  N   UNL     1       2.822  -4.531   2.684  0.00  0.00    -0.312 N 
ATOM      9  H   UNL     1       3.670  -4.490   2.215  0.00  0.00    +0.170 HD
ATOM     10  C   UNL     1       2.744  -5.203   3.861  0.00  0.00    +0.094 A 
ATOM     11  N   UNL     1       1.623  -5.272   4.527  0.00  0.00    -0.229 NA
ENDROOT
BRANCH   1  17
ATOM     12  C   UNL     1      -1.748   0.910   0.187  0.00  0.00    +0.044 C 
ATOM     13  C   UNL     1      -1.409  -0.557   0.128  0.00  0.00    -0.050 A 
ATOM     14  C   UNL     1      -1.245  -1.180  -1.097  0.00  0.00    +0.003 A 
ATOM     15  C   UNL     1      -0.934  -2.526  -1.158  0.00  0.00    +0.004 A 
ATOM     16  C   UNL     1      -0.787  -3.257   0.003  0.00  0.00    -0.043 A 
ATOM     17  C   UNL     1      -0.951  -2.635   1.240  0.00  0.00    -0.013 A 
ATOM     18  C   UNL     1      -1.258  -1.276   1.296  0.00  0.00    +0.012 A 
ATOM     19  C   UNL     1      -0.449  -4.724  -0.065  0.00  0.00    +0.044 C 
ENDBRANCH   1  17
BRANCH  10  20
ATOM     20  C   UNL     1       3.977  -5.870   4.415  0.00  0.00    -0.003 C 
BRANCH  20  21
ATOM     21  N   UNL     1       3.647  -6.528   5.687  0.00  0.00    +0.391 N 
ATOM     22  H   UNL     1       3.237  -5.855   6.317  0.00  0.00    -0.080 HD
BRANCH  21  23
ATOM     23  C   UNL     1       2.692  -7.617   5.442  0.00  0.00    -0.002 C 
BRANCH  23  24
ATOM     24  C   UNL     1       2.244  -8.197   6.759  0.00  0.00    +0.089 A 
ATOM     25  C   UNL     1       1.252  -7.720   7.533  0.00  0.00    +0.042 A 
ATOM     26  C   UNL     1       1.174  -8.563   8.665  0.00  0.00    +0.041 A 
ATOM     27  C   UNL     1       2.122  -9.505   8.515  0.00  0.00    +0.195 A 
ATOM     28  O   UNL     1       2.763  -9.282   7.356  0.00  0.00    -0.470 OA
ENDBRANCH  23  24
ENDBRANCH  21  23
BRANCH  21  29
ATOM     29  C   UNL     1       4.871  -7.076   6.286  0.00  0.00    -0.044 C 
BRANCH  29  30
ATOM     30  C   UNL     1       5.808  -5.929   6.673  0.00  0.00    +0.124 C 
BRANCH  30  31
ATOM     31  O   UNL     1       5.169  -5.100   7.645  0.00  0.00    -0.391 OA
ATOM     32  H   UNL     1       4.993  -5.543   8.486  0.00  0.00    +0.210 HD
ENDBRANCH  30  31
BRANCH  30  33
ATOM     33  C   UNL     1       7.099  -6.502   7.260  0.00  0.00    +0.189 C 
BRANCH  33  34
ATOM     34  O   UNL     1       8.020  -5.438   7.513  0.00  0.00    -0.373 OA
BRANCH  34  35
ATOM     35  C   UNL     1       9.265  -5.867   8.066  0.00  0.00    +0.186 C 
BRANCH  35  36
ATOM     36  C   UNL     1      10.153  -4.670   8.291  0.00  0.00    -0.007 C 
ATOM     37  C   UNL     1      10.815  -4.547   9.416  0.00  0.00    +0.006 C 
ENDBRANCH  35  36
ENDBRANCH  34  35
ENDBRANCH  33  34
ENDBRANCH  30  33
ENDBRANCH  29  30
ENDBRANCH  21  29
ENDBRANCH  20  21
ENDBRANCH  10  20
TORSDOF 12
