REMARK  Name = ZINC62222570
REMARK  7 active torsions:
REMARK  status: ('A' for Active; 'I' for Inactive)
REMARK    1  A    between atoms: C_1  and  C_2
REMARK    2  A    between atoms: C_7  and  C_15
REMARK    3  A    between atoms: C_13  and  C_14
REMARK    4  A    between atoms: C_15  and  C_16
REMARK    5  A    between atoms: C_16  and  N_17
REMARK    6  A    between atoms: C_18  and  C_20
REMARK    7  A    between atoms: C_23  and  C_25
REMARK                            x       y       z     vdW  Elec       q    Type
REMARK                         _______ _______ _______ _____ _____    ______ ____
ROOT
ATOM      1  C   UNL     1       0.096  -6.383   1.200  0.00  0.00    +0.059 C 
ENDROOT
BRANCH   1   8
ATOM      2  C   UNL     1      -0.018   1.503   0.010  0.00  0.00    +0.044 C 
ATOM      3  C   UNL     1       0.002  -0.004   0.002  0.00  0.00    -0.046 A 
ATOM      4  C   UNL     1       0.006  -0.684  -1.208  0.00  0.00    +0.004 A 
ATOM      5  C   UNL     1       0.024  -2.050  -1.238  0.00  0.00    +0.010 A 
ATOM      6  C   UNL     1       0.040  -2.769  -0.039  0.00  0.00    -0.001 A 
ATOM      7  C   UNL     1       0.060  -4.233  -0.034  0.00  0.00    +0.019 A 
ATOM      8  C   UNL     1       0.075  -4.877   1.159  0.00  0.00    +0.019 A 
ATOM      9  C   UNL     1       0.070  -4.142   2.364  0.00  0.00    +0.252 A 
ATOM     10  O   UNL     1       0.084  -4.740   3.426  0.00  0.00    -0.268 OA
ATOM     11  N   UNL     1       0.052  -2.797   2.370  0.00  0.00    -0.322 N 
ATOM     12  H   UNL     1       0.050  -2.323   3.216  0.00  0.00    +0.169 HD
ATOM     13  C   UNL     1       0.036  -2.083   1.190  0.00  0.00    +0.052 A 
ATOM     14  C   UNL     1       0.023  -0.692   1.196  0.00  0.00    -0.024 A 
ATOM     15  C   UNL     1       0.025   0.059   2.502  0.00  0.00    +0.046 C 
ENDBRANCH   1   8
BRANCH   1  16
ATOM     16  C   UNL     1       1.540  -6.870   1.332  0.00  0.00    +0.109 C 
BRANCH  16  17
ATOM     17  N   UNL     1       1.560  -8.335   1.371  0.00  0.00    -0.315 N 
ATOM     18  C   UNL     1       2.733  -8.990   1.484  0.00  0.00    +0.217 C 
ATOM     19  O   UNL     1       3.771  -8.367   1.555  0.00  0.00    -0.275 OA
ATOM     20  H   UNL     1       0.730  -8.833   1.315  0.00  0.00    +0.149 HD
BRANCH  18  21
ATOM     21  C   UNL     1       2.753 -10.496   1.525  0.00  0.00    +0.083 C 
ATOM     22  C   UNL     1       3.149 -11.162   2.844  0.00  0.00    +0.022 C 
ATOM     23  C   UNL     1       4.115 -11.181   1.657  0.00  0.00    +0.032 C 
BRANCH  23  24
ATOM     24  C   UNL     1       5.333 -10.297   1.737  0.00  0.00    -0.044 A 
ATOM     25  C   UNL     1       5.459  -9.384   2.768  0.00  0.00    +0.004 A 
ATOM     26  C   UNL     1       6.576  -8.574   2.842  0.00  0.00    +0.000 A 
ATOM     27  C   UNL     1       7.568  -8.676   1.885  0.00  0.00    +0.000 A 
ATOM     28  C   UNL     1       7.443  -9.589   0.854  0.00  0.00    +0.000 A 
ATOM     29  C   UNL     1       6.328 -10.402   0.783  0.00  0.00    +0.004 A 
ENDBRANCH  23  24
ENDBRANCH  18  21
ENDBRANCH  16  17
ENDBRANCH   1  16
TORSDOF 5
