REMARK  Name = ZINC09058974
REMARK  11 active torsions:
REMARK  status: ('A' for Active; 'I' for Inactive)
REMARK    1  A    between atoms: C_1  and  C_2
REMARK    2  A    between atoms: C_2  and  O_3
REMARK    3  A    between atoms: O_3  and  C_4
REMARK    4  A    between atoms: C_4  and  C_6
REMARK    5  A    between atoms: C_9  and  N_12
REMARK    6  A    between atoms: C_13  and  C_15
REMARK    7  A    between atoms: C_18  and  C_31
REMARK    8  A    between atoms: C_23  and  C_30
REMARK    9  A    between atoms: C_31  and  C_32
REMARK   10  A    between atoms: C_32  and  C_33
REMARK   11  A    between atoms: C_32  and  C_34
REMARK                            x       y       z     vdW  Elec       q    Type
REMARK                         _______ _______ _______ _____ _____    ______ ____
ROOT
ATOM      1  C   UNL     1       2.207  -4.245  -0.021  0.00  0.00    +0.076 C 
ATOM      2  C   UNL     1       1.559  -4.746  -1.331  0.00  0.00    -0.004 C 
ATOM      3  C   UNL     1       2.632  -5.648  -1.986  0.00  0.00    -0.069 C 
ATOM      4  C   UNL     1       3.607  -4.871  -0.010  0.00  0.00    +0.049 C 
ATOM      5  C   UNL     1       4.622  -3.942   0.594  0.00  0.00    -0.027 A 
ATOM      6  C   UNL     1       5.048  -2.671   0.282  0.00  0.00    +0.008 A 
ATOM      7  C   UNL     1       6.027  -2.061   1.046  0.00  0.00    -0.050 A 
ATOM      8  C   UNL     1       6.575  -2.732   2.124  0.00  0.00    +0.005 A 
ATOM      9  C   UNL     1       6.151  -4.005   2.441  0.00  0.00    +0.024 A 
ATOM     10  C   UNL     1       5.165  -4.626   1.677  0.00  0.00    +0.036 A 
ATOM     11  N   UNL     1       4.577  -5.887   1.797  0.00  0.00    -0.286 N 
ATOM     12  C   UNL     1       3.651  -6.108   0.845  0.00  0.00    +0.211 C 
ATOM     13  O   UNL     1       2.981  -7.109   0.703  0.00  0.00    -0.277 OA
ATOM     14  C   UNL     1       6.494  -0.669   0.705  0.00  0.00    +0.044 C 
ATOM     15  H   UNL     1       4.810  -6.530   2.485  0.00  0.00    +0.155 HD
ATOM     16  N   UNL     1       3.891  -5.180  -1.401  0.00  0.00    +0.394 N 
ATOM     17  H   UNL     1       4.220  -4.340  -1.891  0.00  0.00    -0.083 HD
ATOM     18  H   UNL     1       4.605  -5.915  -1.462  0.00  0.00    -0.083 HD
ENDROOT
BRANCH   1  20
ATOM     19  N   UNL     1       2.260  -2.060   1.136  0.00  0.00    -0.285 N 
ATOM     20  C   UNL     1       2.303  -2.741  -0.026  0.00  0.00    +0.220 C 
ATOM     21  O   UNL     1       2.420  -2.144  -1.075  0.00  0.00    -0.275 OA
ATOM     22  H   UNL     1       2.239  -2.539   1.979  0.00  0.00    +0.155 HD
BRANCH  19  26
ATOM     23  C   UNL     1       2.222   2.105   1.109  0.00  0.00    +0.059 A 
ATOM     24  C   UNL     1       1.502   1.404   2.081  0.00  0.00    +0.017 A 
ATOM     25  C   UNL     1       1.517   0.028   2.087  0.00  0.00    +0.024 A 
ATOM     26  C   UNL     1       2.247  -0.666   1.127  0.00  0.00    +0.033 A 
ATOM     27  C   UNL     1       2.965   0.029   0.158  0.00  0.00    +0.024 A 
ATOM     28  C   UNL     1       2.955   1.405   0.146  0.00  0.00    +0.017 A 
BRANCH  23  29
ATOM     29  C   UNL     1       2.208   3.580   1.099  0.00  0.00    +0.339 C 
ATOM     30  O   UNL     1       1.571   4.187   1.937  0.00  0.00    -0.245 OA
BRANCH  29  31
ATOM     31  O   UNL     1       2.902   4.254   0.161  0.00  0.00    -0.461 OA
BRANCH  31  33
ATOM     32  C   UNL     1       3.687   6.289  -0.922  0.00  0.00    +0.048 C 
ATOM     33  C   UNL     1       2.843   5.704   0.212  0.00  0.00    +0.229 C 
ENDBRANCH  31  33
ENDBRANCH  29  31
ENDBRANCH  23  29
ENDBRANCH  19  26
ENDBRANCH   1  20
BRANCH   3  34
ATOM     34  C   UNL     1       2.622  -5.470  -3.506  0.00  0.00    -0.013 C 
BRANCH  34  35
ATOM     35  C   UNL     1       3.658  -6.404  -4.135  0.00  0.00    -0.019 C 
ATOM     36  C   UNL     1       3.246  -7.858  -3.896  0.00  0.00    +0.007 C 
ATOM     37  C   UNL     1       3.737  -6.138  -5.640  0.00  0.00    +0.007 C 
ENDBRANCH  34  35
ENDBRANCH   3  34
TORSDOF 7
