REMARK  Name = ZINC60165261
REMARK  3 active torsions:
REMARK  status: ('A' for Active; 'I' for Inactive)
REMARK    1  A    between atoms: C_4  and  C_7
REMARK    2  A    between atoms: N_9  and  C_10
REMARK    3  A    between atoms: C_16  and  C_18
REMARK                            x       y       z     vdW  Elec       q    Type
REMARK                         _______ _______ _______ _____ _____    ______ ____
ROOT
ATOM      1  C   UNL     1       3.172  -2.525  -3.762  0.00  0.00    +0.076 C 
ATOM      2  C   UNL     1       2.364  -2.493  -5.060  0.00  0.00    +0.041 C 
ATOM      3  C   UNL     1       3.283  -2.828  -6.239  0.00  0.00    +0.109 C 
ATOM      4  N   UNL     1       3.945  -4.113  -5.971  0.00  0.00    -0.301 N 
ATOM      5  C   UNL     1       4.675  -4.282  -4.708  0.00  0.00    +0.109 C 
ATOM      6  C   UNL     1       3.739  -3.930  -3.547  0.00  0.00    +0.041 C 
ATOM      7  C   UNL     1       3.882  -5.117  -6.868  0.00  0.00    +0.219 C 
ATOM      8  O   UNL     1       3.195  -5.001  -7.861  0.00  0.00    -0.275 OA
ENDROOT
BRANCH   7   9
ATOM      9  C   UNL     1       4.665  -6.383  -6.637  0.00  0.00    +0.081 C 
ATOM     10  C   UNL     1       6.163  -6.071  -6.675  0.00  0.00    +0.002 C 
ATOM     11  C   UNL     1       6.958  -7.357  -6.440  0.00  0.00    +0.008 C 
ATOM     12  C   UNL     1       6.621  -8.372  -7.534  0.00  0.00    -0.010 C 
ATOM     13  C   UNL     1       6.986  -7.789  -8.901  0.00  0.00    +0.007 C 
ATOM     14  C   UNL     1       6.191  -6.503  -9.136  0.00  0.00    -0.010 C 
ATOM     15  C   UNL     1       6.528  -5.488  -8.041  0.00  0.00    +0.008 C 
ATOM     16  C   UNL     1       4.693  -6.815  -9.098  0.00  0.00    +0.008 C 
ATOM     17  C   UNL     1       4.328  -7.398  -7.731  0.00  0.00    +0.002 C 
ATOM     18  C   UNL     1       5.123  -8.684  -7.497  0.00  0.00    +0.008 C 
ENDBRANCH   7   9
BRANCH   1  21
ATOM     19  C   UNL     1       2.096  -0.877  -2.325  0.00  0.00    +0.216 C 
ATOM     20  O   UNL     1       2.629  -0.004  -2.977  0.00  0.00    -0.276 OA
ATOM     21  N   UNL     1       2.303  -2.172  -2.636  0.00  0.00    -0.312 N 
ATOM     22  H   UNL     1       1.877  -2.870  -2.115  0.00  0.00    +0.149 HD
BRANCH  19  26
ATOM     23  C   UNL     1      -1.177   0.827  -0.105  0.00  0.00    +0.000 C 
ATOM     24  C   UNL     1       0.229   1.377   0.144  0.00  0.00    +0.001 C 
ATOM     25  C   UNL     1       1.137   1.008  -1.031  0.00  0.00    +0.013 C 
ATOM     26  C   UNL     1       1.202  -0.514  -1.168  0.00  0.00    +0.075 C 
ATOM     27  C   UNL     1      -0.204  -1.064  -1.417  0.00  0.00    +0.013 C 
ATOM     28  C   UNL     1      -1.112  -0.695  -0.242  0.00  0.00    +0.001 C 
ENDBRANCH  19  26
ENDBRANCH   1  21
TORSDOF 3
