REMARK  Name = ZINC22682293
REMARK  9 active torsions:
REMARK  status: ('A' for Active; 'I' for Inactive)
REMARK    1  A    between atoms: C_1  and  C_2
REMARK    2  A    between atoms: N_11  and  C_15
REMARK    3  A    between atoms: C_15  and  C_16
REMARK    4  A    between atoms: N_18  and  C_19
REMARK    5  A    between atoms: C_19  and  C_20
REMARK    6  A    between atoms: C_20  and  C_22
REMARK    7  A    between atoms: C_20  and  N_29
REMARK    8  A    between atoms: N_29  and  C_30
REMARK    9  A    between atoms: N_29  and  C_31
REMARK                            x       y       z     vdW  Elec       q    Type
REMARK                         _______ _______ _______ _____ _____    ______ ____
ROOT
ATOM      1  C   UNL     1      -1.895   3.268  -1.987  0.00  0.00    +0.231 C 
ATOM      2  O   UNL     1      -1.139   2.777  -2.799  0.00  0.00    -0.274 OA
ATOM      3  N   UNL     1      -1.793   2.937  -0.685  0.00  0.00    -0.315 N 
ATOM      4  H   UNL     1      -2.479   3.383   0.051  0.00  0.00    +0.149 HD
ENDROOT
BRANCH   1   5
ATOM      5  C   UNL     1      -2.948   4.249  -2.436  0.00  0.00    +0.213 C 
BRANCH   5  15
ATOM      6  C   UNL     1      -4.205   6.811  -5.829  0.00  0.00    +0.010 C 
ATOM      7  C   UNL     1      -2.910   6.463  -6.567  0.00  0.00    +0.018 C 
ATOM      8  C   UNL     1      -1.920   7.622  -6.433  0.00  0.00    +0.006 C 
ATOM      9  C   UNL     1      -0.618   7.265  -7.154  0.00  0.00    +0.000 C 
ATOM     10  C   UNL     1      -0.010   6.011  -6.520  0.00  0.00    +0.003 C 
ATOM     11  C   UNL     1      -0.993   4.846  -6.654  0.00  0.00    +0.035 C 
ATOM     12  C   UNL     1      -2.305   5.201  -5.962  0.00  0.00    +0.115 C 
ATOM     13  C   UNL     1      -2.090   5.383  -4.477  0.00  0.00    +0.247 C 
ATOM     14  O   UNL     1      -1.381   6.202  -3.933  0.00  0.00    -0.273 OA
ATOM     15  N   UNL     1      -2.852   4.439  -3.885  0.00  0.00    -0.215 N 
ATOM     16  C   UNL     1      -3.514   3.703  -4.786  0.00  0.00    +0.310 C 
ATOM     17  O   UNL     1      -4.267   2.795  -4.494  0.00  0.00    -0.252 OA
ATOM     18  N   UNL     1      -3.252   4.082  -6.051  0.00  0.00    -0.285 N 
ATOM     19  H   UNL     1      -3.595   3.729  -7.035  0.00  0.00    +0.151 HD
ENDBRANCH   5  15
ENDBRANCH   1   5
BRANCH   3  20
ATOM     20  C   UNL     1      -0.770   1.984  -0.249  0.00  0.00    +0.093 C 
BRANCH  20  21
ATOM     21  C   UNL     1      -0.792   1.874   1.277  0.00  0.00    -0.021 C 
BRANCH  21  22
ATOM     22  C   UNL     1       0.194   0.823   1.719  0.00  0.00    -0.057 A 
ATOM     23  C   UNL     1       1.079   1.094   2.746  0.00  0.00    +0.002 A 
ATOM     24  C   UNL     1       1.983   0.131   3.152  0.00  0.00    +0.003 A 
ATOM     25  C   UNL     1       2.003  -1.105   2.533  0.00  0.00    +0.038 A 
ATOM     26  C   UNL     1       1.117  -1.377   1.505  0.00  0.00    +0.124 A 
ATOM     27  C   UNL     1       0.207  -0.413   1.103  0.00  0.00    +0.040 A 
ATOM     28  F   UNL     1       1.134  -2.585   0.900  0.00  0.00    -0.205 F 
ENDBRANCH  21  22
BRANCH  21  29
ATOM     29  N   UNL     1      -2.140   1.500   1.722  0.00  0.00    +0.382 N 
ATOM     30  C   UNL     1      -2.471   0.131   1.304  0.00  0.00    -0.096 C 
ATOM     31  C   UNL     1      -2.276   1.653   3.177  0.00  0.00    -0.096 C 
ATOM     32  H   UNL     1      -2.857   2.182   1.242  0.00  0.00    -0.082 HD
ENDBRANCH  21  29
ENDBRANCH  20  21
ENDBRANCH   3  20
TORSDOF 6
