REMARK  Name = ZINC32772803
REMARK  6 active torsions:
REMARK  status: ('A' for Active; 'I' for Inactive)
REMARK    1  A    between atoms: C_1  and  C_2
REMARK    2  A    between atoms: C_9  and  N_14
REMARK    3  A    between atoms: C_15  and  C_17
REMARK    4  A    between atoms: C_17  and  C_19
REMARK    5  A    between atoms: C_17  and  S_25
REMARK    6  A    between atoms: S_25  and  C_26
REMARK                            x       y       z     vdW  Elec       q    Type
REMARK                         _______ _______ _______ _____ _____    ______ ____
ROOT
ATOM      1  N   UNL     1       0.094  -4.176  -0.042  0.00  0.00    -0.284 N 
ATOM      2  C   UNL     1      -0.807  -4.874   0.677  0.00  0.00    +0.235 C 
ATOM      3  O   UNL     1      -1.698  -4.294   1.261  0.00  0.00    -0.274 OA
ATOM      4  H   UNL     1       0.849  -4.706  -0.642  0.00  0.00    +0.155 HD
ENDROOT
BRANCH   1  12
ATOM      5  C   UNL     1       2.351   1.900  -0.101  0.00  0.00    +0.062 C 
ATOM      6  C   UNL     1       0.982   2.018  -0.774  0.00  0.00    +0.256 C 
ATOM      7  C   UNL     1       1.036   1.380  -2.138  0.00  0.00    +0.258 C 
ATOM      8  O   UNL     1       1.320   2.046  -3.111  0.00  0.00    -0.271 OA
ATOM      9  N   UNL     1       0.767   0.063  -2.273  0.00  0.00    -0.279 N 
ATOM     10  C   UNL     1       0.407  -0.677  -1.138  0.00  0.00    +0.077 A 
ATOM     11  C   UNL     1       0.432  -2.061  -1.159  0.00  0.00    +0.050 A 
ATOM     12  C   UNL     1       0.070  -2.775  -0.025  0.00  0.00    +0.035 A 
ATOM     13  C   UNL     1      -0.316  -2.102   1.127  0.00  0.00    +0.027 A 
ATOM     14  C   UNL     1      -0.341  -0.720   1.148  0.00  0.00    +0.049 A 
ATOM     15  C   UNL     1       0.019  -0.004   0.020  0.00  0.00    +0.143 A 
ATOM     16  O   UNL     1      -0.001   1.357   0.027  0.00  0.00    -0.478 OA
ATOM     17  H   UNL     1       0.832  -0.413  -3.263  0.00  0.00    +0.155 HD
ENDBRANCH   1  12
BRANCH   2  18
ATOM     18  C   UNL     1      -0.709  -6.376   0.754  0.00  0.00    +0.167 C 
BRANCH  18  19
ATOM     19  C   UNL     1      -1.292  -6.983  -0.496  0.00  0.00    -0.025 A 
ATOM     20  C   UNL     1      -2.616  -6.756  -0.822  0.00  0.00    +0.005 A 
ATOM     21  C   UNL     1      -3.149  -7.309  -1.971  0.00  0.00    +0.000 A 
ATOM     22  C   UNL     1      -2.361  -8.097  -2.789  0.00  0.00    +0.000 A 
ATOM     23  C   UNL     1      -1.038  -8.327  -2.461  0.00  0.00    +0.000 A 
ATOM     24  C   UNL     1      -0.504  -7.771  -1.314  0.00  0.00    +0.005 A 
ENDBRANCH  18  19
BRANCH  18  25
ATOM     25  S   UNL     1      -1.630  -6.969   2.200  0.00  0.00    -0.108 S 
BRANCH  25  26
ATOM     26  C   UNL     1      -1.299  -8.699   2.236  0.00  0.00    +0.009 A 
ATOM     27  C   UNL     1      -0.488  -9.274   1.265  0.00  0.00    +0.015 A 
ATOM     28  C   UNL     1      -0.227 -10.629   1.299  0.00  0.00    +0.001 A 
ATOM     29  C   UNL     1      -0.781 -11.417   2.292  0.00  0.00    +0.000 A 
ATOM     30  C   UNL     1      -1.593 -10.849   3.257  0.00  0.00    +0.001 A 
ATOM     31  C   UNL     1      -1.854  -9.493   3.232  0.00  0.00    +0.015 A 
ENDBRANCH  25  26
ENDBRANCH  18  25
ENDBRANCH   2  18
TORSDOF 5
