REMARK  Name = ZINC06321802
REMARK  15 active torsions:
REMARK  status: ('A' for Active; 'I' for Inactive)
REMARK    1  A    between atoms: C_1  and  C_2
REMARK    2  A    between atoms: C_5  and  C_40
REMARK    3  A    between atoms: C_9  and  C_14
REMARK    4  A    between atoms: C_14  and  N_75
REMARK    5  A    between atoms: C_15  and  C_16
REMARK    6  A    between atoms: C_15  and  N_75
REMARK    7  A    between atoms: C_16  and  C_17
REMARK    8  A    between atoms: C_20  and  O_25
REMARK    9  A    between atoms: C_21  and  O_23
REMARK   10  A    between atoms: O_23  and  C_24
REMARK   11  A    between atoms: O_25  and  C_26
REMARK   12  A    between atoms: C_27  and  C_28
REMARK   13  A    between atoms: C_27  and  N_75
REMARK   14  A    between atoms: N_32  and  C_33
REMARK   15  A    between atoms: C_33  and  C_34
REMARK                            x       y       z     vdW  Elec       q    Type
REMARK                         _______ _______ _______ _____ _____    ______ ____
ROOT
ATOM      1  N   UNL     1      -4.265  -0.064   1.411  0.00  0.00    +0.387 N 
ATOM      2  H   UNL     1      -4.079  -0.879   0.815  0.00  0.00    -0.081 HD
ENDROOT
BRANCH   1   3
ATOM      3  C   UNL     1      -5.450   0.650   0.892  0.00  0.00    -0.037 C 
BRANCH   3  12
ATOM      4  C   UNL     1      -4.229   5.627  -0.035  0.00  0.00    +0.044 C 
ATOM      5  C   UNL     1      -4.936   5.579   1.295  0.00  0.00    -0.041 A 
ATOM      6  C   UNL     1      -5.141   6.729   2.005  0.00  0.00    +0.004 A 
ATOM      7  C   UNL     1      -5.792   6.696   3.230  0.00  0.00    +0.005 A 
ATOM      8  C   UNL     1      -6.243   5.504   3.756  0.00  0.00    -0.026 A 
ATOM      9  C   UNL     1      -6.046   4.321   3.051  0.00  0.00    +0.052 A 
ATOM     10  C   UNL     1      -5.386   4.359   1.808  0.00  0.00    +0.002 A 
ATOM     11  C   UNL     1      -5.180   3.107   1.077  0.00  0.00    +0.017 A 
ATOM     12  C   UNL     1      -5.643   1.955   1.621  0.00  0.00    +0.001 A 
ATOM     13  C   UNL     1      -6.298   1.972   2.871  0.00  0.00    +0.251 A 
ATOM     14  O   UNL     1      -6.702   0.924   3.344  0.00  0.00    -0.268 OA
ATOM     15  N   UNL     1      -6.489   3.115   3.552  0.00  0.00    -0.322 N 
ATOM     16  H   UNL     1      -6.943   3.091   4.409  0.00  0.00    +0.169 HD
ATOM     17  C   UNL     1      -6.948   5.483   5.088  0.00  0.00    +0.046 C 
ENDBRANCH   3  12
ENDBRANCH   1   3
BRANCH   1  18
ATOM     18  C   UNL     1      -3.087   0.828   1.385  0.00  0.00    -0.073 C 
BRANCH  18  19
ATOM     19  C   UNL     1      -2.604   0.963  -0.060  0.00  0.00    +0.017 C 
BRANCH  19  20
ATOM     20  C   UNL     1      -1.284   1.689  -0.083  0.00  0.00    -0.045 A 
ATOM     21  C   UNL     1      -0.102   0.971  -0.109  0.00  0.00    +0.007 A 
ATOM     22  C   UNL     1       1.111   1.633  -0.135  0.00  0.00    +0.049 A 
ATOM     23  C   UNL     1       1.146   3.018  -0.131  0.00  0.00    +0.161 A 
ATOM     24  C   UNL     1      -0.043   3.740  -0.100  0.00  0.00    +0.162 A 
ATOM     25  C   UNL     1      -1.256   3.071  -0.073  0.00  0.00    +0.053 A 
BRANCH  24  26
ATOM     26  O   UNL     1      -0.014   5.100  -0.095  0.00  0.00    -0.491 OA
ATOM     27  C   UNL     1      -1.271   5.776  -0.178  0.00  0.00    +0.277 C 
ENDBRANCH  24  26
BRANCH  23  28
ATOM     28  O   UNL     1       2.339   3.670  -0.158  0.00  0.00    -0.491 OA
ATOM     29  C   UNL     1       3.518   2.863  -0.189  0.00  0.00    +0.277 C 
ENDBRANCH  23  28
ENDBRANCH  19  20
ENDBRANCH  18  19
ENDBRANCH   1  18
BRANCH   1  30
ATOM     30  C   UNL     1      -4.518  -0.527   2.792  0.00  0.00    +0.001 C 
BRANCH  30  31
ATOM     31  C   UNL     1      -5.577  -1.599   2.758  0.00  0.00    +0.135 A 
ATOM     32  N   UNL     1      -6.871  -1.425   2.872  0.00  0.00    -0.115 NA
ATOM     33  N   UNL     1      -7.436  -2.579   2.791  0.00  0.00    -0.023 NA
ATOM     34  N   UNL     1      -6.536  -3.487   2.637  0.00  0.00    -0.044 NA
ATOM     35  N   UNL     1      -5.377  -2.922   2.612  0.00  0.00    -0.229 N 
BRANCH  35  36
ATOM     36  C   UNL     1      -4.085  -3.594   2.455  0.00  0.00    +0.178 C 
BRANCH  36  37
ATOM     37  C   UNL     1      -3.534  -3.971   3.832  0.00  0.00    +0.140 C 
ATOM     38  C   UNL     1      -2.122  -4.576   3.684  0.00  0.00    +0.035 C 
ATOM     39  C   UNL     1      -2.142  -5.721   4.733  0.00  0.00    +0.031 C 
ATOM     40  C   UNL     1      -3.621  -6.173   4.646  0.00  0.00    +0.160 C 
ATOM     41  O   UNL     1      -4.371  -4.966   4.433  0.00  0.00    -0.375 OA
ENDBRANCH  36  37
ENDBRANCH  35  36
ENDBRANCH  30  31
ENDBRANCH   1  30
TORSDOF 11
