REMARK  Name = ZINC07006305
REMARK  10 active torsions:
REMARK  status: ('A' for Active; 'I' for Inactive)
REMARK    1  A    between atoms: C_3  and  C_6
REMARK    2  A    between atoms: C_6  and  N_52
REMARK    3  A    between atoms: C_7  and  C_8
REMARK    4  A    between atoms: C_7  and  N_52
REMARK    5  A    between atoms: C_8  and  C_9
REMARK    6  A    between atoms: C_9  and  N_10
REMARK    7  A    between atoms: N_10  and  S_11
REMARK    8  A    between atoms: S_11  and  C_14
REMARK    9  A    between atoms: C_16  and  C_19
REMARK   10  A    between atoms: C_22  and  N_52
REMARK                            x       y       z     vdW  Elec       q    Type
REMARK                         _______ _______ _______ _____ _____    ______ ____
ROOT
ATOM      1  C   UNL     1      -1.219   2.812  -1.878  0.00  0.00    +0.104 C 
ENDROOT
BRANCH   1   2
ATOM      2  N   UNL     1      -1.012   1.363  -1.844  0.00  0.00    -0.190 NA
ATOM      3  H   UNL     1      -1.331   0.810  -2.574  0.00  0.00    +0.148 HD
BRANCH   2   4
ATOM      4  S   UNL     1      -0.233   0.667  -0.558  0.00  0.00    +0.059 S 
ATOM      5  O   UNL     1      -0.213  -0.732  -0.804  0.00  0.00    -0.153 OA
ATOM      6  O   UNL     1       0.953   1.420  -0.346  0.00  0.00    -0.153 OA
BRANCH   4   7
ATOM      7  C   UNL     1      -1.247   0.915   0.861  0.00  0.00    +0.113 A 
ATOM      8  C   UNL     1      -1.089   2.033   1.641  0.00  0.00    +0.049 A 
ATOM      9  C   UNL     1      -1.926   2.161   2.739  0.00  0.00    +0.076 A 
ATOM     10  S   UNL     1      -2.904   0.674   2.628  0.00  0.00    -0.090 S 
ATOM     11  C   UNL     1      -2.191  -0.002   1.200  0.00  0.00    +0.074 A 
BRANCH   9  12
ATOM     12  C   UNL     1      -1.987   3.236   3.733  0.00  0.00    +0.248 C 
ATOM     13  O   UNL     1      -1.232   4.187   3.650  0.00  0.00    -0.270 OA
ATOM     14  N   UNL     1      -2.880   3.172   4.741  0.00  0.00    -0.325 N 
ATOM     15  H   UNL     1      -3.482   2.414   4.808  0.00  0.00    +0.145 HD
ATOM     16  H   UNL     1      -2.921   3.883   5.399  0.00  0.00    +0.145 HD
ENDBRANCH   9  12
ENDBRANCH   4   7
ENDBRANCH   2   4
ENDBRANCH   1   2
BRANCH   1  17
ATOM     17  C   UNL     1      -1.607   3.239  -3.295  0.00  0.00    -0.002 C 
BRANCH  17  18
ATOM     18  C   UNL     1      -1.823   4.753  -3.330  0.00  0.00    -0.077 C 
BRANCH  18  19
ATOM     19  N   UNL     1      -2.221   5.144  -4.699  0.00  0.00    +0.386 N 
ATOM     20  H   UNL     1      -1.591   4.692  -5.372  0.00  0.00    -0.081 HD
BRANCH  19  21
ATOM     21  C   UNL     1      -3.606   4.703  -4.968  0.00  0.00    -0.068 C 
ATOM     22  C   UNL     1      -4.505   4.916  -3.732  0.00  0.00    -0.015 C 
ATOM     23  C   UNL     1      -5.445   3.686  -3.729  0.00  0.00    -0.002 C 
ATOM     24  C   UNL     1      -4.510   2.540  -4.189  0.00  0.00    -0.002 C 
ATOM     25  C   UNL     1      -3.610   3.192  -5.258  0.00  0.00    -0.015 C 
ENDBRANCH  19  21
BRANCH  19  26
ATOM     26  C   UNL     1      -2.119   6.611  -4.855  0.00  0.00    -0.003 C 
BRANCH  26  29
ATOM     27  C   UNL     1      -3.010   7.535  -8.310  0.00  0.00    +0.041 A 
ATOM     28  C   UNL     1      -3.361   7.303  -6.960  0.00  0.00    +0.042 A 
ATOM     29  C   UNL     1      -2.232   6.951  -6.319  0.00  0.00    +0.089 A 
ATOM     30  O   UNL     1      -1.223   6.949  -7.206  0.00  0.00    -0.470 OA
ATOM     31  C   UNL     1      -1.689   7.302  -8.415  0.00  0.00    +0.195 A 
ENDBRANCH  26  29
ENDBRANCH  19  26
ENDBRANCH  18  19
ENDBRANCH  17  18
ENDBRANCH   1  17
TORSDOF 10
