REMARK  Name = ZINC39915965
REMARK  12 active torsions:
REMARK  status: ('A' for Active; 'I' for Inactive)
REMARK    1  A    between atoms: C_1  and  C_2
REMARK    2  A    between atoms: C_7  and  O_8
REMARK    3  A    between atoms: O_8  and  C_9
REMARK    4  A    between atoms: C_9  and  C_10
REMARK    5  A    between atoms: C_10  and  N_11
REMARK    6  A    between atoms: C_19  and  S_20
REMARK    7  A    between atoms: S_20  and  C_21
REMARK    8  A    between atoms: C_23  and  O_36
REMARK    9  A    between atoms: C_25  and  O_35
REMARK   10  A    between atoms: C_27  and  O_34
REMARK   11  A    between atoms: C_29  and  C_32
REMARK   12  A    between atoms: C_32  and  O_33
REMARK                            x       y       z     vdW  Elec       q    Type
REMARK                         _______ _______ _______ _____ _____    ______ ____
ROOT
ATOM      1  N   UNL     1      -0.137  -0.624   6.283  0.00  0.00    -0.315 N 
ATOM      2  C   UNL     1      -1.200  -1.101   7.032  0.00  0.00    +0.070 A 
ATOM      3  C   UNL     1      -2.578  -0.987   6.927  0.00  0.00    +0.028 A 
ATOM      4  C   UNL     1      -3.391  -1.597   7.859  0.00  0.00    +0.002 A 
ATOM      5  C   UNL     1      -2.839  -2.325   8.903  0.00  0.00    +0.002 A 
ATOM      6  C   UNL     1      -1.473  -2.449   9.024  0.00  0.00    +0.030 A 
ATOM      7  C   UNL     1      -0.636  -1.837   8.087  0.00  0.00    +0.090 A 
ATOM      8  N   UNL     1       0.714  -1.779   7.940  0.00  0.00    -0.222 NA
ATOM      9  C   UNL     1       1.010  -1.071   6.877  0.00  0.00    +0.172 A 
ENDROOT
BRANCH   1  10
ATOM     10  C   UNL     1      -0.225   0.201   5.076  0.00  0.00    +0.165 C 
BRANCH  10  11
ATOM     11  C   UNL     1      -0.300  -0.703   3.844  0.00  0.00    +0.250 C 
BRANCH  11  12
ATOM     12  O   UNL     1      -0.386   0.102   2.667  0.00  0.00    -0.490 OA
BRANCH  12  19
ATOM     13  C   UNL     1      -0.558   1.675   0.326  0.00  0.00    +0.047 C 
ATOM     14  C   UNL     1      -0.546   0.168   0.294  0.00  0.00    -0.009 A 
ATOM     15  C   UNL     1      -0.615  -0.498  -0.914  0.00  0.00    +0.007 A 
ATOM     16  C   UNL     1      -0.605  -1.880  -0.945  0.00  0.00    +0.000 A 
ATOM     17  C   UNL     1      -0.525  -2.600   0.234  0.00  0.00    +0.004 A 
ATOM     18  C   UNL     1      -0.455  -1.938   1.444  0.00  0.00    +0.046 A 
ATOM     19  C   UNL     1      -0.460  -0.551   1.477  0.00  0.00    +0.123 A 
ENDBRANCH  12  19
ENDBRANCH  11  12
ENDBRANCH  10  11
ENDBRANCH   1  10
BRANCH   9  20
ATOM     20  S   UNL     1       2.643  -0.741   6.303  0.00  0.00    -0.054 S 
BRANCH  20  21
ATOM     21  C   UNL     1       3.709  -1.594   7.497  0.00  0.00    +0.214 C 
ATOM     22  C   UNL     1       5.167  -1.492   7.045  0.00  0.00    +0.185 C 
ATOM     23  C   UNL     1       6.066  -2.162   8.088  0.00  0.00    +0.177 C 
ATOM     24  C   UNL     1       5.832  -1.499   9.449  0.00  0.00    +0.176 C 
ATOM     25  C   UNL     1       4.348  -1.601   9.809  0.00  0.00    +0.176 C 
ATOM     26  O   UNL     1       3.566  -0.986   8.783  0.00  0.00    -0.355 OA
BRANCH  24  27
ATOM     27  O   UNL     1       6.613  -2.163  10.444  0.00  0.00    -0.386 OA
ATOM     28  H   UNL     1       7.565  -2.141  10.277  0.00  0.00    +0.210 HD
ENDBRANCH  24  27
BRANCH  23  29
ATOM     29  O   UNL     1       5.748  -3.553   8.171  0.00  0.00    -0.386 OA
ATOM     30  H   UNL     1       5.868  -4.034   7.341  0.00  0.00    +0.210 HD
ENDBRANCH  23  29
BRANCH  22  31
ATOM     31  O   UNL     1       5.324  -2.150   5.785  0.00  0.00    -0.386 OA
ATOM     32  H   UNL     1       4.779  -1.779   5.078  0.00  0.00    +0.210 HD
ENDBRANCH  22  31
BRANCH  25  33
ATOM     33  C   UNL     1       3.954  -3.074   9.937  0.00  0.00    +0.190 C 
BRANCH  33  34
ATOM     34  O   UNL     1       2.613  -3.168  10.421  0.00  0.00    -0.392 OA
ATOM     35  H   UNL     1       2.296  -4.075  10.527  0.00  0.00    +0.210 HD
ENDBRANCH  33  34
ENDBRANCH  25  33
ENDBRANCH  20  21
ENDBRANCH   9  20
TORSDOF 11
