REMARK  Name = ZINC05704405
REMARK  6 active torsions:
REMARK  status: ('A' for Active; 'I' for Inactive)
REMARK    1  A    between atoms: C_1  and  O_2
REMARK    2  A    between atoms: O_2  and  C_3
REMARK    3  A    between atoms: C_8  and  C_9
REMARK    4  A    between atoms: N_15  and  N_16
REMARK    5  A    between atoms: C_17  and  C_18
REMARK    6  A    between atoms: C_20  and  N_25
REMARK                            x       y       z     vdW  Elec       q    Type
REMARK                         _______ _______ _______ _____ _____    ______ ____
ROOT
ATOM      1  C   UNL     1       4.413  -0.631  -1.126  0.00  0.00    +0.187 A 
ATOM      2  N   UNL     1       5.527  -1.240  -0.705  0.00  0.00    -0.151 NA
ATOM      3  N   UNL     1       5.544  -1.250   0.582  0.00  0.00    -0.253 N 
ATOM      4  H   UNL     1       6.243  -1.636   1.133  0.00  0.00    +0.191 HD
ATOM      5  C   UNL     1       4.435  -0.638   1.041  0.00  0.00    +0.197 A 
ATOM      6  S   UNL     1       4.012  -0.404   2.683  0.00  0.00    -0.010 S 
ATOM      7  N   UNL     1       3.719  -0.242  -0.034  0.00  0.00    -0.188 N 
ENDROOT
BRANCH   1  13
ATOM      8  C   UNL     1       4.841  -0.875  -3.571  0.00  0.00    +0.131 A 
ATOM      9  C   UNL     1       4.453  -0.673  -4.887  0.00  0.00    +0.046 A 
ATOM     10  C   UNL     1       3.268  -0.021  -5.167  0.00  0.00    +0.004 A 
ATOM     11  C   UNL     1       2.454   0.434  -4.138  0.00  0.00    +0.001 A 
ATOM     12  C   UNL     1       2.817   0.240  -2.826  0.00  0.00    +0.015 A 
ATOM     13  C   UNL     1       4.017  -0.420  -2.524  0.00  0.00    +0.063 A 
BRANCH   8  15
ATOM     14  C   UNL     1       6.790  -1.942  -4.409  0.00  0.00    +0.277 C 
ATOM     15  O   UNL     1       6.007  -1.510  -3.295  0.00  0.00    -0.494 OA
ENDBRANCH   8  15
ENDBRANCH   1  13
BRANCH   7  16
ATOM     16  N   UNL     1       2.492   0.435  -0.019  0.00  0.00    -0.170 NA
ATOM     17  C   UNL     1       2.467   1.744  -0.012  0.00  0.00    +0.142 C 
BRANCH  17  18
ATOM     18  C   UNL     1       1.183   2.453   0.004  0.00  0.00    +0.015 A 
ATOM     19  C   UNL     1       1.151   3.855   0.012  0.00  0.00    +0.043 A 
ATOM     20  C   UNL     1      -0.059   4.511   0.027  0.00  0.00    +0.127 A 
ATOM     21  C   UNL     1      -1.244   3.792   0.034  0.00  0.00    +0.034 A 
ATOM     22  C   UNL     1      -1.224   2.408   0.021  0.00  0.00    +0.023 A 
ATOM     23  C   UNL     1      -0.021   1.732   0.012  0.00  0.00    +0.050 A 
ATOM     24 CL   UNL     1       0.002  -0.004   0.002  0.00  0.00    -0.083 Cl
BRANCH  20  25
ATOM     25  N   UNL     1      -0.095   5.991   0.035  0.00  0.00    +0.056 N 
ATOM     26  O   UNL     1       1.029   6.677   0.028  0.00  0.00    -0.126 OA
ATOM     27  O   UNL     1      -1.252   6.622   0.050  0.00  0.00    -0.126 OA
ENDBRANCH  20  25
ENDBRANCH  17  18
ENDBRANCH   7  16
TORSDOF 5
