REMARK  Name = ZINC28466071
REMARK  4 active torsions:
REMARK  status: ('A' for Active; 'I' for Inactive)
REMARK    1  A    between atoms: C_1  and  C_2
REMARK    2  A    between atoms: C_2  and  N_3
REMARK    3  A    between atoms: C_7  and  C_18
REMARK    4  A    between atoms: C_11  and  O_17
REMARK                            x       y       z     vdW  Elec       q    Type
REMARK                         _______ _______ _______ _____ _____    ______ ____
ROOT
ATOM      1  N   UNL     1      -1.148   3.214   0.078  0.00  0.00    -0.257 N 
ATOM      2  C   UNL     1      -1.187   1.868   0.054  0.00  0.00    +0.305 C 
ATOM      3  O   UNL     1      -2.271   1.318   0.084  0.00  0.00    -0.253 OA
ATOM      4  N   UNL     1      -0.083   1.108   0.003  0.00  0.00    -0.292 N 
ATOM      5  C   UNL     1       1.261   1.697  -0.001  0.00  0.00    +0.119 C 
ATOM      6  C   UNL     1       1.196   3.051   0.705  0.00  0.00    +0.130 C 
ATOM      7  C   UNL     1       0.136   3.905  -0.004  0.00  0.00    +0.148 C 
ATOM      8  C   UNL     1       0.085   5.280   0.653  0.00  0.00    +0.056 C 
ATOM      9  C   UNL     1       1.420   5.997   0.426  0.00  0.00    +0.012 C 
ATOM     10  C   UNL     1       2.556   5.215   1.091  0.00  0.00    +0.075 C 
ATOM     11  C   UNL     1       2.515   3.778   0.612  0.00  0.00    +0.143 C 
ATOM     12  O   UNL     1       3.501   3.235   0.173  0.00  0.00    -0.297 OA
ATOM     13  H   UNL     1      -0.205   0.016  -0.037  0.00  0.00    +0.151 HD
ENDROOT
BRANCH   5  14
ATOM     14  C   UNL     1       1.728   1.887  -1.421  0.00  0.00    -0.026 A 
ATOM     15  C   UNL     1       0.806   2.088  -2.431  0.00  0.00    +0.005 A 
ATOM     16  C   UNL     1       1.234   2.267  -3.733  0.00  0.00    +0.000 A 
ATOM     17  C   UNL     1       2.585   2.234  -4.027  0.00  0.00    +0.000 A 
ATOM     18  C   UNL     1       3.507   2.028  -3.017  0.00  0.00    +0.000 A 
ATOM     19  C   UNL     1       3.078   1.854  -1.715  0.00  0.00    +0.005 A 
ENDBRANCH   5  14
BRANCH   1  21
ATOM     20  C   UNL     1      -2.927   4.274  -1.223  0.00  0.00    +0.024 C 
ATOM     21  C   UNL     1      -2.390   3.983   0.180  0.00  0.00    +0.109 C 
ENDBRANCH   1  21
BRANCH   7  22
ATOM     22  O   UNL     1       0.491   4.053  -1.380  0.00  0.00    -0.371 OA
ATOM     23  H   UNL     1       1.432   4.552  -1.655  0.00  0.00    +0.212 HD
ENDBRANCH   7  22
TORSDOF 3
