REMARK  Name = ZINC36610389
REMARK  8 active torsions:
REMARK  status: ('A' for Active; 'I' for Inactive)
REMARK    1  A    between atoms: C_4  and  N_7
REMARK    2  A    between atoms: N_7  and  C_8
REMARK    3  A    between atoms: C_8  and  C_10
REMARK    4  A    between atoms: C_8  and  C_15
REMARK    5  A    between atoms: N_17  and  C_18
REMARK    6  A    between atoms: C_24  and  C_26
REMARK    7  A    between atoms: C_30  and  O_33
REMARK    8  A    between atoms: C_31  and  O_32
REMARK                            x       y       z     vdW  Elec       q    Type
REMARK                         _______ _______ _______ _____ _____    ______ ____
ROOT
ATOM      1  N   UNL     1       3.804  -0.326   0.821  0.00  0.00    -0.248 N 
ATOM      2  C   UNL     1       4.758   0.110  -0.025  0.00  0.00    +0.256 C 
ATOM      3  O   UNL     1       4.518   1.020  -0.795  0.00  0.00    -0.269 OA
ENDROOT
BRANCH   1   7
ATOM      4  C   UNL     1      -0.083   1.140   0.511  0.00  0.00    +0.000 A 
ATOM      5  C   UNL     1       0.854   1.459  -0.455  0.00  0.00    +0.002 A 
ATOM      6  C   UNL     1       2.143   0.975  -0.355  0.00  0.00    +0.023 A 
ATOM      7  C   UNL     1       2.499   0.166   0.717  0.00  0.00    +0.038 A 
ATOM      8  C   UNL     1       1.556  -0.152   1.686  0.00  0.00    +0.023 A 
ATOM      9  C   UNL     1       0.268   0.335   1.580  0.00  0.00    +0.002 A 
ENDBRANCH   1   7
BRANCH   2  10
ATOM     10  C   UNL     1       6.093  -0.517  -0.017  0.00  0.00    +0.082 A 
ATOM     11  C   UNL     1       6.217  -1.906   0.075  0.00  0.00    +0.017 A 
ATOM     12  C   UNL     1       7.465  -2.488   0.083  0.00  0.00    +0.005 A 
ATOM     13  C   UNL     1       8.604  -1.703  -0.001  0.00  0.00    +0.049 A 
ATOM     14  C   UNL     1       8.498  -0.326  -0.092  0.00  0.00    +0.159 A 
ATOM     15  C   UNL     1       7.243   0.277  -0.106  0.00  0.00    +0.171 A 
BRANCH  15  16
ATOM     16  O   UNL     1       7.135   1.626  -0.202  0.00  0.00    -0.503 OA
ATOM     17  H   UNL     1       7.129   2.081   0.652  0.00  0.00    +0.292 HD
ENDBRANCH  15  16
BRANCH  14  18
ATOM     18  O   UNL     1       9.620   0.439  -0.173  0.00  0.00    -0.503 OA
ATOM     19  H   UNL     1       9.922   0.599  -1.078  0.00  0.00    +0.292 HD
ENDBRANCH  14  18
ENDBRANCH   2  10
BRANCH   1  20
ATOM     20  C   UNL     1       4.133  -1.316   1.850  0.00  0.00    +0.233 C 
BRANCH  20  21
ATOM     21  C   UNL     1       3.281  -2.544   1.657  0.00  0.00    +0.135 A 
ATOM     22  C   UNL     1       3.692  -3.817   1.801  0.00  0.00    +0.047 A 
ATOM     23  C   UNL     1       2.576  -4.640   1.526  0.00  0.00    +0.041 A 
ATOM     24  C   UNL     1       1.550  -3.821   1.231  0.00  0.00    +0.195 A 
ATOM     25  O   UNL     1       1.982  -2.553   1.317  0.00  0.00    -0.465 OA
ENDBRANCH  20  21
BRANCH  20  26
ATOM     26  C   UNL     1       3.869  -0.731   3.213  0.00  0.00    +0.242 C 
ATOM     27  O   UNL     1       3.447   0.402   3.316  0.00  0.00    -0.273 OA
ATOM     28  N   UNL     1       4.102  -1.466   4.319  0.00  0.00    -0.311 N 
ATOM     29  H   UNL     1       4.440  -2.371   4.237  0.00  0.00    +0.149 HD
BRANCH  28  30
ATOM     30  C   UNL     1       3.846  -0.896   5.644  0.00  0.00    +0.073 C 
ATOM     31  C   UNL     1       5.066  -0.093   6.099  0.00  0.00    +0.022 C 
ATOM     32  C   UNL     1       4.798   0.501   7.483  0.00  0.00    +0.002 C 
ATOM     33  C   UNL     1       4.530  -0.629   8.480  0.00  0.00    +0.000 C 
ATOM     34  C   UNL     1       3.310  -1.432   8.025  0.00  0.00    +0.002 C 
ATOM     35  C   UNL     1       3.578  -2.026   6.641  0.00  0.00    +0.022 C 
ENDBRANCH  28  30
ENDBRANCH  20  26
ENDBRANCH   1  20
TORSDOF 8
