REMARK  Name = ZINC44422170
REMARK  3 active torsions:
REMARK  status: ('A' for Active; 'I' for Inactive)
REMARK    1  A    between atoms: C_3  and  C_11
REMARK    2  A    between atoms: C_13  and  C_16
REMARK    3  A    between atoms: N_21  and  C_23
REMARK                            x       y       z     vdW  Elec       q    Type
REMARK                         _______ _______ _______ _____ _____    ______ ____
ROOT
ATOM      1  C   UNL     1       3.668   2.158  -0.029  0.00  0.00    +0.259 A 
ATOM      2  N   UNL     1       3.768   3.469  -0.008  0.00  0.00    -0.191 NA
ATOM      3  C   UNL     1       5.052   3.830  -0.026  0.00  0.00    +0.177 A 
ATOM      4  N   UNL     1       5.796   2.760  -0.058  0.00  0.00    -0.061 NA
ATOM      5  O   UNL     1       4.912   1.648  -0.055  0.00  0.00    -0.333 OA
ENDROOT
BRANCH   1   8
ATOM      6  C   UNL     1       0.014   1.346   0.021  0.00  0.00    +0.011 A 
ATOM      7  C   UNL     1       1.181   2.051   0.011  0.00  0.00    +0.014 A 
ATOM      8  C   UNL     1       2.413   1.383  -0.018  0.00  0.00    +0.041 A 
ATOM      9  C   UNL     1       2.458  -0.009  -0.037  0.00  0.00    +0.039 A 
ATOM     10  C   UNL     1       1.275  -0.735  -0.027  0.00  0.00    +0.047 A 
ATOM     11  C   UNL     1       0.043  -0.052   0.002  0.00  0.00    -0.000 A 
ATOM     12  C   UNL     1      -0.991  -1.087   0.005  0.00  0.00    +0.027 A 
ATOM     13  C   UNL     1      -0.361  -2.274  -0.020  0.00  0.00    +0.083 A 
ATOM     14  N   UNL     1       0.992  -2.083  -0.040  0.00  0.00    -0.361 N 
ATOM     15  H   UNL     1       1.655  -2.792  -0.061  0.00  0.00    +0.165 HD
ENDBRANCH   1   8
BRANCH   3  16
ATOM     16  C   UNL     1       5.562   5.248  -0.012  0.00  0.00    +0.087 C 
ATOM     17  C   UNL     1       6.497   5.512  -1.215  0.00  0.00    +0.109 C 
ATOM     18  C   UNL     1       7.569   6.423  -0.660  0.00  0.00    +0.221 C 
ATOM     19  O   UNL     1       8.333   7.086  -1.329  0.00  0.00    -0.275 OA
ATOM     20  N   UNL     1       7.552   6.390   0.684  0.00  0.00    -0.271 N 
ATOM     21  C   UNL     1       6.513   5.482   1.183  0.00  0.00    +0.125 C 
BRANCH  20  22
ATOM     22  C   UNL     1       8.415   7.129   1.503  0.00  0.00    +0.038 A 
ATOM     23  C   UNL     1       9.440   7.877   0.938  0.00  0.00    +0.026 A 
ATOM     24  C   UNL     1      10.290   8.606   1.747  0.00  0.00    +0.041 A 
ATOM     25  C   UNL     1      10.121   8.591   3.121  0.00  0.00    +0.142 A 
ATOM     26  C   UNL     1       9.099   7.846   3.688  0.00  0.00    +0.078 A 
ATOM     27  C   UNL     1       8.243   7.120   2.881  0.00  0.00    +0.046 A 
ATOM     28 CL   UNL     1       8.890   7.830   5.411  0.00  0.00    -0.081 Cl
ATOM     29  F   UNL     1      10.954   9.304   3.910  0.00  0.00    -0.204 F 
ENDBRANCH  20  22
ENDBRANCH   3  16
TORSDOF 3
