REMARK  Name = ZINC32104825
REMARK  7 active torsions:
REMARK  status: ('A' for Active; 'I' for Inactive)
REMARK    1  A    between atoms: C_1  and  C_2
REMARK    2  A    between atoms: C_5  and  C_9
REMARK    3  A    between atoms: C_7  and  C_8
REMARK    4  A    between atoms: C_12  and  O_28
REMARK    5  A    between atoms: C_16  and  C_27
REMARK    6  A    between atoms: C_22  and  O_25
REMARK    7  A    between atoms: O_25  and  C_26
REMARK                            x       y       z     vdW  Elec       q    Type
REMARK                         _______ _______ _______ _____ _____    ______ ____
ROOT
ATOM      1  C   UNL     1       0.059  -4.275  -0.021  0.00  0.00    +0.063 C 
ATOM      2  C   UNL     1      -1.176  -4.808  -0.758  0.00  0.00    +0.108 C 
ATOM      3  C   UNL     1      -0.994  -6.238  -1.173  0.00  0.00    +0.190 C 
ATOM      4  N   UNL     1       0.151  -6.745  -1.522  0.00  0.00    -0.197 NA
ATOM      5  C   UNL     1       1.266  -5.963  -1.467  0.00  0.00    +0.165 A 
ATOM      6  C   UNL     1       1.279  -4.767  -0.759  0.00  0.00    +0.027 A 
ATOM      7  C   UNL     1       2.538  -4.210  -0.887  0.00  0.00    +0.066 A 
ATOM      8  N   UNL     1       3.276  -5.013  -1.619  0.00  0.00    -0.168 NA
ATOM      9  N   UNL     1       2.503  -6.128  -1.990  0.00  0.00    -0.194 N 
ATOM     10  C   UNL     1       2.937  -7.213  -2.759  0.00  0.00    +0.178 A 
ATOM     11  C   UNL     1       4.000  -7.060  -3.647  0.00  0.00    +0.055 A 
ATOM     12  C   UNL     1       4.393  -8.164  -4.386  0.00  0.00    +0.072 A 
ATOM     13  C   UNL     1       3.701  -9.358  -4.194  0.00  0.00    +0.234 A 
ATOM     14  N   UNL     1       2.703  -9.410  -3.328  0.00  0.00    -0.110 NA
ATOM     15  N   UNL     1       2.342  -8.388  -2.640  0.00  0.00    -0.126 NA
ATOM     16  C   UNL     1       2.986  -2.901  -0.288  0.00  0.00    +0.068 C 
ENDROOT
BRANCH   1  21
ATOM     17  C   UNL     1      -0.018   1.503   0.010  0.00  0.00    +0.044 C 
ATOM     18  C   UNL     1       0.002  -0.004   0.002  0.00  0.00    -0.048 A 
ATOM     19  C   UNL     1       0.006  -0.689  -1.199  0.00  0.00    +0.004 A 
ATOM     20  C   UNL     1       0.025  -2.071  -1.207  0.00  0.00    +0.004 A 
ATOM     21  C   UNL     1       0.040  -2.768  -0.013  0.00  0.00    -0.039 A 
ATOM     22  C   UNL     1       0.037  -2.084   1.188  0.00  0.00    +0.008 A 
ATOM     23  C   UNL     1       0.023  -0.702   1.195  0.00  0.00    -0.047 A 
ATOM     24  C   UNL     1       0.025   0.045   2.504  0.00  0.00    +0.044 C 
ENDBRANCH   1  21
BRANCH  13  25
ATOM     25  O   UNL     1       4.051 -10.466  -4.896  0.00  0.00    -0.479 OA
ATOM     26  C   UNL     1       3.298 -11.655  -4.649  0.00  0.00    +0.279 C 
ENDBRANCH  13  25
BRANCH   3  27
ATOM     27  O   UNL     1      -2.078  -7.042  -1.185  0.00  0.00    -0.495 OA
ATOM     28  H   UNL     1      -1.891  -7.949  -1.462  0.00  0.00    +0.293 HD
ENDBRANCH   3  27
TORSDOF 3
