REMARK  Name = ZINC00664110
REMARK  9 active torsions:
REMARK  status: ('A' for Active; 'I' for Inactive)
REMARK    1  A    between atoms: C_1  and  C_2
REMARK    2  A    between atoms: C_2  and  N_3
REMARK    3  A    between atoms: C_14  and  C_16
REMARK    4  A    between atoms: C_19  and  C_30
REMARK    5  A    between atoms: C_25  and  N_29
REMARK    6  A    between atoms: C_26  and  C_27
REMARK    7  A    between atoms: C_30  and  C_31
REMARK    8  A    between atoms: C_30  and  C_32
REMARK    9  A    between atoms: C_30  and  C_33
REMARK                            x       y       z     vdW  Elec       q    Type
REMARK                         _______ _______ _______ _____ _____    ______ ____
ROOT
ATOM      1  C   UNL     1       6.236  -1.204  -1.915  0.00  0.00    +0.101 C 
ATOM      2  C   UNL     1       7.022   0.063  -2.138  0.00  0.00    +0.050 A 
ATOM      3  C   UNL     1       6.978   0.929  -3.161  0.00  0.00    +0.049 A 
ATOM      4  N   UNL     1       7.872   1.913  -2.905  0.00  0.00    -0.277 N 
ATOM      5  H   UNL     1       8.056   2.677  -3.473  0.00  0.00    +0.189 HD
ATOM      6  N   UNL     1       8.487   1.633  -1.674  0.00  0.00    -0.135 NA
ATOM      7  C   UNL     1       7.982   0.527  -1.212  0.00  0.00    +0.245 A 
ATOM      8  O   UNL     1       8.258  -0.145  -0.062  0.00  0.00    -0.421 OA
ATOM      9  C   UNL     1       7.791  -1.405   0.049  0.00  0.00    +0.201 C 
ATOM     10  C   UNL     1       6.866  -1.953  -0.769  0.00  0.00    +0.098 C 
ENDROOT
BRANCH   1  22
ATOM     11  N   UNL     1       0.806  -0.101  -0.818  0.00  0.00    -0.340 N 
ATOM     12  C   UNL     1       0.173  -0.989  -1.669  0.00  0.00    +0.050 A 
ATOM     13  C   UNL     1      -1.171  -1.250  -1.919  0.00  0.00    +0.026 A 
ATOM     14  C   UNL     1      -1.528  -2.210  -2.842  0.00  0.00    +0.002 A 
ATOM     15  C   UNL     1      -0.557  -2.924  -3.528  0.00  0.00    +0.001 A 
ATOM     16  C   UNL     1       0.779  -2.679  -3.294  0.00  0.00    +0.010 A 
ATOM     17  C   UNL     1       1.153  -1.712  -2.365  0.00  0.00    +0.008 A 
ATOM     18  C   UNL     1       2.457  -1.214  -1.888  0.00  0.00    +0.008 A 
ATOM     19  C   UNL     1       2.180  -0.218  -0.940  0.00  0.00    +0.050 A 
ATOM     20  C   UNL     1       3.235   0.442  -0.317  0.00  0.00    +0.027 A 
ATOM     21  C   UNL     1       4.536   0.119  -0.637  0.00  0.00    +0.006 A 
ATOM     22  C   UNL     1       4.808  -0.863  -1.577  0.00  0.00    -0.034 A 
ATOM     23  C   UNL     1       3.776  -1.534  -2.198  0.00  0.00    +0.015 A 
BRANCH  11  25
ATOM     24  C   UNL     1      -0.125   2.154  -0.652  0.00  0.00    +0.027 C 
ATOM     25  C   UNL     1       0.121   0.833   0.079  0.00  0.00    +0.119 C 
ENDBRANCH  11  25
ENDBRANCH   1  22
BRANCH   3  26
ATOM     26  C   UNL     1       6.093   0.826  -4.377  0.00  0.00    +0.004 C 
ATOM     27  C   UNL     1       6.435   1.953  -5.354  0.00  0.00    +0.017 C 
ATOM     28  C   UNL     1       6.319  -0.525  -5.058  0.00  0.00    +0.017 C 
ATOM     29  C   UNL     1       4.628   0.945  -3.953  0.00  0.00    +0.017 C 
ENDBRANCH   3  26
BRANCH   9  30
ATOM     30  N   UNL     1       8.289  -2.184   1.062  0.00  0.00    -0.328 N 
ATOM     31  H   UNL     1       8.954  -1.824   1.669  0.00  0.00    +0.145 HD
ATOM     32  H   UNL     1       7.976  -3.096   1.172  0.00  0.00    +0.145 HD
ENDBRANCH   9  30
BRANCH  10  33
ATOM     33  C   UNL     1       6.465  -3.308  -0.536  0.00  0.00    +0.101 C 
ATOM     34  N   UNL     1       6.146  -4.383  -0.351  0.00  0.00    -0.191 NA
ENDBRANCH  10  33
TORSDOF 5
