REMARK  Name = ZINC09763818
REMARK  8 active torsions:
REMARK  status: ('A' for Active; 'I' for Inactive)
REMARK    1  A    between atoms: C_1  and  O_2
REMARK    2  A    between atoms: O_2  and  C_3
REMARK    3  A    between atoms: C_6  and  N_30
REMARK    4  A    between atoms: C_10  and  C_19
REMARK    5  A    between atoms: C_21  and  O_28
REMARK    6  A    between atoms: C_22  and  O_26
REMARK    7  A    between atoms: O_26  and  C_27
REMARK    8  A    between atoms: O_28  and  C_29
REMARK                            x       y       z     vdW  Elec       q    Type
REMARK                         _______ _______ _______ _____ _____    ______ ____
ROOT
ATOM      1  C   UNL     1      -4.567   0.194   1.489  0.00  0.00    +0.141 A 
ATOM      2  C   UNL     1      -5.919   0.039   1.250  0.00  0.00    +0.050 A 
ATOM      3  C   UNL     1      -6.354  -0.757   0.206  0.00  0.00    +0.037 A 
ATOM      4  C   UNL     1      -5.429  -1.403  -0.592  0.00  0.00    +0.132 A 
ATOM      5  C   UNL     1      -4.077  -1.259  -0.358  0.00  0.00    +0.014 A 
ATOM      6  C   UNL     1      -3.620  -0.449   0.683  0.00  0.00    +0.076 A 
ATOM      7  N   UNL     1      -2.272  -0.217   0.960  0.00  0.00    -0.334 N 
ATOM      8  C   UNL     1      -1.293  -0.963   0.154  0.00  0.00    +0.105 C 
ATOM      9  C   UNL     1      -1.825  -1.008  -1.263  0.00  0.00    +0.029 C 
ATOM     10  C   UNL     1      -3.066  -1.951  -1.188  0.00  0.00    +0.051 C 
ATOM     11  C   UNL     1      -3.305  -2.306  -2.608  0.00  0.00    -0.023 C 
ATOM     12  C   UNL     1      -2.147  -2.251  -3.257  0.00  0.00    -0.030 C 
ATOM     13  C   UNL     1      -1.034  -1.810  -2.303  0.00  0.00    +0.033 C 
ATOM     14  H   UNL     1      -2.083  -0.320   1.946  0.00  0.00    +0.147 HD
ENDROOT
BRANCH   8  15
ATOM     15  C   UNL     1       0.039  -0.258   0.181  0.00  0.00    -0.022 A 
ATOM     16  C   UNL     1       1.209  -0.995   0.225  0.00  0.00    +0.055 A 
ATOM     17  C   UNL     1       2.434  -0.348   0.248  0.00  0.00    +0.163 A 
ATOM     18  C   UNL     1       2.484   1.042   0.228  0.00  0.00    +0.175 A 
ATOM     19  C   UNL     1       1.309   1.775   0.184  0.00  0.00    +0.063 A 
ATOM     20  C   UNL     1       0.088   1.123   0.161  0.00  0.00    +0.024 A 
ATOM     21 BR   UNL     1       1.372   3.664   0.156  0.00  0.00    -0.046 Br
BRANCH  18  22
ATOM     22  O   UNL     1       3.685   1.681   0.251  0.00  0.00    -0.490 OA
ATOM     23  C   UNL     1       4.292   1.966  -1.011  0.00  0.00    +0.277 C 
ENDBRANCH  18  22
BRANCH  17  24
ATOM     24  O   UNL     1       3.585  -1.071   0.292  0.00  0.00    -0.491 OA
ATOM     25  C   UNL     1       3.457  -2.495   0.311  0.00  0.00    +0.277 C 
ENDBRANCH  17  24
ENDBRANCH   8  15
BRANCH   4  26
ATOM     26  N   UNL     1      -5.894  -2.256  -1.709  0.00  0.00    +0.057 N 
ATOM     27  O   UNL     1      -6.692  -1.819  -2.518  0.00  0.00    -0.126 OA
ATOM     28  O   UNL     1      -5.477  -3.395  -1.819  0.00  0.00    -0.126 OA
ENDBRANCH   4  26
BRANCH   1  30
ATOM     29  C   UNL     1      -5.166   1.608   3.305  0.00  0.00    +0.277 C 
ATOM     30  O   UNL     1      -4.152   0.979   2.519  0.00  0.00    -0.493 OA
ENDBRANCH   1  30
TORSDOF 5
