REMARK  Name = ZINC60343118
REMARK  13 active torsions:
REMARK  status: ('A' for Active; 'I' for Inactive)
REMARK    1  A    between atoms: C_1  and  C_2
REMARK    2  A    between atoms: C_4  and  N_15
REMARK    3  A    between atoms: N_5  and  C_7
REMARK    4  A    between atoms: C_16  and  C_18
REMARK    5  A    between atoms: C_18  and  N_19
REMARK    6  A    between atoms: C_24  and  C_26
REMARK    7  A    between atoms: C_26  and  C_28
REMARK    8  A    between atoms: C_26  and  N_29
REMARK    9  A    between atoms: C_30  and  O_32
REMARK   10  A    between atoms: O_32  and  C_33
REMARK   11  A    between atoms: C_33  and  C_34
REMARK   12  A    between atoms: C_33  and  C_35
REMARK   13  A    between atoms: C_33  and  C_36
REMARK                            x       y       z     vdW  Elec       q    Type
REMARK                         _______ _______ _______ _____ _____    ______ ____
ROOT
ATOM      1  C   UNL     1       0.044  -4.314  -3.771  0.00  0.00    +0.019 C 
ENDROOT
BRANCH   1   2
ATOM      2  N   UNL     1       0.031  -3.895  -5.179  0.00  0.00    +0.388 N 
ATOM      3  C   UNL     1       1.271  -3.170  -5.483  0.00  0.00    -0.078 C 
ATOM      4  C   UNL     1       1.227  -2.660  -6.925  0.00  0.00    -0.019 C 
ATOM      5  C   UNL     1       1.084  -3.850  -7.877  0.00  0.00    -0.003 C 
ATOM      6  C   UNL     1      -0.173  -4.642  -7.503  0.00  0.00    -0.014 C 
ATOM      7  C   UNL     1      -0.078  -5.078  -6.040  0.00  0.00    -0.047 C 
ATOM      8  H   UNL     1      -0.759  -3.288  -5.341  0.00  0.00    -0.081 HD
BRANCH   7   9
ATOM      9  C   UNL     1      -1.331  -5.870  -5.662  0.00  0.00    +0.060 C 
ATOM     10  C   UNL     1      -2.553  -4.952  -5.729  0.00  0.00    +0.026 C 
BRANCH   9  11
ATOM     11  N   UNL     1      -1.505  -6.984  -6.597  0.00  0.00    -0.280 N 
ATOM     12  C   UNL     1      -2.189  -8.082  -6.217  0.00  0.00    +0.401 C 
ATOM     13  O   UNL     1      -2.661  -8.147  -5.100  0.00  0.00    -0.226 OA
ATOM     14  H   UNL     1      -1.129  -6.932  -7.489  0.00  0.00    +0.152 HD
BRANCH  12  15
ATOM     15  O   UNL     1      -2.349  -9.106  -7.077  0.00  0.00    -0.445 OA
BRANCH  15  16
ATOM     16  C   UNL     1      -3.085 -10.238  -6.607  0.00  0.00    +0.107 C 
ATOM     17  C   UNL     1      -4.499  -9.801  -6.220  0.00  0.00    +0.055 C 
ATOM     18  C   UNL     1      -3.162 -11.291  -7.715  0.00  0.00    +0.055 C 
ATOM     19  C   UNL     1      -2.381 -10.832  -5.386  0.00  0.00    +0.055 C 
ENDBRANCH  15  16
ENDBRANCH  12  15
ENDBRANCH   9  11
ENDBRANCH   7   9
ENDBRANCH   1   2
BRANCH   1  21
ATOM     20  N   UNL     1       0.040  -3.240  -1.543  0.00  0.00    -0.272 N 
ATOM     21  C   UNL     1       0.031  -3.097  -2.883  0.00  0.00    +0.202 C 
ATOM     22  O   UNL     1       0.014  -1.988  -3.375  0.00  0.00    -0.278 OA
ATOM     23  H   UNL     1       0.054  -4.126  -1.150  0.00  0.00    +0.156 HD
BRANCH  20  27
ATOM     24  C   UNL     1      -0.018   1.503   0.010  0.00  0.00    +0.067 C 
ATOM     25  C   UNL     1       0.002  -0.004   0.002  0.00  0.00    +0.062 A 
ATOM     26  C   UNL     1       0.008  -0.816  -1.135  0.00  0.00    +0.068 A 
ATOM     27  C   UNL     1       0.028  -2.113  -0.722  0.00  0.00    +0.124 A 
ATOM     28  N   UNL     1       0.035  -2.110   0.631  0.00  0.00    -0.246 N 
ATOM     29  N   UNL     1       0.023  -0.776   1.058  0.00  0.00    -0.175 NA
BRANCH  28  30
ATOM     30  C   UNL     1       0.056  -3.292   1.496  0.00  0.00    +0.132 C 
ATOM     31  C   UNL     1       1.310  -3.252   2.385  0.00  0.00    +0.051 C 
ATOM     32  C   UNL     1       1.151  -4.330   3.495  0.00  0.00    +0.168 C 
ATOM     33  S   UNL     1      -0.629  -4.116   3.920  0.00  0.00    -0.029 S 
ATOM     34  O   UNL     1      -1.235  -5.397   4.030  0.00  0.00    -0.174 OA
ATOM     35  O   UNL     1      -0.740  -3.196   4.997  0.00  0.00    -0.174 OA
ATOM     36  C   UNL     1      -1.216  -3.306   2.378  0.00  0.00    +0.192 C 
ENDBRANCH  28  30
ENDBRANCH  20  27
ENDBRANCH   1  21
TORSDOF 8
