REMARK  Name = ZINC03277197
REMARK  10 active torsions:
REMARK  status: ('A' for Active; 'I' for Inactive)
REMARK    1  A    between atoms: C_1  and  C_2
REMARK    2  A    between atoms: C_5  and  C_8
REMARK    3  A    between atoms: C_8  and  C_10
REMARK    4  A    between atoms: C_14  and  N_15
REMARK    5  A    between atoms: C_16  and  C_18
REMARK    6  A    between atoms: C_18  and  O_19
REMARK    7  A    between atoms: O_19  and  C_20
REMARK    8  A    between atoms: C_20  and  C_22
REMARK    9  A    between atoms: C_22  and  C_23
REMARK   10  A    between atoms: C_23  and  C_24
REMARK                            x       y       z     vdW  Elec       q    Type
REMARK                         _______ _______ _______ _____ _____    ______ ____
ROOT
ATOM      1  N   UNL     1      -1.580   6.443  -2.776  0.00  0.00    -0.277 N 
ATOM      2  C   UNL     1      -1.541   7.696  -2.282  0.00  0.00    +0.255 C 
ATOM      3  O   UNL     1      -1.308   7.877  -1.106  0.00  0.00    -0.272 OA
ATOM      4  H   UNL     1      -1.792   6.279  -3.843  0.00  0.00    +0.155 HD
ENDROOT
BRANCH   1   9
ATOM      5  C   UNL     1      -1.249   4.016  -2.277  0.00  0.00    +0.054 A 
ATOM      6  C   UNL     1      -1.005   3.073  -1.199  0.00  0.00    -0.024 A 
ATOM      7  C   UNL     1      -0.905   3.619   0.032  0.00  0.00    -0.005 A 
ATOM      8  S   UNL     1      -1.128   5.357  -0.223  0.00  0.00    -0.077 S 
ATOM      9  C   UNL     1      -1.353   5.362  -1.941  0.00  0.00    +0.083 A 
ATOM     10  C   UNL     1      -0.659   2.899   1.322  0.00  0.00    +0.043 C 
ATOM     11  C   UNL     1      -0.911   1.401   1.094  0.00  0.00    +0.005 C 
ATOM     12  C   UNL     1      -0.178   0.966  -0.178  0.00  0.00    +0.005 C 
ATOM     13  C   UNL     1      -0.866   1.569  -1.404  0.00  0.00    +0.037 C 
BRANCH   5  14
ATOM     14  C   UNL     1      -1.380   3.567  -3.665  0.00  0.00    +0.196 C 
ATOM     15  O   UNL     1      -0.412   3.578  -4.403  0.00  0.00    -0.287 OA
BRANCH  14  20
ATOM     16  C   UNL     1      -6.475   1.752  -5.633  0.00  0.00    +0.044 C 
ATOM     17  C   UNL     1      -5.141   2.227  -5.117  0.00  0.00    -0.050 A 
ATOM     18  C   UNL     1      -4.020   2.137  -5.923  0.00  0.00    +0.004 A 
ATOM     19  C   UNL     1      -2.796   2.570  -5.457  0.00  0.00    +0.012 A 
ATOM     20  C   UNL     1      -2.690   3.101  -4.171  0.00  0.00    +0.022 A 
ATOM     21  C   UNL     1      -3.824   3.184  -3.361  0.00  0.00    +0.012 A 
ATOM     22  C   UNL     1      -5.043   2.752  -3.841  0.00  0.00    +0.004 A 
ENDBRANCH  14  20
ENDBRANCH   5  14
ENDBRANCH   1   9
BRANCH   2  23
ATOM     23  C   UNL     1      -1.788   8.873  -3.191  0.00  0.00    +0.328 C 
BRANCH  23  24
ATOM     24  O   UNL     1      -1.693  10.103  -2.426  0.00  0.00    -0.455 OA
BRANCH  24  25
ATOM     25  C   UNL     1      -1.889  11.252  -3.093  0.00  0.00    +0.308 C 
ATOM     26  O   UNL     1      -2.132  11.229  -4.276  0.00  0.00    -0.251 OA
BRANCH  25  27
ATOM     27  C   UNL     1      -1.805  12.569  -2.366  0.00  0.00    +0.125 C 
BRANCH  27  28
ATOM     28  C   UNL     1      -2.066  13.712  -3.349  0.00  0.00    +0.048 C 
BRANCH  28  29
ATOM     29  C   UNL     1      -1.982  15.029  -2.622  0.00  0.00    -0.022 A 
ATOM     30  C   UNL     1      -3.009  15.722  -2.104  0.00  0.00    +0.087 A 
ATOM     31  N   UNL     1      -2.549  16.869  -1.517  0.00  0.00    -0.360 N 
ATOM     32  H   UNL     1      -3.255  17.561  -1.033  0.00  0.00    +0.165 HD
ATOM     33  C   UNL     1      -1.181  16.948  -1.653  0.00  0.00    +0.047 A 
ATOM     34  C   UNL     1      -0.766  15.799  -2.350  0.00  0.00    +0.003 A 
ATOM     35  C   UNL     1       0.587  15.608  -2.635  0.00  0.00    +0.010 A 
ATOM     36  C   UNL     1       1.503  16.539  -2.233  0.00  0.00    +0.001 A 
ATOM     37  C   UNL     1       1.099  17.674  -1.545  0.00  0.00    +0.002 A 
ATOM     38  C   UNL     1      -0.232  17.883  -1.254  0.00  0.00    +0.026 A 
ENDBRANCH  28  29
ENDBRANCH  27  28
ENDBRANCH  25  27
ENDBRANCH  24  25
ENDBRANCH  23  24
ENDBRANCH   2  23
TORSDOF 9
