REMARK  Name = ZINC43222901
REMARK  13 active torsions:
REMARK  status: ('A' for Active; 'I' for Inactive)
REMARK    1  A    between atoms: C_1  and  C_2
REMARK    2  A    between atoms: C_2  and  C_4
REMARK    3  A    between atoms: C_2  and  N_10
REMARK    4  A    between atoms: C_4  and  C_5
REMARK    5  A    between atoms: C_5  and  C_6
REMARK    6  A    between atoms: C_6  and  C_7
REMARK    7  A    between atoms: C_7  and  C_8
REMARK    8  A    between atoms: C_7  and  C_9
REMARK    9  A    between atoms: C_11  and  C_13
REMARK   10  A    between atoms: C_18  and  C_20
REMARK   11  A    between atoms: N_22  and  C_23
REMARK   12  A    between atoms: C_23  and  C_24
REMARK   13  A    between atoms: C_24  and  C_25
REMARK                            x       y       z     vdW  Elec       q    Type
REMARK                         _______ _______ _______ _____ _____    ______ ____
ROOT
ATOM      1  C   UNL     1       0.712  -1.094  -3.598  0.00  0.00    +0.068 C 
ATOM      2  C   UNL     1       1.236  -2.531  -3.389  0.00  0.00    -0.069 C 
ATOM      3  N   UNL     1       0.174  -3.403  -3.953  0.00  0.00    +0.380 N 
ATOM      4  C   UNL     1      -0.274  -2.688  -5.176  0.00  0.00    -0.069 C 
ATOM      5  C   UNL     1      -0.281  -1.195  -4.775  0.00  0.00    +0.068 C 
ATOM      6  H   UNL     1       0.550  -4.308  -4.192  0.00  0.00    -0.086 HD
ATOM      7  H   UNL     1      -0.590  -3.497  -3.300  0.00  0.00    -0.086 HD
ENDROOT
BRANCH   1   9
ATOM      8  N   UNL     1       0.688  -0.476  -1.203  0.00  0.00    -0.313 N 
ATOM      9  C   UNL     1       0.006  -0.608  -2.358  0.00  0.00    +0.215 C 
ATOM     10  O   UNL     1      -1.175  -0.336  -2.400  0.00  0.00    -0.276 OA
ATOM     11  H   UNL     1       1.632  -0.695  -1.170  0.00  0.00    +0.149 HD
BRANCH   8  13
ATOM     12  C   UNL     1      -0.019   1.526   0.010  0.00  0.00    +0.028 C 
ATOM     13  C   UNL     1       0.002  -0.004   0.002  0.00  0.00    +0.070 C 
BRANCH  13  14
ATOM     14  C   UNL     1       0.742  -0.511   1.242  0.00  0.00    +0.022 C 
BRANCH  14  15
ATOM     15  C   UNL     1       0.655  -2.037   1.299  0.00  0.00    +0.002 C 
BRANCH  15  16
ATOM     16  C   UNL     1       1.395  -2.544   2.538  0.00  0.00    +0.003 C 
BRANCH  16  17
ATOM     17  C   UNL     1       1.309  -4.071   2.595  0.00  0.00    -0.017 C 
ATOM     18  C   UNL     1       2.152  -4.586   3.763  0.00  0.00    +0.007 C 
ATOM     19  C   UNL     1      -0.149  -4.492   2.794  0.00  0.00    +0.007 C 
ENDBRANCH  16  17
ENDBRANCH  15  16
ENDBRANCH  14  15
ENDBRANCH  13  14
ENDBRANCH   8  13
ENDBRANCH   1   9
BRANCH   5  20
ATOM     20  C   UNL     1       0.183  -0.339  -5.926  0.00  0.00    +0.215 C 
ATOM     21  O   UNL     1       1.210   0.298  -5.832  0.00  0.00    -0.276 OA
ATOM     22  N   UNL     1      -0.544  -0.283  -7.059  0.00  0.00    -0.315 N 
ATOM     23  H   UNL     1      -1.365  -0.794  -7.135  0.00  0.00    +0.149 HD
BRANCH  22  24
ATOM     24  C   UNL     1      -0.093   0.548  -8.178  0.00  0.00    +0.109 C 
BRANCH  24  25
ATOM     25  C   UNL     1      -1.090   0.434  -9.333  0.00  0.00    +0.055 C 
BRANCH  25  26
ATOM     26  C   UNL     1      -0.626   1.289 -10.484  0.00  0.00    -0.028 A 
ATOM     27  C   UNL     1      -1.106   2.578 -10.625  0.00  0.00    +0.005 A 
ATOM     28  C   UNL     1      -0.681   3.362 -11.680  0.00  0.00    +0.000 A 
ATOM     29  C   UNL     1       0.225   2.859 -12.595  0.00  0.00    +0.001 A 
ATOM     30  C   UNL     1       0.706   1.571 -12.455  0.00  0.00    +0.020 A 
ATOM     31  C   UNL     1       0.284   0.787 -11.396  0.00  0.00    +0.044 A 
ATOM     32 CL   UNL     1       0.893  -0.829 -11.216  0.00  0.00    -0.083 Cl
ENDBRANCH  25  26
ENDBRANCH  24  25
ENDBRANCH  22  24
ENDBRANCH   5  20
TORSDOF 10
