REMARK  Name = ZINC32101049
REMARK  5 active torsions:
REMARK  status: ('A' for Active; 'I' for Inactive)
REMARK    1  A    between atoms: C_1  and  C_2
REMARK    2  A    between atoms: C_7  and  N_8
REMARK    3  A    between atoms: C_15  and  O_17
REMARK    4  A    between atoms: N_25  and  C_28
REMARK    5  A    between atoms: C_28  and  C_29
REMARK                            x       y       z     vdW  Elec       q    Type
REMARK                         _______ _______ _______ _____ _____    ______ ____
ROOT
ATOM      1  N   UNL     1       0.168   0.117   2.335  0.00  0.00    -0.214 N 
ATOM      2  C   UNL     1       0.377  -0.365   3.581  0.00  0.00    +0.164 A 
ATOM      3  C   UNL     1       0.386   0.726   4.444  0.00  0.00    +0.036 A 
ATOM      4  C   UNL     1       0.171   1.864   3.690  0.00  0.00    +0.142 A 
ATOM      5  N   UNL     1       0.044   1.512   2.431  0.00  0.00    -0.173 NA
ATOM      6  C   UNL     1       0.609   0.551   5.920  0.00  0.00    +0.113 C 
ATOM      7  C   UNL     1       0.112  -0.835   6.330  0.00  0.00    +0.121 C 
ATOM      8  C   UNL     1       0.487  -1.875   5.312  0.00  0.00    +0.191 C 
ATOM      9  N   UNL     1       0.579  -1.633   4.039  0.00  0.00    -0.197 NA
ATOM     10  C   UNL     1       2.046   0.740   6.283  0.00  0.00    +0.012 A 
ATOM     11  C   UNL     1       2.083   1.819   7.176  0.00  0.00    +0.043 A 
ATOM     12  C   UNL     1       3.300   2.250   7.707  0.00  0.00    +0.024 A 
ATOM     13  C   UNL     1       4.442   1.570   7.312  0.00  0.00    +0.003 A 
ATOM     14  C   UNL     1       4.392   0.509   6.431  0.00  0.00    +0.020 A 
ATOM     15  C   UNL     1       3.186   0.068   5.895  0.00  0.00    +0.047 A 
ATOM     16 CL   UNL     1       3.119  -1.266   4.786  0.00  0.00    -0.083 Cl
ATOM     17  N   UNL     1       0.807   2.307   7.394  0.00  0.00    -0.266 N 
ATOM     18  C   UNL     1      -0.123   1.622   6.697  0.00  0.00    +0.236 C 
ATOM     19  O   UNL     1      -1.319   1.827   6.693  0.00  0.00    -0.274 OA
ENDROOT
BRANCH   1  26
ATOM     20  C   UNL     1      -1.979   0.628   0.538  0.00  0.00    +0.046 C 
ATOM     21  C   UNL     1      -0.937  -0.423   0.255  0.00  0.00    -0.025 A 
ATOM     22  C   UNL     1      -1.004  -1.168  -0.907  0.00  0.00    +0.005 A 
ATOM     23  C   UNL     1      -0.048  -2.132  -1.167  0.00  0.00    +0.000 A 
ATOM     24  C   UNL     1       0.978  -2.355  -0.267  0.00  0.00    +0.002 A 
ATOM     25  C   UNL     1       1.050  -1.614   0.897  0.00  0.00    +0.028 A 
ATOM     26  C   UNL     1       0.094  -0.641   1.159  0.00  0.00    +0.071 A 
ENDBRANCH   1  26
BRANCH   8  27
ATOM     27  O   UNL     1       0.741  -3.127   5.744  0.00  0.00    -0.495 OA
ATOM     28  H   UNL     1       0.976  -3.746   5.038  0.00  0.00    +0.293 HD
ENDBRANCH   8  27
BRANCH  17  29
ATOM     29  C   UNL     1       0.502   3.435   8.278  0.00  0.00    +0.140 C 
BRANCH  29  30
ATOM     30  C   UNL     1       0.554   4.719   7.491  0.00  0.00    -0.015 C 
ATOM     31  C   UNL     1      -0.478   5.525   7.485  0.00  0.00    +0.005 C 
ENDBRANCH  29  30
ENDBRANCH  17  29
TORSDOF 4
