REMARK  Name = ZINC44713593
REMARK  6 active torsions:
REMARK  status: ('A' for Active; 'I' for Inactive)
REMARK    1  A    between atoms: C_1  and  C_2
REMARK    2  A    between atoms: C_3  and  C_12
REMARK    3  A    between atoms: C_12  and  C_13
REMARK    4  A    between atoms: C_13  and  N_14
REMARK    5  A    between atoms: C_15  and  C_17
REMARK    6  A    between atoms: C_28  and  C_30
REMARK                            x       y       z     vdW  Elec       q    Type
REMARK                         _______ _______ _______ _____ _____    ______ ____
ROOT
ATOM      1  C   UNL     1       2.564   1.090  -6.476  0.00  0.00    +0.100 C 
ATOM      2  C   UNL     1       2.031  -0.016  -7.415  0.00  0.00    +0.121 C 
ATOM      3  N   UNL     1       2.848   0.112  -8.645  0.00  0.00    -0.300 N 
ATOM      4  C   UNL     1       4.214   0.406  -8.152  0.00  0.00    +0.115 C 
ATOM      5  C   UNL     1       3.998   1.363  -6.962  0.00  0.00    -0.004 C 
ATOM      6  C   UNL     1       4.132   2.813  -7.420  0.00  0.00    -0.010 C 
ATOM      7  C   UNL     1       5.580   3.076  -7.846  0.00  0.00    -0.082 C 
ATOM      8  N   UNL     1       6.479   2.813  -6.716  0.00  0.00    +0.379 N 
ATOM      9  C   UNL     1       6.412   1.395  -6.342  0.00  0.00    -0.082 C 
ATOM     10  C   UNL     1       5.000   1.060  -5.853  0.00  0.00    -0.010 C 
ATOM     11  C   UNL     1       2.440  -0.012  -9.924  0.00  0.00    +0.219 C 
ATOM     12  O   UNL     1       3.235   0.121 -10.829  0.00  0.00    -0.275 OA
ATOM     13  H   UNL     1       7.425   3.045  -6.980  0.00  0.00    -0.086 HD
ATOM     14  H   UNL     1       6.203   3.381  -5.929  0.00  0.00    -0.086 HD
ENDROOT
BRANCH  11  15
ATOM     15  C   UNL     1       0.996  -0.317 -10.228  0.00  0.00    +0.079 C 
ATOM     16  C   UNL     1       0.798  -0.416 -11.746  0.00  0.00    +0.017 C 
ATOM     17  C   UNL     1      -0.699  -0.547 -12.031  0.00  0.00    +0.027 C 
ATOM     18  C   UNL     1      -1.298  -1.619 -11.170  0.00  0.00    -0.031 C 
ATOM     19  C   UNL     1      -0.731  -2.100 -10.110  0.00  0.00    -0.030 C 
ATOM     20  C   UNL     1       0.608  -1.655  -9.596  0.00  0.00    +0.039 C 
ENDBRANCH  11  15
BRANCH   1  22
ATOM     21  N   UNL     1       2.440   1.484  -4.037  0.00  0.00    -0.315 N 
ATOM     22  C   UNL     1       2.579   0.605  -5.049  0.00  0.00    +0.218 C 
ATOM     23  O   UNL     1       2.714  -0.577  -4.812  0.00  0.00    -0.275 OA
ATOM     24  H   UNL     1       2.331   2.429  -4.227  0.00  0.00    +0.149 HD
BRANCH  21  25
ATOM     25  C   UNL     1       2.454   1.012  -2.650  0.00  0.00    +0.109 C 
BRANCH  25  26
ATOM     26  C   UNL     1       2.280   2.203  -1.705  0.00  0.00    +0.056 C 
BRANCH  26  29
ATOM     27  C   UNL     1       4.785   1.917   0.104  0.00  0.00    +0.063 C 
ATOM     28  C   UNL     1       3.371   1.591   0.511  0.00  0.00    +0.017 A 
ATOM     29  C   UNL     1       2.293   1.718  -0.278  0.00  0.00    -0.018 A 
ATOM     30  C   UNL     1       1.133   1.295   0.510  0.00  0.00    +0.003 A 
ATOM     31  C   UNL     1      -0.236   1.203   0.249  0.00  0.00    +0.010 A 
ATOM     32  C   UNL     1      -1.083   0.758   1.224  0.00  0.00    +0.001 A 
ATOM     33  C   UNL     1      -0.595   0.397   2.472  0.00  0.00    +0.002 A 
ATOM     34  C   UNL     1       0.752   0.480   2.751  0.00  0.00    +0.026 A 
ATOM     35  C   UNL     1       1.633   0.931   1.773  0.00  0.00    +0.047 A 
ATOM     36  N   UNL     1       2.997   1.117   1.739  0.00  0.00    -0.358 N 
ATOM     37  H   UNL     1       3.602   0.941   2.477  0.00  0.00    +0.166 HD
ENDBRANCH  26  29
ENDBRANCH  25  26
ENDBRANCH  21  25
ENDBRANCH   1  22
TORSDOF 5
