REMARK  Name = ZINC02113159
REMARK  4 active torsions:
REMARK  status: ('A' for Active; 'I' for Inactive)
REMARK    1  A    between atoms: C_4  and  C_7
REMARK    2  A    between atoms: C_7  and  N_8
REMARK    3  A    between atoms: C_11  and  N_14
REMARK    4  A    between atoms: C_34  and  C_36
REMARK                            x       y       z     vdW  Elec       q    Type
REMARK                         _______ _______ _______ _____ _____    ______ ____
ROOT
ATOM      1  N   UNL     1       6.237  -2.519   4.729  0.00  0.00    -0.288 N 
ATOM      2  C   UNL     1       6.300  -1.342   5.579  0.00  0.00    +0.204 C 
ATOM      3  C   UNL     1       6.535  -1.695   7.012  0.00  0.00    +0.234 C 
ATOM      4  O   UNL     1       6.628  -0.787   7.810  0.00  0.00    -0.274 OA
ATOM      5  N   UNL     1       6.649  -2.943   7.472  0.00  0.00    -0.276 N 
ATOM      6  C   UNL     1       6.473  -4.124   6.629  0.00  0.00    +0.167 C 
ATOM      7  C   UNL     1       6.310  -3.767   5.186  0.00  0.00    +0.237 C 
ATOM      8  O   UNL     1       6.244  -4.672   4.381  0.00  0.00    -0.274 OA
ATOM      9  C   UNL     1       5.240  -4.905   7.105  0.00  0.00    +0.069 C 
ATOM     10  C   UNL     1       5.287  -5.017   8.608  0.00  0.00    -0.015 A 
ATOM     11  C   UNL     1       4.564  -5.935   9.463  0.00  0.00    +0.003 A 
ATOM     12  C   UNL     1       3.644  -6.955   9.197  0.00  0.00    +0.010 A 
ATOM     13  C   UNL     1       3.148  -7.641  10.278  0.00  0.00    +0.001 A 
ATOM     14  C   UNL     1       3.532  -7.345  11.576  0.00  0.00    +0.002 A 
ATOM     15  C   UNL     1       4.438  -6.341  11.868  0.00  0.00    +0.026 A 
ATOM     16  C   UNL     1       4.959  -5.628  10.791  0.00  0.00    +0.047 A 
ATOM     17  N   UNL     1       5.853  -4.599  10.720  0.00  0.00    -0.356 N 
ATOM     18  H   UNL     1       6.287  -4.183  11.482  0.00  0.00    +0.166 HD
ATOM     19  C   UNL     1       6.046  -4.242   9.412  0.00  0.00    +0.046 A 
ATOM     20  C   UNL     1       6.964  -3.155   8.901  0.00  0.00    +0.154 C 
ENDROOT
BRANCH   1  24
ATOM     21  N   UNL     1       5.801  -0.481   1.066  0.00  0.00    +0.382 N 
ATOM     22  C   UNL     1       4.659  -1.287   1.512  0.00  0.00    -0.077 C 
ATOM     23  C   UNL     1       4.778  -1.560   3.013  0.00  0.00    +0.004 C 
ATOM     24  C   UNL     1       6.079  -2.321   3.286  0.00  0.00    +0.073 C 
ATOM     25  C   UNL     1       7.259  -1.504   2.749  0.00  0.00    +0.004 C 
ATOM     26  C   UNL     1       7.047  -1.233   1.258  0.00  0.00    -0.077 C 
ATOM     27  H   UNL     1       5.839   0.372   1.602  0.00  0.00    -0.081 HD
BRANCH  21  28
ATOM     28  C   UNL     1       5.643  -0.156  -0.358  0.00  0.00    -0.043 C 
BRANCH  28  32
ATOM     29  C   UNL     1       2.206   2.327  -0.879  0.00  0.00    +0.000 A 
ATOM     30  C   UNL     1       3.443   2.899  -0.647  0.00  0.00    +0.000 A 
ATOM     31  C   UNL     1       4.555   2.095  -0.479  0.00  0.00    +0.002 A 
ATOM     32  C   UNL     1       4.430   0.720  -0.541  0.00  0.00    -0.064 A 
ATOM     33  C   UNL     1       3.193   0.148  -0.772  0.00  0.00    +0.002 A 
ATOM     34  C   UNL     1       2.081   0.952  -0.942  0.00  0.00    +0.000 A 
ENDBRANCH  28  32
ENDBRANCH  21  28
ENDBRANCH   1  24
BRANCH  20  35
ATOM     35  C   UNL     1       6.729  -1.881   9.671  0.00  0.00    -0.021 A 
ATOM     36  C   UNL     1       5.444  -1.393   9.823  0.00  0.00    +0.006 A 
ATOM     37  C   UNL     1       5.228  -0.224  10.530  0.00  0.00    +0.000 A 
ATOM     38  C   UNL     1       6.296   0.455  11.085  0.00  0.00    +0.000 A 
ATOM     39  C   UNL     1       7.580  -0.034  10.934  0.00  0.00    +0.000 A 
ATOM     40  C   UNL     1       7.796  -1.205  10.231  0.00  0.00    +0.006 A 
ENDBRANCH  20  35
TORSDOF 4
