REMARK  Name = ZINC16676442
REMARK  7 active torsions:
REMARK  status: ('A' for Active; 'I' for Inactive)
REMARK    1  A    between atoms: C_1  and  C_2
REMARK    2  A    between atoms: C_9  and  N_15
REMARK    3  A    between atoms: C_10  and  C_11
REMARK    4  A    between atoms: C_11  and  O_13
REMARK    5  A    between atoms: O_13  and  C_14
REMARK    6  A    between atoms: C_16  and  C_18
REMARK    7  A    between atoms: C_24  and  C_26
REMARK                            x       y       z     vdW  Elec       q    Type
REMARK                         _______ _______ _______ _____ _____    ______ ____
ROOT
ATOM      1  C   UNL     1       7.750  -2.290  -0.035  0.00  0.00    +0.008 C 
ATOM      2  C   UNL     1       6.742  -1.171   0.232  0.00  0.00    -0.009 C 
ATOM      3  C   UNL     1       7.043   0.020  -0.681  0.00  0.00    +0.008 C 
ATOM      4  C   UNL     1       6.207   1.228  -0.253  0.00  0.00    +0.037 C 
ATOM      5  C   UNL     1       4.745   0.809  -0.170  0.00  0.00    -0.021 A 
ATOM      6  C   UNL     1       4.399  -0.494  -0.087  0.00  0.00    -0.004 A 
ATOM      7  S   UNL     1       2.630  -0.489  -0.014  0.00  0.00    -0.077 S 
ATOM      8  C   UNL     1       2.351   1.219  -0.091  0.00  0.00    +0.086 A 
ATOM      9  C   UNL     1       3.634   1.745  -0.178  0.00  0.00    +0.091 A 
ATOM     10  C   UNL     1       5.321  -1.674  -0.062  0.00  0.00    +0.046 C 
ENDROOT
BRANCH   8  11
ATOM     11  N   UNL     1       1.142   1.896  -0.076  0.00  0.00    -0.279 N 
ATOM     12  C   UNL     1      -0.014   1.209   0.009  0.00  0.00    +0.222 C 
ATOM     13  O   UNL     1       0.004  -0.002   0.072  0.00  0.00    -0.275 OA
ATOM     14  H   UNL     1       1.127   2.865  -0.126  0.00  0.00    +0.155 HD
BRANCH  12  15
ATOM     15  C   UNL     1      -1.330   1.944   0.019  0.00  0.00    +0.093 C 
ATOM     16  C   UNL     1      -2.359   1.170  -0.807  0.00  0.00    +0.040 C 
ATOM     17  C   UNL     1      -2.746  -0.095  -0.097  0.00  0.00    -0.030 C 
ATOM     18  C   UNL     1      -2.529  -0.316   1.160  0.00  0.00    -0.030 C 
ATOM     19  C   UNL     1      -1.851   0.657   2.080  0.00  0.00    +0.042 C 
ATOM     20  C   UNL     1      -1.845   2.060   1.459  0.00  0.00    +0.118 C 
BRANCH  20  21
ATOM     21  C   UNL     1      -0.938   2.968   2.250  0.00  0.00    +0.360 C 
ATOM     22  O   UNL     1       0.023   3.473   1.720  0.00  0.00    -0.246 OA
ATOM     23  O   UNL     1      -1.198   3.215   3.543  0.00  0.00    -0.246 OA
ENDBRANCH  20  21
ENDBRANCH  12  15
ENDBRANCH   8  11
BRANCH   9  24
ATOM     24  C   UNL     1       3.858   3.189  -0.271  0.00  0.00    +0.342 C 
ATOM     25  O   UNL     1       3.998   3.849   0.742  0.00  0.00    -0.245 OA
BRANCH  24  26
ATOM     26  O   UNL     1       3.909   3.788  -1.478  0.00  0.00    -0.464 OA
ATOM     27  C   UNL     1       4.134   5.222  -1.494  0.00  0.00    +0.280 C 
ENDBRANCH  24  26
ENDBRANCH   9  24
TORSDOF 5
