REMARK  Name = ZINC23581990
REMARK  8 active torsions:
REMARK  status: ('A' for Active; 'I' for Inactive)
REMARK    1  A    between atoms: C_1  and  C_2
REMARK    2  A    between atoms: C_6  and  C_8
REMARK    3  A    between atoms: C_12  and  N_14
REMARK    4  A    between atoms: C_17  and  N_20
REMARK    5  A    between atoms: N_20  and  C_21
REMARK    6  A    between atoms: C_21  and  C_23
REMARK    7  A    between atoms: C_21  and  C_24
REMARK    8  A    between atoms: N_28  and  C_29
REMARK                            x       y       z     vdW  Elec       q    Type
REMARK                         _______ _______ _______ _____ _____    ______ ____
ROOT
ATOM      1  N   UNL     1       2.571   1.251   0.347  0.00  0.00    -0.330 N 
ATOM      2  C   UNL     1       2.506   0.363  -0.820  0.00  0.00    +0.103 C 
ATOM      3  C   UNL     1       3.749  -0.529  -0.855  0.00  0.00    +0.003 C 
ATOM      4  C   UNL     1       5.000   0.351  -0.928  0.00  0.00    -0.068 C 
ATOM      5  C   UNL     1       5.019   1.300   0.273  0.00  0.00    +0.003 C 
ATOM      6  C   UNL     1       3.739   2.138   0.275  0.00  0.00    +0.103 C 
ENDROOT
BRANCH   1  11
ATOM      7  C   UNL     1      -1.002   2.069   0.700  0.00  0.00    +0.002 A 
ATOM      8  C   UNL     1      -0.944   3.461   0.755  0.00  0.00    +0.010 A 
ATOM      9  C   UNL     1       0.274   4.105   0.668  0.00  0.00    +0.002 A 
ATOM     10  C   UNL     1       1.439   3.374   0.533  0.00  0.00    +0.023 A 
ATOM     11  C   UNL     1       1.391   1.986   0.483  0.00  0.00    +0.030 A 
ATOM     12  C   UNL     1       0.172   1.331   0.569  0.00  0.00    +0.033 A 
BRANCH   7  18
ATOM     13  C   UNL     1      -3.568  -2.077   0.762  0.00  0.00    +0.088 C 
ATOM     14  C   UNL     1      -3.536  -0.572   0.818  0.00  0.00    +0.127 A 
ATOM     15  N   UNL     1      -4.671   0.089   0.943  0.00  0.00    -0.241 NA
ATOM     16  C   UNL     1      -4.688   1.412   0.996  0.00  0.00    +0.115 A 
ATOM     17  C   UNL     1      -3.494   2.106   0.924  0.00  0.00    +0.048 A 
ATOM     18  C   UNL     1      -2.311   1.376   0.787  0.00  0.00    +0.075 A 
ATOM     19  N   UNL     1      -2.377   0.046   0.741  0.00  0.00    -0.232 NA
ENDBRANCH   7  18
ENDBRANCH   1  11
BRANCH   4  20
ATOM     20  N   UNL     1       6.199  -0.497  -0.903  0.00  0.00    +0.387 N 
ATOM     21  H   UNL     1       6.478  -0.707   0.140  0.00  0.00    -0.085 HD
ATOM     22  H   UNL     1       5.990  -1.443  -1.424  0.00  0.00    -0.085 HD
BRANCH  20  23
ATOM     23  C   UNL     1       7.329   0.167  -1.568  0.00  0.00    -0.005 C 
ATOM     24  C   UNL     1       7.273  -0.115  -3.071  0.00  0.00    -0.006 C 
BRANCH  23  25
ATOM     25  C   UNL     1       8.623  -0.360  -1.006  0.00  0.00    +0.119 A 
ATOM     26  N   UNL     1       8.914  -1.612  -0.775  0.00  0.00    -0.136 NA
ATOM     27  N   UNL     1      10.105  -1.699  -0.298  0.00  0.00    -0.138 NA
ATOM     28  C   UNL     1      10.625  -0.506  -0.194  0.00  0.00    +0.224 A 
ATOM     29  N   UNL     1       9.700   0.377  -0.640  0.00  0.00    -0.322 N 
ATOM     30  C   UNL     1       9.835   1.834  -0.713  0.00  0.00    +0.151 C 
ENDBRANCH  23  25
ENDBRANCH  20  23
ENDBRANCH   4  20
TORSDOF 5
