REMARK  Name = ZINC66983348
REMARK  5 active torsions:
REMARK  status: ('A' for Active; 'I' for Inactive)
REMARK    1  A    between atoms: C_1  and  C_2
REMARK    2  A    between atoms: C_12  and  C_14
REMARK    3  A    between atoms: N_16  and  C_17
REMARK    4  A    between atoms: C_17  and  C_19
REMARK    5  A    between atoms: C_17  and  C_20
REMARK                            x       y       z     vdW  Elec       q    Type
REMARK                         _______ _______ _______ _____ _____    ______ ____
ROOT
ATOM      1  C   UNL     1       0.730   2.062   3.667  0.00  0.00    +0.300 C 
ATOM      2  O   UNL     1       0.775   1.449   4.713  0.00  0.00    -0.265 OA
ATOM      3  N   UNL     1       0.887   3.401   3.664  0.00  0.00    -0.298 N 
ATOM      4  H   UNL     1       0.850   3.891   2.827  0.00  0.00    +0.150 HD
ENDROOT
BRANCH   1  16
ATOM      5  C   UNL     1      -1.462   1.504   0.950  0.00  0.00    +0.046 C 
ATOM      6  C   UNL     1      -1.296   0.024   0.719  0.00  0.00    -0.026 A 
ATOM      7  C   UNL     1      -2.084  -0.620  -0.214  0.00  0.00    +0.043 A 
ATOM      8  C   UNL     1      -1.930  -1.980  -0.425  0.00  0.00    +0.124 A 
ATOM      9  C   UNL     1      -0.990  -2.693   0.298  0.00  0.00    +0.043 A 
ATOM     10  C   UNL     1      -0.198  -2.053   1.236  0.00  0.00    -0.023 A 
ATOM     11  C   UNL     1      -0.346  -0.689   1.441  0.00  0.00    +0.043 A 
ATOM     12  N   UNL     1       0.452  -0.013   2.372  0.00  0.00    -0.263 N 
ATOM     13  C   UNL     1       1.237  -0.796   3.337  0.00  0.00    +0.114 C 
ATOM     14  C   UNL     1       1.906  -1.946   2.572  0.00  0.00    +0.024 C 
ATOM     15  C   UNL     1       0.812  -2.860   2.009  0.00  0.00    +0.038 C 
ATOM     16  C   UNL     1       0.499   1.334   2.384  0.00  0.00    +0.306 C 
ATOM     17  O   UNL     1       0.355   1.955   1.351  0.00  0.00    -0.265 OA
ATOM     18  F   UNL     1      -2.699  -2.612  -1.338  0.00  0.00    -0.205 F 
ENDBRANCH   1  16
BRANCH   3  19
ATOM     19  C   UNL     1       1.112   4.115   4.923  0.00  0.00    +0.139 C 
ATOM     20  C   UNL     1       2.603   4.088   5.264  0.00  0.00    +0.036 C 
BRANCH  19  21
ATOM     21  C   UNL     1       0.656   5.544   4.778  0.00  0.00    +0.158 A 
ATOM     22  N   UNL     1       0.897   6.334   3.764  0.00  0.00    -0.132 NA
ATOM     23  N   UNL     1       0.362   7.488   3.960  0.00  0.00    -0.129 NA
ATOM     24  C   UNL     1      -0.257   7.494   5.129  0.00  0.00    +0.161 A 
ATOM     25  N   UNL     1      -0.087   6.246   5.676  0.00  0.00    -0.285 N 
ATOM     26  C   UNL     1      -0.625   5.945   6.893  0.00  0.00    +0.094 A 
ATOM     27  C   UNL     1      -1.335   6.868   7.575  0.00  0.00    +0.018 A 
ATOM     28  C   UNL     1      -1.530   8.153   7.040  0.00  0.00    +0.005 A 
ATOM     29  C   UNL     1      -0.992   8.469   5.831  0.00  0.00    +0.048 A 
ENDBRANCH  19  21
ENDBRANCH   3  19
TORSDOF 3
