REMARK  Name = ZINC27754092
REMARK  5 active torsions:
REMARK  status: ('A' for Active; 'I' for Inactive)
REMARK    1  A    between atoms: C_6  and  C_7
REMARK    2  A    between atoms: C_7  and  O_31
REMARK    3  A    between atoms: C_8  and  C_25
REMARK    4  A    between atoms: C_10  and  C_16
REMARK    5  A    between atoms: C_25  and  C_27
REMARK                            x       y       z     vdW  Elec       q    Type
REMARK                         _______ _______ _______ _____ _____    ______ ____
ROOT
ATOM      1  C   UNL     1      -4.457   0.252  -1.354  0.00  0.00    +0.172 C 
ATOM      2  C   UNL     1      -3.089   0.941  -1.401  0.00  0.00    +0.144 C 
ATOM      3  C   UNL     1      -2.513   0.977   0.019  0.00  0.00    +0.120 C 
ATOM      4  N   UNL     1      -3.472   1.630   0.911  0.00  0.00    -0.292 N 
ATOM      5  C   UNL     1      -4.792   1.580   0.673  0.00  0.00    +0.302 C 
ATOM      6  O   UNL     1      -5.546   2.131   1.451  0.00  0.00    -0.253 OA
ATOM      7  N   UNL     1      -5.311   0.945  -0.388  0.00  0.00    -0.267 N 
ATOM      8  H   UNL     1      -3.115   2.175   1.798  0.00  0.00    +0.151 HD
ATOM      9  H   UNL     1      -6.403   0.952  -0.525  0.00  0.00    +0.153 HD
ENDROOT
BRANCH   3  10
ATOM     10  C   UNL     1      -1.219   1.750   0.017  0.00  0.00    -0.023 A 
ATOM     11  C   UNL     1      -1.242   3.133   0.033  0.00  0.00    +0.009 A 
ATOM     12  C   UNL     1      -0.058   3.846   0.024  0.00  0.00    +0.050 A 
ATOM     13  C   UNL     1       1.155   3.177   0.008  0.00  0.00    +0.166 A 
ATOM     14  C   UNL     1       1.178   1.784   0.000  0.00  0.00    +0.167 A 
ATOM     15  C   UNL     1      -0.013   1.076   0.008  0.00  0.00    +0.055 A 
ATOM     16  O   UNL     1       2.478   1.369  -0.015  0.00  0.00    -0.453 OA
ATOM     17  C   UNL     1       3.243   2.517  -0.428  0.00  0.00    +0.466 C 
ATOM     18  O   UNL     1       2.441   3.634  -0.002  0.00  0.00    -0.453 OA
ENDBRANCH   3  10
BRANCH   1  24
ATOM     19  C   UNL     1      -5.906   1.368  -3.063  0.00  0.00    +0.009 A 
ATOM     20  C   UNL     1      -6.486   1.418  -4.316  0.00  0.00    +0.020 A 
ATOM     21  C   UNL     1      -6.263   0.397  -5.223  0.00  0.00    +0.041 A 
ATOM     22  C   UNL     1      -5.454  -0.670  -4.877  0.00  0.00    +0.020 A 
ATOM     23  C   UNL     1      -4.870  -0.717  -3.625  0.00  0.00    +0.009 A 
ATOM     24  C   UNL     1      -5.094   0.303  -2.719  0.00  0.00    +0.003 A 
ATOM     25 CL   UNL     1      -6.997   0.455  -6.795  0.00  0.00    -0.084 Cl
ENDBRANCH   1  24
BRANCH   2  26
ATOM     26  C   UNL     1      -3.248   2.347  -1.919  0.00  0.00    +0.245 C 
ATOM     27  O   UNL     1      -4.280   2.946  -1.734  0.00  0.00    -0.287 OA
BRANCH  26  28
ATOM     28  C   UNL     1      -2.119   3.006  -2.667  0.00  0.00    +0.451 C 
ATOM     29  F   UNL     1      -1.721   4.163  -1.988  0.00  0.00    -0.163 F 
ATOM     30  F   UNL     1      -1.038   2.122  -2.754  0.00  0.00    -0.163 F 
ATOM     31  F   UNL     1      -2.548   3.345  -3.955  0.00  0.00    -0.163 F 
ENDBRANCH  26  28
ENDBRANCH   2  26
BRANCH   1  32
ATOM     32  O   UNL     1      -4.293  -1.110  -0.955  0.00  0.00    -0.367 OA
ATOM     33  H   UNL     1      -3.841  -1.347   0.020  0.00  0.00    +0.212 HD
ENDBRANCH   1  32
TORSDOF 5
