REMARK  Name = ZINC57930609
REMARK  7 active torsions:
REMARK  status: ('A' for Active; 'I' for Inactive)
REMARK    1  A    between atoms: C_1  and  C_2
REMARK    2  A    between atoms: C_2  and  C_3
REMARK    3  A    between atoms: N_7  and  C_17
REMARK    4  A    between atoms: C_10  and  C_16
REMARK    5  A    between atoms: C_11  and  C_15
REMARK    6  A    between atoms: C_17  and  C_18
REMARK    7  A    between atoms: C_17  and  C_19
REMARK                            x       y       z     vdW  Elec       q    Type
REMARK                         _______ _______ _______ _____ _____    ______ ____
ROOT
ATOM      1  C   UNL     1       0.756  -0.502  -1.308  0.00  0.00    +0.157 C 
ATOM      2  C   UNL     1       0.875  -2.005  -1.264  0.00  0.00    +0.240 C 
ATOM      3  O   UNL     1       1.882  -2.514  -0.821  0.00  0.00    -0.273 OA
ATOM      4  N   UNL     1      -0.126  -2.786  -1.709  0.00  0.00    -0.266 N 
ATOM      5  C   UNL     1      -1.238  -2.232  -2.353  0.00  0.00    +0.058 A 
ATOM      6  C   UNL     1      -2.353  -3.007  -2.628  0.00  0.00    +0.029 A 
ATOM      7  C   UNL     1      -3.447  -2.442  -3.257  0.00  0.00    -0.046 A 
ATOM      8  C   UNL     1      -3.436  -1.106  -3.613  0.00  0.00    -0.046 A 
ATOM      9  C   UNL     1      -2.326  -0.325  -3.345  0.00  0.00    +0.028 A 
ATOM     10  C   UNL     1      -1.226  -0.886  -2.719  0.00  0.00    +0.050 A 
ATOM     11  N   UNL     1      -0.079  -0.120  -2.456  0.00  0.00    -0.331 N 
ATOM     12  C   UNL     1      -4.635  -0.499  -4.295  0.00  0.00    +0.044 C 
ATOM     13  C   UNL     1      -4.659  -3.287  -3.556  0.00  0.00    +0.044 C 
ATOM     14  H   UNL     1       0.156   0.639  -3.013  0.00  0.00    +0.147 HD
ENDROOT
BRANCH   4  15
ATOM     15  C   UNL     1      -0.050  -4.237  -1.517  0.00  0.00    +0.075 C 
ATOM     16  C   UNL     1       1.167  -4.787  -2.264  0.00  0.00    +0.028 C 
ATOM     17  C   UNL     1       0.083  -4.548  -0.025  0.00  0.00    +0.028 C 
ENDBRANCH   4  15
BRANCH   1  19
ATOM     18  C   UNL     1       0.101   1.529  -0.010  0.00  0.00    +0.006 C 
ATOM     19  C   UNL     1       0.111  -0.001  -0.015  0.00  0.00    +0.028 C 
ENDBRANCH   1  19
TORSDOF 2
