REMARK  Name = ZINC39722433
REMARK  6 active torsions:
REMARK  status: ('A' for Active; 'I' for Inactive)
REMARK    1  A    between atoms: C_5  and  C_7
REMARK    2  A    between atoms: C_11  and  S_17
REMARK    3  A    between atoms: N_13  and  C_14
REMARK    4  A    between atoms: S_17  and  C_18
REMARK    5  A    between atoms: C_18  and  C_19
REMARK    6  A    between atoms: C_27  and  C_31
REMARK                            x       y       z     vdW  Elec       q    Type
REMARK                         _______ _______ _______ _____ _____    ______ ____
ROOT
ATOM      1  S   UNL     1      -0.312  -4.128   2.917  0.00  0.00    -0.109 S 
ENDROOT
BRANCH   1   5
ATOM      2  C   UNL     1       1.228  -2.186  -0.022  0.00  0.00    +0.234 C 
ATOM      3  N   UNL     1       2.328  -2.688   0.811  0.00  0.00    -0.166 NA
ATOM      4  N   UNL     1       1.953  -3.615   1.535  0.00  0.00    -0.160 NA
ATOM      5  C   UNL     1       0.530  -3.912   1.325  0.00  0.00    +0.259 C 
ATOM      6  N   UNL     1      -0.004  -2.723   0.610  0.00  0.00    -0.241 NA
BRANCH   2  11
ATOM      7  C   UNL     1      -0.017   1.378   0.010  0.00  0.00    +0.001 A 
ATOM      8  C   UNL     1       1.171   2.087   0.002  0.00  0.00    +0.003 A 
ATOM      9  C   UNL     1       2.377   1.414  -0.013  0.00  0.00    +0.039 A 
ATOM     10  C   UNL     1       2.397   0.029  -0.021  0.00  0.00    +0.130 A 
ATOM     11  C   UNL     1       1.208  -0.679  -0.013  0.00  0.00    +0.028 A 
ATOM     12  C   UNL     1       0.002  -0.004   0.002  0.00  0.00    +0.010 A 
ATOM     13  F   UNL     1       3.577  -0.630  -0.036  0.00  0.00    -0.205 F 
ENDBRANCH   2  11
BRANCH   6  14
ATOM     14  C   UNL     1      -0.988  -3.116  -0.407  0.00  0.00    +0.062 C 
ATOM     15  C   UNL     1      -2.267  -2.283  -0.512  0.00  0.00    +0.020 C 
ATOM     16  C   UNL     1      -2.318  -3.692   0.082  0.00  0.00    +0.020 C 
ENDBRANCH   6  14
ENDBRANCH   1   5
BRANCH   1  17
ATOM     17  C   UNL     1      -0.036  -2.555   3.776  0.00  0.00    +0.146 C 
BRANCH  17  18
ATOM     18  C   UNL     1      -0.694  -2.601   5.131  0.00  0.00    +0.120 A 
ATOM     19  N   UNL     1      -0.603  -1.505   5.929  0.00  0.00    -0.310 N 
ATOM     20  H   UNL     1      -0.122  -0.722   5.618  0.00  0.00    +0.170 HD
ATOM     21  C   UNL     1      -1.176  -1.496   7.155  0.00  0.00    +0.259 A 
ATOM     22  O   UNL     1      -1.103  -0.521   7.880  0.00  0.00    -0.267 OA
ATOM     23  C   UNL     1      -1.894  -2.711   7.577  0.00  0.00    +0.065 A 
ATOM     24  C   UNL     1      -2.518  -2.800   8.820  0.00  0.00    +0.016 A 
ATOM     25  C   UNL     1      -3.174  -3.946   9.171  0.00  0.00    +0.016 A 
ATOM     26  C   UNL     1      -3.224  -5.036   8.292  0.00  0.00    +0.065 A 
ATOM     27  C   UNL     1      -2.607  -4.967   7.048  0.00  0.00    +0.043 A 
ATOM     28  C   UNL     1      -1.935  -3.800   6.679  0.00  0.00    +0.079 A 
ATOM     29  N   UNL     1      -1.323  -3.683   5.474  0.00  0.00    -0.233 NA
BRANCH  26  30
ATOM     30  C   UNL     1      -3.938  -6.268   8.690  0.00  0.00    +0.387 C 
ATOM     31  O   UNL     1      -4.482  -6.333   9.783  0.00  0.00    -0.241 OA
ATOM     32  O   UNL     1      -3.985  -7.221   7.926  0.00  0.00    -0.241 OA
ENDBRANCH  26  30
ENDBRANCH  17  18
ENDBRANCH   1  17
TORSDOF 6
