REMARK  Name = ZINC06166231
REMARK  5 active torsions:
REMARK  status: ('A' for Active; 'I' for Inactive)
REMARK    1  A    between atoms: C_1  and  C_2
REMARK    2  A    between atoms: N_12  and  N_13
REMARK    3  A    between atoms: C_14  and  C_16
REMARK    4  A    between atoms: C_16  and  N_17
REMARK    5  A    between atoms: C_28  and  C_32
REMARK                            x       y       z     vdW  Elec       q    Type
REMARK                         _______ _______ _______ _____ _____    ______ ____
ROOT
ATOM      1  N   UNL     1       0.077  -4.029   4.412  0.00  0.00    -0.205 N 
ATOM      2  C   UNL     1       0.096  -5.296   4.872  0.00  0.00    +0.252 C 
ATOM      3  O   UNL     1       0.104  -6.224   4.091  0.00  0.00    -0.272 OA
ATOM      4  H   UNL     1       0.071  -3.287   5.037  0.00  0.00    +0.177 HD
ENDROOT
BRANCH   1  16
ATOM      5  C   UNL     1      -0.018   1.503   0.010  0.00  0.00    +0.045 C 
ATOM      6  C   UNL     1       0.002  -0.004   0.002  0.00  0.00    -0.029 A 
ATOM      7  C   UNL     1       0.006  -0.686  -1.198  0.00  0.00    +0.005 A 
ATOM      8  C   UNL     1       0.025  -2.070  -1.222  0.00  0.00    +0.001 A 
ATOM      9  C   UNL     1       0.040  -2.783  -0.040  0.00  0.00    +0.012 A 
ATOM     10  C   UNL     1       0.036  -2.105   1.174  0.00  0.00    +0.028 A 
ATOM     11  C   UNL     1       0.023  -0.704   1.203  0.00  0.00    +0.046 A 
ATOM     12  N   UNL     1       0.029  -0.272   2.525  0.00  0.00    -0.279 N 
ATOM     13  C   UNL     1       0.050  -1.307   3.381  0.00  0.00    +0.269 C 
ATOM     14  O   UNL     1       0.059  -1.232   4.595  0.00  0.00    -0.268 OA
ATOM     15  C   UNL     1       0.049  -2.553   2.586  0.00  0.00    +0.153 C 
ATOM     16  N   UNL     1       0.067  -3.784   3.033  0.00  0.00    -0.174 NA
ATOM     17  H   UNL     1       0.018   0.660   2.794  0.00  0.00    +0.155 HD
ENDBRANCH   1  16
BRANCH   2  18
ATOM     18  C   UNL     1       0.107  -5.559   6.356  0.00  0.00    +0.223 C 
BRANCH  18  19
ATOM     19  N   UNL     1       0.127  -7.005   6.595  0.00  0.00    -0.290 N 
ATOM     20  C   UNL     1      -1.048  -7.677   6.704  0.00  0.00    +0.203 A 
ATOM     21  N   UNL     1      -1.073  -8.966   6.917  0.00  0.00    -0.230 NA
ATOM     22  C   UNL     1       0.056  -9.660   7.034  0.00  0.00    +0.116 A 
ATOM     23  C   UNL     1       1.317  -9.053   6.936  0.00  0.00    +0.076 A 
ATOM     24  C   UNL     1       1.309  -7.640   6.697  0.00  0.00    +0.263 A 
ATOM     25  O   UNL     1       2.355  -7.023   6.592  0.00  0.00    -0.267 OA
ATOM     26  C   UNL     1       2.469  -9.942   7.083  0.00  0.00    -0.023 A 
ATOM     27  C   UNL     1       2.210 -11.249   7.299  0.00  0.00    -0.004 A 
ATOM     28  S   UNL     1       0.441 -11.370   7.317  0.00  0.00    -0.073 S 
ATOM     29  C   UNL     1       3.205 -12.354   7.483  0.00  0.00    +0.046 C 
ATOM     30  C   UNL     1       4.579 -11.726   7.760  0.00  0.00    -0.009 C 
ATOM     31  C   UNL     1       4.832 -10.622   6.729  0.00  0.00    +0.008 C 
ATOM     32  C   UNL     1       3.907  -9.436   7.000  0.00  0.00    +0.037 C 
ATOM     33  C   UNL     1       5.665 -12.798   7.646  0.00  0.00    +0.008 C 
ENDBRANCH  18  19
ENDBRANCH   2  18
TORSDOF 3
