REMARK  Name = ZINC05345855
REMARK  6 active torsions:
REMARK  status: ('A' for Active; 'I' for Inactive)
REMARK    1  A    between atoms: C_1  and  C_2
REMARK    2  A    between atoms: C_2  and  C_3
REMARK    3  A    between atoms: C_3  and  C_5
REMARK    4  A    between atoms: C_3  and  N_6
REMARK    5  A    between atoms: C_11  and  C_27
REMARK    6  A    between atoms: C_27  and  C_28
REMARK                            x       y       z     vdW  Elec       q    Type
REMARK                         _______ _______ _______ _____ _____    ______ ____
ROOT
ATOM      1  N   UNL     1       1.346   1.674   2.558  0.00  0.00    -0.239 N 
ATOM      2  C   UNL     1       1.541   2.996   2.626  0.00  0.00    +0.224 C 
ATOM      3  O   UNL     1       0.665   3.834   2.647  0.00  0.00    -0.275 OA
ATOM      4  C   UNL     1       3.024   3.283   2.672  0.00  0.00    +0.073 C 
ATOM      5  C   UNL     1       3.448   3.993   1.368  0.00  0.00    -0.049 C 
ATOM      6  C   UNL     1       4.414   1.851   1.263  0.00  0.00    +0.050 C 
ATOM      7  C   UNL     1       3.666   1.869   2.602  0.00  0.00    +0.088 C 
ATOM      8  C   UNL     1       2.469   0.947   2.549  0.00  0.00    +0.225 C 
ATOM      9  O   UNL     1       2.518  -0.263   2.501  0.00  0.00    -0.275 OA
ATOM     10  C   UNL     1       4.360   0.495   0.619  0.00  0.00    -0.028 A 
ATOM     11  C   UNL     1       3.329  -0.314   0.198  0.00  0.00    +0.004 A 
ATOM     12  C   UNL     1       3.603  -1.543  -0.376  0.00  0.00    +0.000 A 
ATOM     13  C   UNL     1       4.915  -1.956  -0.524  0.00  0.00    +0.002 A 
ATOM     14  C   UNL     1       5.951  -1.149  -0.103  0.00  0.00    +0.023 A 
ATOM     15  C   UNL     1       5.684   0.090   0.474  0.00  0.00    +0.036 A 
ATOM     16  N   UNL     1       6.546   1.071   0.969  0.00  0.00    -0.286 N 
ATOM     17  C   UNL     1       5.879   2.138   1.450  0.00  0.00    +0.211 C 
ATOM     18  O   UNL     1       6.365   3.137   1.937  0.00  0.00    -0.277 OA
ATOM     19  H   UNL     1       7.513   0.993   0.967  0.00  0.00    +0.155 HD
ATOM     20  N   UNL     1       3.773   2.877   0.457  0.00  0.00    +0.394 N 
ATOM     21  H   UNL     1       4.412   3.198  -0.281  0.00  0.00    -0.083 HD
ATOM     22  H   UNL     1       2.916   2.508   0.030  0.00  0.00    -0.083 HD
ENDROOT
BRANCH   1  23
ATOM     23  C   UNL     1       0.011   1.072   2.506  0.00  0.00    +0.081 C 
ATOM     24  C   UNL     1      -0.772   1.460   3.762  0.00  0.00    +0.028 C 
BRANCH  23  26
ATOM     25  C   UNL     1      -0.013   1.086   0.008  0.00  0.00    +0.006 C 
ATOM     26  C   UNL     1      -0.729   1.579   1.267  0.00  0.00    +0.019 C 
ENDBRANCH  23  26
ENDBRANCH   1  23
BRANCH   5  27
ATOM     27  C   UNL     1       2.307   4.865   0.842  0.00  0.00    +0.080 C 
BRANCH  27  28
ATOM     28  C   UNL     1       2.780   5.642  -0.359  0.00  0.00    +0.209 C 
ATOM     29  O   UNL     1       3.919   5.510  -0.756  0.00  0.00    -0.276 OA
ATOM     30  N   UNL     1       1.939   6.483  -0.993  0.00  0.00    -0.329 N 
ATOM     31  H   UNL     1       1.029   6.588  -0.675  0.00  0.00    +0.145 HD
ATOM     32  H   UNL     1       2.244   6.983  -1.766  0.00  0.00    +0.145 HD
ENDBRANCH  27  28
ENDBRANCH   5  27
TORSDOF 4
