REMARK  Name = ZINC67371745
REMARK  2 active torsions:
REMARK  status: ('A' for Active; 'I' for Inactive)
REMARK    1  A    between atoms: C_1  and  C_2
REMARK    2  A    between atoms: C_5  and  N_13
REMARK                            x       y       z     vdW  Elec       q    Type
REMARK                         _______ _______ _______ _____ _____    ______ ____
ROOT
ATOM      1  C   UNL     1      -0.019   1.526   0.010  0.00  0.00    +0.012 C 
ATOM      2  C   UNL     1       0.002  -0.004   0.002  0.00  0.00    +0.018 C 
ATOM      3  C   UNL     1       0.751  -0.523  -1.244  0.00  0.00    +0.035 C 
ATOM      4  C   UNL     1       1.445  -1.793  -0.709  0.00  0.00    +0.104 C 
ATOM      5  C   UNL     1       1.620  -1.553   0.776  0.00  0.00    -0.024 A 
ATOM      6  C   UNL     1       0.789  -0.525   1.185  0.00  0.00    -0.040 A 
ATOM      7  C   UNL     1       0.779  -0.132   2.513  0.00  0.00    +0.004 A 
ATOM      8  C   UNL     1       1.597  -0.763   3.431  0.00  0.00    +0.000 A 
ATOM      9  C   UNL     1       2.426  -1.790   3.024  0.00  0.00    +0.000 A 
ATOM     10  C   UNL     1       2.440  -2.184   1.696  0.00  0.00    +0.006 A 
ENDROOT
BRANCH   4  11
ATOM     11  N   UNL     1       2.748  -1.972  -1.354  0.00  0.00    -0.307 N 
ATOM     12  C   UNL     1       3.307  -3.235  -1.446  0.00  0.00    +0.216 A 
ATOM     13  N   UNL     1       2.649  -4.271  -0.950  0.00  0.00    -0.222 NA
ATOM     14  C   UNL     1       3.155  -5.491  -1.021  0.00  0.00    +0.131 A 
ATOM     15  C   UNL     1       4.390  -5.677  -1.625  0.00  0.00    +0.054 A 
ATOM     16  C   UNL     1       5.052  -4.569  -2.133  0.00  0.00    +0.131 A 
ATOM     17  N   UNL     1       4.486  -3.378  -2.034  0.00  0.00    -0.222 NA
ATOM     18 BR   UNL     1       5.155  -7.402  -1.750  0.00  0.00    -0.047 Br
ATOM     19  H   UNL     1       3.218  -1.205  -1.717  0.00  0.00    +0.150 HD
ENDBRANCH   4  11
TORSDOF 1
