REMARK  Name = ZINC18284342
REMARK  3 active torsions:
REMARK  status: ('A' for Active; 'I' for Inactive)
REMARK    1  A    between atoms: C_1  and  N_2
REMARK    2  A    between atoms: C_13  and  C_16
REMARK    3  A    between atoms: C_19  and  C_21
REMARK                            x       y       z     vdW  Elec       q    Type
REMARK                         _______ _______ _______ _____ _____    ______ ____
ROOT
ATOM      1  C   UNL     1      -0.018   1.465   0.010  0.00  0.00    -0.096 C 
ATOM      2  N   UNL     1       0.002  -0.004   0.002  0.00  0.00    +0.381 N 
ATOM      3  C   UNL     1      -1.376  -0.512   0.009  0.00  0.00    -0.074 C 
ATOM      4  C   UNL     1      -1.389  -2.010  -0.312  0.00  0.00    +0.018 C 
ATOM      5  C   UNL     1      -0.410  -2.699   0.630  0.00  0.00    -0.027 A 
ATOM      6  C   UNL     1       0.520  -1.972   1.290  0.00  0.00    -0.021 A 
ATOM      7  S   UNL     1       1.419  -3.155   2.253  0.00  0.00    -0.080 S 
ATOM      8  C   UNL     1       0.613  -4.537   1.813  0.00  0.00    +0.080 A 
ATOM      9  C   UNL     1      -0.372  -4.123   0.903  0.00  0.00    +0.068 A 
ATOM     10  C   UNL     1      -1.252  -5.164   0.322  0.00  0.00    +0.248 C 
ATOM     11  O   UNL     1      -2.004  -4.913  -0.602  0.00  0.00    -0.270 OA
ATOM     12  N   UNL     1      -1.183  -6.401   0.857  0.00  0.00    -0.287 N 
ATOM     13  C   UNL     1      -0.419  -6.717   2.059  0.00  0.00    +0.227 C 
ATOM     14  N   UNL     1       0.767  -5.851   2.184  0.00  0.00    -0.314 N 
ATOM     15  C   UNL     1       0.715  -0.492   1.197  0.00  0.00    -0.036 C 
ATOM     16  H   UNL     1      -1.668  -7.118   0.419  0.00  0.00    +0.151 HD
ATOM     17  H   UNL     1       1.614  -6.192   2.511  0.00  0.00    +0.149 HD
ATOM     18  H   UNL     1       0.475  -0.329  -0.828  0.00  0.00    -0.082 HD
ENDROOT
BRANCH  13  19
ATOM     19  C   UNL     1      -1.298  -6.524   3.268  0.00  0.00    +0.144 A 
ATOM     20  C   UNL     1      -2.635  -6.691   3.301  0.00  0.00    +0.049 A 
ATOM     21  C   UNL     1      -3.053  -6.410   4.618  0.00  0.00    +0.050 A 
ATOM     22  C   UNL     1      -1.936  -6.083   5.322  0.00  0.00    +0.135 A 
ATOM     23  O   UNL     1      -0.879  -6.163   4.491  0.00  0.00    -0.456 OA
BRANCH  22  24
ATOM     24  C   UNL     1      -1.890  -5.712   6.752  0.00  0.00    +0.017 A 
ATOM     25  C   UNL     1      -3.065  -5.680   7.505  0.00  0.00    +0.013 A 
ATOM     26  C   UNL     1      -3.015  -5.334   8.839  0.00  0.00    +0.021 A 
ATOM     27  C   UNL     1      -1.804  -5.018   9.431  0.00  0.00    +0.041 A 
ATOM     28  C   UNL     1      -0.636  -5.048   8.689  0.00  0.00    +0.021 A 
ATOM     29  C   UNL     1      -0.671  -5.398   7.355  0.00  0.00    +0.013 A 
ATOM     30 CL   UNL     1      -1.750  -4.581  11.111  0.00  0.00    -0.084 Cl
ENDBRANCH  22  24
ENDBRANCH  13  19
TORSDOF 2
