REMARK  Name = ZINC67387214
REMARK  9 active torsions:
REMARK  status: ('A' for Active; 'I' for Inactive)
REMARK    1  A    between atoms: C_1  and  C_2
REMARK    2  A    between atoms: C_6  and  C_7
REMARK    3  A    between atoms: N_9  and  N_10
REMARK    4  A    between atoms: N_13  and  C_14
REMARK    5  A    between atoms: C_14  and  C_16
REMARK    6  A    between atoms: C_14  and  C_17
REMARK    7  A    between atoms: C_17  and  C_18
REMARK    8  A    between atoms: C_18  and  C_19
REMARK    9  A    between atoms: C_22  and  O_25
REMARK                            x       y       z     vdW  Elec       q    Type
REMARK                         _______ _______ _______ _____ _____    ______ ____
ROOT
ATOM      1  N   UNL     1       0.058  -0.732   4.900  0.00  0.00    -0.218 N 
ATOM      2  C   UNL     1       0.080  -1.625   5.909  0.00  0.00    +0.316 C 
ATOM      3  O   UNL     1       0.086  -1.239   7.062  0.00  0.00    -0.251 OA
ATOM      4  N   UNL     1       0.096  -2.945   5.640  0.00  0.00    -0.296 N 
ATOM      5  H   UNL     1       0.047   0.219   5.094  0.00  0.00    +0.174 HD
ATOM      6  H   UNL     1       0.091  -3.253   4.720  0.00  0.00    +0.151 HD
ENDROOT
BRANCH   1   9
ATOM      7  C   UNL     1       0.030  -0.283   2.562  0.00  0.00    +0.267 C 
ATOM      8  O   UNL     1       0.016   0.910   2.805  0.00  0.00    -0.268 OA
ATOM      9  N   UNL     1       0.052  -1.176   3.571  0.00  0.00    -0.229 N 
ATOM     10  H   UNL     1       0.063  -2.126   3.378  0.00  0.00    +0.173 HD
BRANCH   7  16
ATOM     11  C   UNL     1      -0.018   1.503   0.010  0.00  0.00    +0.045 C 
ATOM     12  C   UNL     1       0.002  -0.004   0.002  0.00  0.00    -0.031 A 
ATOM     13  C   UNL     1       0.007  -0.729  -1.166  0.00  0.00    +0.011 A 
ATOM     14  C   UNL     1       0.026  -2.083  -1.101  0.00  0.00    +0.046 A 
ATOM     15  S   UNL     1       0.038  -2.416   0.545  0.00  0.00    -0.092 S 
ATOM     16  C   UNL     1       0.023  -0.748   1.172  0.00  0.00    +0.078 A 
ENDBRANCH   7  16
ENDBRANCH   1   9
BRANCH   4  17
ATOM     17  C   UNL     1       0.119  -3.916   6.737  0.00  0.00    +0.072 C 
ATOM     18  C   UNL     1       1.564  -4.141   7.189  0.00  0.00    +0.028 C 
BRANCH  17  19
ATOM     19  C   UNL     1      -0.477  -5.241   6.258  0.00  0.00    +0.026 C 
BRANCH  19  20
ATOM     20  C   UNL     1      -1.957  -5.044   5.924  0.00  0.00    +0.037 C 
BRANCH  20  21
ATOM     21  C   UNL     1      -2.544  -6.349   5.453  0.00  0.00    -0.047 A 
ATOM     22  C   UNL     1      -2.517  -6.673   4.109  0.00  0.00    +0.007 A 
ATOM     23  C   UNL     1      -3.055  -7.868   3.674  0.00  0.00    +0.045 A 
ATOM     24  C   UNL     1      -3.623  -8.745   4.587  0.00  0.00    +0.117 A 
ATOM     25  C   UNL     1      -3.649  -8.418   5.935  0.00  0.00    +0.045 A 
ATOM     26  C   UNL     1      -3.105  -7.223   6.365  0.00  0.00    +0.007 A 
BRANCH  24  27
ATOM     27  O   UNL     1      -4.153  -9.921   4.161  0.00  0.00    -0.507 OA
ATOM     28  H   UNL     1      -3.523 -10.655   4.148  0.00  0.00    +0.292 HD
ENDBRANCH  24  27
ENDBRANCH  20  21
ENDBRANCH  19  20
ENDBRANCH  17  19
ENDBRANCH   4  17
TORSDOF 7
