REMARK  Name = ZINC20492393
REMARK  8 active torsions:
REMARK  status: ('A' for Active; 'I' for Inactive)
REMARK    1  A    between atoms: C_1  and  C_2
REMARK    2  A    between atoms: C_2  and  C_3
REMARK    3  A    between atoms: C_6  and  C_9
REMARK    4  A    between atoms: C_11  and  C_28
REMARK    5  A    between atoms: C_13  and  C_19
REMARK    6  A    between atoms: C_23  and  O_26
REMARK    7  A    between atoms: C_24  and  O_25
REMARK    8  A    between atoms: O_26  and  C_27
REMARK                            x       y       z     vdW  Elec       q    Type
REMARK                         _______ _______ _______ _____ _____    ______ ____
ROOT
ATOM      1  C   UNL     1       4.768  -1.057  -4.329  0.00  0.00    +0.076 A 
ATOM      2  C   UNL     1       4.707  -2.421  -4.587  0.00  0.00    +0.060 A 
ATOM      3  C   UNL     1       4.423  -3.615  -3.790  0.00  0.00    +0.078 A 
ATOM      4  C   UNL     1       4.464  -4.838  -4.442  0.00  0.00    +0.044 A 
ATOM      5  C   UNL     1       4.768  -4.895  -5.812  0.00  0.00    +0.078 A 
ATOM      6  N   UNL     1       5.024  -3.828  -6.535  0.00  0.00    -0.226 NA
ATOM      7  C   UNL     1       5.013  -2.594  -6.015  0.00  0.00    +0.183 A 
ATOM      8  N   UNL     1       5.230  -1.385  -6.506  0.00  0.00    -0.153 NA
ATOM      9  N   UNL     1       5.077  -0.437  -5.488  0.00  0.00    -0.274 N 
ATOM     10  H   UNL     1       5.181   0.521  -5.598  0.00  0.00    +0.189 HD
ENDROOT
BRANCH   1  14
ATOM     11  C   UNL     1       4.085   0.821  -0.582  0.00  0.00    -0.048 A 
ATOM     12  C   UNL     1       3.440   1.288  -1.714  0.00  0.00    +0.004 A 
ATOM     13  C   UNL     1       3.657   0.683  -2.934  0.00  0.00    +0.010 A 
ATOM     14  C   UNL     1       4.530  -0.404  -3.026  0.00  0.00    +0.000 A 
ATOM     15  C   UNL     1       5.178  -0.869  -1.879  0.00  0.00    +0.010 A 
ATOM     16  C   UNL     1       4.956  -0.251  -0.667  0.00  0.00    +0.004 A 
BRANCH  11  18
ATOM     17  C   UNL     1       4.853   2.620   0.942  0.00  0.00    +0.009 C 
ATOM     18  C   UNL     1       3.843   1.488   0.748  0.00  0.00    +0.032 C 
ENDBRANCH  11  18
ENDBRANCH   1  14
BRANCH   5  19
ATOM     19  C   UNL     1       4.801  -6.220  -6.473  0.00  0.00    +0.046 A 
ATOM     20  C   UNL     1       4.530  -7.376  -5.741  0.00  0.00    +0.014 A 
ATOM     21  C   UNL     1       4.562  -8.608  -6.359  0.00  0.00    +0.004 A 
ATOM     22  C   UNL     1       4.863  -8.706  -7.706  0.00  0.00    +0.049 A 
ATOM     23  C   UNL     1       5.134  -7.566  -8.446  0.00  0.00    +0.162 A 
ATOM     24  C   UNL     1       5.100  -6.317  -7.835  0.00  0.00    +0.168 A 
BRANCH  24  25
ATOM     25  O   UNL     1       5.360  -5.197  -8.558  0.00  0.00    -0.503 OA
ATOM     26  H   UNL     1       6.294  -4.947  -8.574  0.00  0.00    +0.292 HD
ENDBRANCH  24  25
BRANCH  23  27
ATOM     27  O   UNL     1       5.429  -7.668  -9.769  0.00  0.00    -0.491 OA
ATOM     28  C   UNL     1       5.442  -8.982 -10.332  0.00  0.00    +0.277 C 
ENDBRANCH  23  27
ENDBRANCH   5  19
BRANCH   3  29
ATOM     29  C   UNL     1       4.107  -3.522  -2.351  0.00  0.00    +0.387 C 
ATOM     30  O   UNL     1       4.778  -4.139  -1.536  0.00  0.00    -0.241 OA
ATOM     31  O   UNL     1       3.175  -2.826  -1.973  0.00  0.00    -0.241 OA
ENDBRANCH   3  29
TORSDOF 6
