REMARK  Name = ZINC39663954
REMARK  12 active torsions:
REMARK  status: ('A' for Active; 'I' for Inactive)
REMARK    1  A    between atoms: C_1  and  C_2
REMARK    2  A    between atoms: C_7  and  C_8
REMARK    3  A    between atoms: C_8  and  C_9
REMARK    4  A    between atoms: C_13  and  C_22
REMARK    5  A    between atoms: N_24  and  C_25
REMARK    6  A    between atoms: C_25  and  C_26
REMARK    7  A    between atoms: C_26  and  C_28
REMARK    8  A    between atoms: C_26  and  N_36
REMARK    9  A    between atoms: C_31  and  O_34
REMARK   10  A    between atoms: O_34  and  C_35
REMARK   11  A    between atoms: N_36  and  C_37
REMARK   12  A    between atoms: N_36  and  C_38
REMARK                            x       y       z     vdW  Elec       q    Type
REMARK                         _______ _______ _______ _____ _____    ______ ____
ROOT
ATOM      1  C   UNL     1      -0.653   0.122   3.492  0.00  0.00    +0.220 C 
ATOM      2  O   UNL     1      -1.537  -0.364   2.819  0.00  0.00    -0.275 OA
ATOM      3  N   UNL     1      -0.960   0.849   4.585  0.00  0.00    -0.300 N 
ATOM      4  C   UNL     1      -0.028   1.522   5.520  0.00  0.00    +0.121 C 
ATOM      5  C   UNL     1      -0.713   2.865   5.856  0.00  0.00    +0.100 C 
ATOM      6  C   UNL     1      -2.209   2.618   5.595  0.00  0.00    -0.004 C 
ATOM      7  C   UNL     1      -2.307   1.162   5.119  0.00  0.00    +0.115 C 
ATOM      8  C   UNL     1      -2.717   3.558   4.506  0.00  0.00    -0.010 C 
ATOM      9  C   UNL     1      -4.218   3.334   4.304  0.00  0.00    -0.082 C 
ATOM     10  N   UNL     1      -4.926   3.585   5.565  0.00  0.00    +0.379 N 
ATOM     11  C   UNL     1      -4.498   2.617   6.582  0.00  0.00    -0.082 C 
ATOM     12  C   UNL     1      -3.009   2.811   6.880  0.00  0.00    -0.010 C 
ATOM     13  H   UNL     1      -4.719   4.520   5.885  0.00  0.00    -0.086 HD
ATOM     14  H   UNL     1      -5.920   3.496   5.415  0.00  0.00    -0.086 HD
ENDROOT
BRANCH   5  15
ATOM     15  C   UNL     1      -0.195   3.958   4.957  0.00  0.00    +0.218 C 
ATOM     16  O   UNL     1       0.234   3.685   3.856  0.00  0.00    -0.275 OA
ATOM     17  N   UNL     1      -0.207   5.238   5.377  0.00  0.00    -0.316 N 
ATOM     18  H   UNL     1      -0.550   5.457   6.258  0.00  0.00    +0.149 HD
BRANCH  17  19
ATOM     19  C   UNL     1       0.297   6.301   4.503  0.00  0.00    +0.093 C 
BRANCH  19  20
ATOM     20  C   UNL     1       0.273   7.633   5.255  0.00  0.00    -0.021 C 
BRANCH  20  21
ATOM     21  C   UNL     1      -1.153   8.013   5.558  0.00  0.00    -0.059 A 
ATOM     22  C   UNL     1      -1.939   8.586   4.575  0.00  0.00    +0.005 A 
ATOM     23  C   UNL     1      -3.247   8.936   4.851  0.00  0.00    +0.046 A 
ATOM     24  C   UNL     1      -3.772   8.711   6.115  0.00  0.00    +0.120 A 
ATOM     25  C   UNL     1      -2.981   8.136   7.100  0.00  0.00    +0.046 A 
ATOM     26  C   UNL     1      -1.676   7.783   6.817  0.00  0.00    +0.005 A 
BRANCH  24  27
ATOM     27  O   UNL     1      -5.058   9.055   6.389  0.00  0.00    -0.495 OA
ATOM     28  C   UNL     1      -5.531   8.794   7.712  0.00  0.00    +0.277 C 
ENDBRANCH  24  27
ENDBRANCH  20  21
BRANCH  20  29
ATOM     29  N   UNL     1       0.891   8.675   4.424  0.00  0.00    +0.382 N 
ATOM     30  C   UNL     1       0.858   9.957   5.140  0.00  0.00    -0.096 C 
ATOM     31  C   UNL     1       2.285   8.311   4.138  0.00  0.00    -0.096 C 
ATOM     32  H   UNL     1       0.382   8.761   3.557  0.00  0.00    -0.082 HD
ENDBRANCH  20  29
ENDBRANCH  19  20
ENDBRANCH  17  19
ENDBRANCH   5  15
BRANCH   1  33
ATOM     33  C   UNL     1       0.789  -0.087   3.107  0.00  0.00    +0.131 C 
BRANCH  33  40
ATOM     34  C   UNL     1       0.565   1.160   0.511  0.00  0.00    +0.044 C 
ATOM     35  C   UNL     1       0.751  -0.332   0.617  0.00  0.00    -0.047 A 
ATOM     36  C   UNL     1       0.821  -1.103  -0.529  0.00  0.00    +0.003 A 
ATOM     37  C   UNL     1       0.992  -2.471  -0.432  0.00  0.00    +0.000 A 
ATOM     38  C   UNL     1       1.095  -3.068   0.811  0.00  0.00    +0.000 A 
ATOM     39  C   UNL     1       1.026  -2.297   1.956  0.00  0.00    +0.004 A 
ATOM     40  C   UNL     1       0.859  -0.928   1.859  0.00  0.00    -0.036 A 
ENDBRANCH  33  40
ENDBRANCH   1  33
TORSDOF 8
