REMARK  Name = ZINC39711642
REMARK  8 active torsions:
REMARK  status: ('A' for Active; 'I' for Inactive)
REMARK    1  A    between atoms: C_3  and  C_7
REMARK    2  A    between atoms: C_7  and  N_8
REMARK    3  A    between atoms: N_8  and  C_9
REMARK    4  A    between atoms: N_8  and  C_15
REMARK    5  A    between atoms: C_9  and  C_10
REMARK    6  A    between atoms: C_15  and  C_17
REMARK    7  A    between atoms: C_15  and  C_32
REMARK    8  A    between atoms: N_37  and  C_38
REMARK                            x       y       z     vdW  Elec       q    Type
REMARK                         _______ _______ _______ _____ _____    ______ ____
ROOT
ATOM      1  C   UNL     1       5.224   2.517   0.593  0.00  0.00    -0.008 C 
ENDROOT
BRANCH   1   2
ATOM      2  C   UNL     1       5.301   3.986   0.171  0.00  0.00    +0.088 C 
ATOM      3  C   UNL     1       6.717   4.263  -0.293  0.00  0.00    -0.006 C 
ATOM      4  C   UNL     1       7.404   5.245   0.349  0.00  0.00    -0.003 A 
ATOM      5  C   UNL     1       8.777   5.574  -0.038  0.00  0.00    +0.059 A 
ATOM      6  C   UNL     1       9.437   6.560   0.624  0.00  0.00    +0.167 A 
ATOM      7  C   UNL     1       8.821   7.271   1.677  0.00  0.00    +0.168 A 
ATOM      8  C   UNL     1       7.530   7.000   2.079  0.00  0.00    +0.073 A 
ATOM      9  C   UNL     1       6.778   5.999   1.451  0.00  0.00    +0.044 A 
ATOM     10  N   UNL     1       5.530   5.752   1.856  0.00  0.00    -0.284 N 
ATOM     11  C   UNL     1       4.766   4.824   1.310  0.00  0.00    +0.223 C 
ATOM     12  O   UNL     1       3.636   4.644   1.723  0.00  0.00    -0.275 OA
ATOM     13  O   UNL     1       9.713   8.190   2.147  0.00  0.00    -0.453 OA
ATOM     14  C   UNL     1      11.001   7.761   1.671  0.00  0.00    +0.466 C 
ATOM     15  O   UNL     1      10.704   7.047   0.458  0.00  0.00    -0.453 OA
ATOM     16  H   UNL     1       5.168   6.279   2.585  0.00  0.00    +0.155 HD
ENDBRANCH   1   2
BRANCH   1  17
ATOM     17  C   UNL     1       6.027   2.313   1.879  0.00  0.00    +0.205 C 
ATOM     18  N   UNL     1       5.490   3.155   2.957  0.00  0.00    -0.152 NA
ATOM     19  N   UNL     1       6.367   3.939   3.325  0.00  0.00    -0.070 NA
ATOM     20  N   UNL     1       7.561   3.786   2.623  0.00  0.00    -0.179 N 
ATOM     21  N   UNL     1       7.417   2.780   1.699  0.00  0.00    -0.185 NA
ATOM     22  H   UNL     1       8.367   4.307   2.764  0.00  0.00    +0.191 HD
BRANCH  21  23
ATOM     23  C   UNL     1       8.374   1.693   1.948  0.00  0.00    +0.080 C 
ATOM     24  C   UNL     1       8.311   1.262   3.428  0.00  0.00    +0.021 C 
ATOM     25  C   UNL     1       9.782   0.944   3.794  0.00  0.00    +0.002 C 
ATOM     26  C   UNL     1      10.569   2.037   3.028  0.00  0.00    +0.002 C 
ATOM     27  C   UNL     1       9.809   2.185   1.694  0.00  0.00    +0.021 C 
ENDBRANCH  21  23
ENDBRANCH   1  17
BRANCH   1  28
ATOM     28  N   UNL     1       3.822   2.147   0.826  0.00  0.00    +0.392 N 
ATOM     29  H   UNL     1       3.432   2.742   1.542  0.00  0.00    -0.080 HD
BRANCH  28  30
ATOM     30  C   UNL     1       3.058   2.312  -0.417  0.00  0.00    -0.040 C 
BRANCH  30  33
ATOM     31  C   UNL     1      -0.572   2.844   0.467  0.00  0.00    +0.020 A 
ATOM     32  C   UNL     1       0.767   3.115   0.227  0.00  0.00    +0.005 A 
ATOM     33  C   UNL     1       1.596   2.068  -0.145  0.00  0.00    -0.046 A 
ATOM     34  C   UNL     1       1.065   0.798  -0.264  0.00  0.00    +0.112 A 
ATOM     35  N   UNL     1      -0.214   0.576  -0.028  0.00  0.00    -0.263 NA
ATOM     36  C   UNL     1      -1.031   1.548   0.328  0.00  0.00    +0.111 A 
ENDBRANCH  30  33
ENDBRANCH  28  30
BRANCH  28  37
ATOM     37  C   UNL     1       3.751   0.746   1.262  0.00  0.00    -0.002 C 
BRANCH  37  38
ATOM     38  C   UNL     1       3.883   0.678   2.761  0.00  0.00    +0.089 A 
ATOM     39  C   UNL     1       2.888   0.861   3.648  0.00  0.00    +0.042 A 
ATOM     40  C   UNL     1       3.452   0.710   4.935  0.00  0.00    +0.041 A 
ATOM     41  C   UNL     1       4.759   0.443   4.758  0.00  0.00    +0.195 A 
ATOM     42  O   UNL     1       5.013   0.420   3.440  0.00  0.00    -0.470 OA
ENDBRANCH  37  38
ENDBRANCH  28  37
ENDBRANCH   1  28
TORSDOF 8
