REMARK  Name = ZINC14475899
REMARK  6 active torsions:
REMARK  status: ('A' for Active; 'I' for Inactive)
REMARK    1  A    between atoms: C_1  and  O_2
REMARK    2  A    between atoms: O_2  and  C_3
REMARK    3  A    between atoms: C_3  and  C_5
REMARK    4  A    between atoms: C_12  and  C_21
REMARK    5  A    between atoms: C_23  and  N_28
REMARK    6  A    between atoms: C_26  and  O_27
REMARK                            x       y       z     vdW  Elec       q    Type
REMARK                         _______ _______ _______ _____ _____    ______ ____
ROOT
ATOM      1  C   UNL     1       0.680  -2.084   1.091  0.00  0.00    +0.080 A 
ATOM      2  C   UNL     1       0.012  -2.851   0.134  0.00  0.00    +0.017 A 
ATOM      3  C   UNL     1       0.079  -4.225   0.194  0.00  0.00    +0.001 A 
ATOM      4  C   UNL     1       0.808  -4.847   1.192  0.00  0.00    +0.006 A 
ATOM      5  C   UNL     1       1.478  -4.103   2.151  0.00  0.00    -0.019 A 
ATOM      6  C   UNL     1       1.414  -2.721   2.108  0.00  0.00    +0.045 A 
ATOM      7  N   UNL     1       2.045  -1.950   3.065  0.00  0.00    -0.336 N 
ATOM      8  C   UNL     1       2.790  -2.520   4.168  0.00  0.00    +0.108 C 
ATOM      9  C   UNL     1       3.246  -3.932   3.950  0.00  0.00    +0.029 C 
ATOM     10  C   UNL     1       2.269  -4.837   3.198  0.00  0.00    +0.049 C 
ATOM     11  C   UNL     1       3.179  -5.824   2.484  0.00  0.00    -0.023 C 
ATOM     12  C   UNL     1       4.400  -5.363   2.422  0.00  0.00    -0.030 C 
ATOM     13  C   UNL     1       4.512  -4.008   3.072  0.00  0.00    +0.033 C 
ATOM     14  H   UNL     1       1.988  -0.984   2.994  0.00  0.00    +0.147 HD
ENDROOT
BRANCH   8  15
ATOM     15  C   UNL     1       1.920  -2.488   5.398  0.00  0.00    +0.017 A 
ATOM     16  C   UNL     1       0.544  -2.479   5.272  0.00  0.00    +0.041 A 
ATOM     17  C   UNL     1      -0.254  -2.450   6.400  0.00  0.00    +0.127 A 
ATOM     18  C   UNL     1       0.322  -2.429   7.657  0.00  0.00    +0.036 A 
ATOM     19  C   UNL     1       1.696  -2.437   7.789  0.00  0.00    +0.048 A 
ATOM     20  C   UNL     1       2.500  -2.473   6.658  0.00  0.00    +0.122 A 
BRANCH  17  21
ATOM     21  N   UNL     1      -1.728  -2.440   6.262  0.00  0.00    +0.056 N 
ATOM     22  O   UNL     1      -2.232  -2.458   5.163  0.00  0.00    -0.126 OA
ATOM     23  O   UNL     1      -2.427  -2.414   7.248  0.00  0.00    -0.126 OA
ENDBRANCH  17  21
BRANCH  20  24
ATOM     24  O   UNL     1       3.853  -2.486   6.785  0.00  0.00    -0.506 OA
ATOM     25  H   UNL     1       4.255  -1.607   6.806  0.00  0.00    +0.292 HD
ENDBRANCH  20  24
ENDBRANCH   8  15
BRANCH   1  26
ATOM     26  C   UNL     1       0.621  -0.613   1.033  0.00  0.00    +0.341 C 
ATOM     27  O   UNL     1       1.107   0.050   1.927  0.00  0.00    -0.245 OA
BRANCH  26  29
ATOM     28  C   UNL     1       0.006   1.425  -0.003  0.00  0.00    +0.280 C 
ATOM     29  O   UNL     1       0.027  -0.004  -0.012  0.00  0.00    -0.464 OA
ENDBRANCH  26  29
ENDBRANCH   1  26
TORSDOF 5
