REMARK  Name = ZINC14471620
REMARK  2 active torsions:
REMARK  status: ('A' for Active; 'I' for Inactive)
REMARK    1  A    between atoms: C_3  and  C_10
REMARK    2  A    between atoms: C_5  and  N_7
REMARK                            x       y       z     vdW  Elec       q    Type
REMARK                         _______ _______ _______ _____ _____    ______ ____
ROOT
ATOM      1  C   UNL     1      -4.995   1.133   0.031  0.00  0.00    +0.105 C 
ATOM      2  C   UNL     1      -5.565   1.090   1.452  0.00  0.00    +0.029 C 
ATOM      3  C   UNL     1      -4.699   0.086   2.269  0.00  0.00    +0.033 C 
ATOM      4  C   UNL     1      -5.287  -1.263   1.905  0.00  0.00    -0.030 C 
ATOM      5  C   UNL     1      -6.512  -1.125   1.459  0.00  0.00    -0.023 C 
ATOM      6  C   UNL     1      -6.907   0.333   1.458  0.00  0.00    +0.050 C 
ATOM      7  C   UNL     1      -7.770   0.663   0.282  0.00  0.00    -0.001 A 
ATOM      8  C   UNL     1      -7.295   1.369  -0.813  0.00  0.00    +0.034 A 
ATOM      9  C   UNL     1      -8.132   1.657  -1.883  0.00  0.00    +0.043 A 
ATOM     10  C   UNL     1      -9.449   1.240  -1.863  0.00  0.00    +0.044 A 
ATOM     11  C   UNL     1      -9.928   0.533  -0.774  0.00  0.00    +0.040 A 
ATOM     12  C   UNL     1      -9.095   0.247   0.291  0.00  0.00    +0.048 A 
ATOM     13 CL   UNL     1      -9.711  -0.638   1.651  0.00  0.00    -0.083 Cl
ATOM     14 CL   UNL     1     -10.498   1.599  -3.199  0.00  0.00    -0.083 Cl
ATOM     15  N   UNL     1      -5.963   1.796  -0.849  0.00  0.00    -0.336 N 
ATOM     16  H   UNL     1      -5.687   2.513  -1.441  0.00  0.00    +0.147 HD
ENDROOT
BRANCH   1  19
ATOM     17  C   UNL     1      -2.531   3.994   0.037  0.00  0.00    +0.003 A 
ATOM     18  C   UNL     1      -3.719   3.286   0.038  0.00  0.00    +0.005 A 
ATOM     19  C   UNL     1      -3.700   1.904   0.030  0.00  0.00    -0.025 A 
ATOM     20  C   UNL     1      -2.494   1.229   0.021  0.00  0.00    +0.038 A 
ATOM     21  C   UNL     1      -1.306   1.936   0.019  0.00  0.00    +0.127 A 
ATOM     22  C   UNL     1      -1.325   3.319   0.032  0.00  0.00    +0.033 A 
BRANCH  21  23
ATOM     23  N   UNL     1      -0.014   1.214   0.009  0.00  0.00    +0.056 N 
ATOM     24  O   UNL     1       0.002  -0.004   0.002  0.00  0.00    -0.126 OA
ATOM     25  O   UNL     1       1.032   1.837   0.002  0.00  0.00    -0.126 OA
ENDBRANCH  21  23
ENDBRANCH   1  19
TORSDOF 2
