REMARK  Name = ZINC66729482
REMARK  13 active torsions:
REMARK  status: ('A' for Active; 'I' for Inactive)
REMARK    1  A    between atoms: C_1  and  C_2
REMARK    2  A    between atoms: C_2  and  C_4
REMARK    3  A    between atoms: C_2  and  C_24
REMARK    4  A    between atoms: C_4  and  C_5
REMARK    5  A    between atoms: C_7  and  C_8
REMARK    6  A    between atoms: C_7  and  C_10
REMARK    7  A    between atoms: N_12  and  C_13
REMARK    8  A    between atoms: C_16  and  C_19
REMARK    9  A    between atoms: N_21  and  C_22
REMARK   10  A    between atoms: N_21  and  C_23
REMARK   11  A    between atoms: C_24  and  C_25
REMARK   12  A    between atoms: C_24  and  C_26
REMARK   13  A    between atoms: C_24  and  C_27
REMARK                            x       y       z     vdW  Elec       q    Type
REMARK                         _______ _______ _______ _____ _____    ______ ____
ROOT
ATOM      1  C   UNL     1       1.362   2.052   1.995  0.00  0.00    +0.262 C 
ATOM      2  O   UNL     1       0.304   1.586   2.372  0.00  0.00    -0.269 OA
ATOM      3  N   UNL     1       1.714   3.303   2.354  0.00  0.00    -0.281 N 
ATOM      4  H   UNL     1       2.586   3.650   2.111  0.00  0.00    +0.155 HD
ENDROOT
BRANCH   3   5
ATOM      5  C   UNL     1       0.823   4.098   3.073  0.00  0.00    +0.034 A 
ATOM      6  C   UNL     1       0.769   5.468   2.837  0.00  0.00    +0.024 A 
ATOM      7  C   UNL     1      -0.110   6.256   3.545  0.00  0.00    +0.015 A 
ATOM      8  C   UNL     1      -0.949   5.678   4.502  0.00  0.00    +0.037 A 
ATOM      9  C   UNL     1      -0.892   4.301   4.737  0.00  0.00    +0.015 A 
ATOM     10  C   UNL     1      -0.015   3.518   4.021  0.00  0.00    +0.024 A 
BRANCH   8  11
ATOM     11  C   UNL     1      -1.892   6.520   5.264  0.00  0.00    +0.246 C 
ATOM     12  O   UNL     1      -2.981   6.081   5.578  0.00  0.00    -0.270 OA
ATOM     13  N   UNL     1      -1.545   7.775   5.612  0.00  0.00    -0.304 N 
ATOM     14  C   UNL     1      -2.438   8.575   6.454  0.00  0.00    +0.132 C 
ATOM     15  C   UNL     1      -0.276   8.340   5.147  0.00  0.00    +0.132 C 
ENDBRANCH   8  11
ENDBRANCH   3   5
BRANCH   1  18
ATOM     16  C   UNL     1       1.850   0.038   0.680  0.00  0.00    +0.179 C 
ATOM     17  O   UNL     1       2.712  -0.752   0.019  0.00  0.00    -0.291 OA
ATOM     18  C   UNL     1       2.258   1.252   1.148  0.00  0.00    +0.156 C 
BRANCH  18  19
ATOM     19  C   UNL     1       3.560   1.746   0.815  0.00  0.00    +0.108 C 
ATOM     20  N   UNL     1       4.593   2.139   0.550  0.00  0.00    -0.191 NA
ENDBRANCH  18  19
BRANCH  16  21
ATOM     21  C   UNL     1       0.431  -0.418   0.905  0.00  0.00    +0.084 C 
BRANCH  21  23
ATOM     22  C   UNL     1      -0.509   1.605  -0.220  0.00  0.00    +0.008 C 
ATOM     23  C   UNL     1      -0.452   0.077  -0.243  0.00  0.00    -0.001 C 
BRANCH  23  24
ATOM     24  C   UNL     1      -1.864  -0.489  -0.081  0.00  0.00    -0.035 C 
ATOM     25  C   UNL     1      -2.746   0.005  -1.229  0.00  0.00    +0.011 C 
ATOM     26  C   UNL     1      -1.806  -2.018  -0.104  0.00  0.00    +0.011 C 
ATOM     27  C   UNL     1      -2.451  -0.021   1.252  0.00  0.00    +0.011 C 
ENDBRANCH  23  24
ENDBRANCH  21  23
ENDBRANCH  16  21
ENDBRANCH   1  18
TORSDOF 7
