REMARK  Name = ZINC12784987
REMARK  10 active torsions:
REMARK  status: ('A' for Active; 'I' for Inactive)
REMARK    1  A    between atoms: C_1  and  C_2
REMARK    2  A    between atoms: C_2  and  C_3
REMARK    3  A    between atoms: C_3  and  C_5
REMARK    4  A    between atoms: C_3  and  N_12
REMARK    5  A    between atoms: C_8  and  C_11
REMARK    6  A    between atoms: C_13  and  C_15
REMARK    7  A    between atoms: N_18  and  S_21
REMARK    8  A    between atoms: S_21  and  C_24
REMARK    9  A    between atoms: C_26  and  C_30
REMARK   10  A    between atoms: N_27  and  C_29
REMARK                            x       y       z     vdW  Elec       q    Type
REMARK                         _______ _______ _______ _____ _____    ______ ____
ROOT
ATOM      1  C   UNL     1      -5.025   1.834   2.529  0.00  0.00    +0.077 C 
ATOM      2  C   UNL     1      -4.271   2.289   3.780  0.00  0.00    +0.030 C 
ATOM      3  C   UNL     1      -5.229   3.052   4.700  0.00  0.00    +0.110 C 
ATOM      4  N   UNL     1      -6.397   2.204   4.974  0.00  0.00    -0.176 NA
ATOM      5  C   UNL     1      -7.142   1.639   3.840  0.00  0.00    +0.110 C 
ATOM      6  C   UNL     1      -6.162   0.891   2.930  0.00  0.00    +0.030 C 
ENDROOT
BRANCH   1   8
ATOM      7  N   UNL     1      -2.993   1.749   1.121  0.00  0.00    -0.308 N 
ATOM      8  C   UNL     1      -4.077   1.112   1.606  0.00  0.00    +0.217 C 
ATOM      9  O   UNL     1      -4.289  -0.042   1.300  0.00  0.00    -0.275 OA
ATOM     10  H   UNL     1      -2.823   2.672   1.366  0.00  0.00    +0.149 HD
BRANCH   7  11
ATOM     11  C   UNL     1      -2.071   1.048   0.224  0.00  0.00    +0.103 C 
BRANCH  11  12
ATOM     12  C   UNL     1      -0.707   1.682   0.310  0.00  0.00    -0.027 A 
ATOM     13  C   UNL     1       0.426   0.888   0.305  0.00  0.00    +0.006 A 
ATOM     14  C   UNL     1       1.677   1.470   0.378  0.00  0.00    +0.004 A 
ATOM     15  C   UNL     1       1.797   2.845   0.462  0.00  0.00    -0.050 A 
ATOM     16  C   UNL     1       0.665   3.638   0.472  0.00  0.00    +0.004 A 
ATOM     17  C   UNL     1      -0.587   3.056   0.398  0.00  0.00    +0.006 A 
ATOM     18  C   UNL     1       3.162   3.479   0.542  0.00  0.00    +0.044 C 
ENDBRANCH  11  12
BRANCH  11  20
ATOM     19  C   UNL     1      -3.915   0.390  -1.328  0.00  0.00    +0.006 C 
ATOM     20  C   UNL     1      -2.587   1.142  -1.213  0.00  0.00    +0.024 C 
ENDBRANCH  11  20
ENDBRANCH   7  11
ENDBRANCH   1   8
BRANCH   4  21
ATOM     21  S   UNL     1      -6.866   1.890   6.531  0.00  0.00    +0.062 S 
ATOM     22  O   UNL     1      -6.364   2.954   7.328  0.00  0.00    -0.153 OA
ATOM     23  O   UNL     1      -8.247   1.562   6.481  0.00  0.00    -0.153 OA
BRANCH  21  24
ATOM     24  C   UNL     1      -6.020   0.433   7.046  0.00  0.00    +0.124 A 
ATOM     25  C   UNL     1      -4.770   0.384   7.672  0.00  0.00    +0.061 A 
ATOM     26  C   UNL     1      -4.483  -0.945   7.900  0.00  0.00    +0.106 A 
ATOM     27  N   UNL     1      -5.540  -1.686   7.421  0.00  0.00    -0.344 N 
ATOM     28  C   UNL     1      -6.467  -0.839   6.912  0.00  0.00    +0.114 A 
ATOM     29  C   UNL     1      -5.648  -3.146   7.462  0.00  0.00    +0.149 C 
BRANCH  26  30
ATOM     30  C   UNL     1      -3.272  -1.474   8.536  0.00  0.00    +0.258 C 
ATOM     31  O   UNL     1      -3.180  -2.663   8.776  0.00  0.00    -0.269 OA
ATOM     32  N   UNL     1      -2.260  -0.642   8.855  0.00  0.00    -0.324 N 
ATOM     33  H   UNL     1      -2.362   0.315   8.731  0.00  0.00    +0.145 HD
ATOM     34  H   UNL     1      -1.431  -1.000   9.208  0.00  0.00    +0.145 HD
ENDBRANCH  26  30
ENDBRANCH  21  24
ENDBRANCH   4  21
TORSDOF 7
