REMARK  Name = ZINC36499959
REMARK  14 active torsions:
REMARK  status: ('A' for Active; 'I' for Inactive)
REMARK    1  A    between atoms: C_1  and  C_2
REMARK    2  A    between atoms: C_2  and  C_3
REMARK    3  A    between atoms: C_3  and  C_4
REMARK    4  A    between atoms: C_4  and  N_5
REMARK    5  A    between atoms: C_6  and  C_8
REMARK    6  A    between atoms: C_8  and  C_10
REMARK    7  A    between atoms: C_8  and  N_19
REMARK    8  A    between atoms: C_11  and  O_18
REMARK    9  A    between atoms: C_13  and  O_17
REMARK   10  A    between atoms: C_15  and  O_16
REMARK   11  A    between atoms: N_19  and  C_20
REMARK   12  A    between atoms: C_20  and  C_21
REMARK   13  A    between atoms: C_26  and  C_28
REMARK   14  A    between atoms: C_29  and  C_30
REMARK                            x       y       z     vdW  Elec       q    Type
REMARK                         _______ _______ _______ _____ _____    ______ ____
ROOT
ATOM      1  C   UNL     1      -4.943  -4.662   0.060  0.00  0.00    +0.200 C 
ENDROOT
BRANCH   1   2
ATOM      2  C   UNL     1      -5.700  -4.110  -1.120  0.00  0.00    +0.065 A 
ATOM      3  C   UNL     1      -6.703  -3.173  -0.923  0.00  0.00    +0.129 A 
ATOM      4  C   UNL     1      -7.400  -2.665  -2.009  0.00  0.00    +0.091 A 
ATOM      5  C   UNL     1      -7.093  -3.093  -3.292  0.00  0.00    +0.124 A 
ATOM      6  C   UNL     1      -6.089  -4.030  -3.488  0.00  0.00    +0.091 A 
ATOM      7  C   UNL     1      -5.389  -4.535  -2.403  0.00  0.00    +0.129 A 
BRANCH   7   8
ATOM      8  O   UNL     1      -4.402  -5.448  -2.596  0.00  0.00    -0.506 OA
ATOM      9  H   UNL     1      -4.707  -6.366  -2.579  0.00  0.00    +0.292 HD
ENDBRANCH   7   8
BRANCH   5  10
ATOM     10  O   UNL     1      -7.776  -2.596  -4.356  0.00  0.00    -0.507 OA
ATOM     11  H   UNL     1      -7.382  -1.801  -4.740  0.00  0.00    +0.292 HD
ENDBRANCH   5  10
BRANCH   3  12
ATOM     12  O   UNL     1      -7.004  -2.753   0.334  0.00  0.00    -0.506 OA
ATOM     13  H   UNL     1      -6.464  -2.012   0.641  0.00  0.00    +0.292 HD
ENDBRANCH   3  12
ENDBRANCH   1   2
BRANCH   1  15
ATOM     14  N   UNL     1      -3.290  -2.902  -0.477  0.00  0.00    -0.313 N 
ATOM     15  C   UNL     1      -3.539  -4.114   0.058  0.00  0.00    +0.238 C 
ATOM     16  O   UNL     1      -2.634  -4.763   0.538  0.00  0.00    -0.273 OA
ATOM     17  H   UNL     1      -4.014  -2.383  -0.861  0.00  0.00    +0.149 HD
BRANCH  14  18
ATOM     18  C   UNL     1      -1.925  -2.369  -0.480  0.00  0.00    +0.104 C 
BRANCH  18  19
ATOM     19  C   UNL     1      -1.918  -0.989  -1.141  0.00  0.00    +0.018 C 
BRANCH  19  21
ATOM     20  C   UNL     1      -0.486   0.948  -1.804  0.00  0.00    +0.004 C 
ATOM     21  C   UNL     1      -0.493  -0.432  -1.143  0.00  0.00    -0.002 C 
ENDBRANCH  19  21
ENDBRANCH  18  19
ENDBRANCH  14  18
ENDBRANCH   1  15
BRANCH   1  22
ATOM     22  N   UNL     1      -4.896  -6.124  -0.029  0.00  0.00    -0.268 N 
ATOM     23  C   UNL     1      -6.037  -6.839   0.032  0.00  0.00    +0.293 C 
ATOM     24  O   UNL     1      -7.105  -6.271   0.162  0.00  0.00    -0.260 OA
BRANCH  23  25
ATOM     25  C   UNL     1      -5.991  -8.268  -0.056  0.00  0.00    -0.003 C 
ATOM     26  C   UNL     1      -5.954  -9.439  -0.129  0.00  0.00    -0.057 C 
BRANCH  26  27
ATOM     27  C   UNL     1      -5.908 -10.867  -0.216  0.00  0.00    +0.025 A 
ATOM     28  C   UNL     1      -4.682 -11.524  -0.360  0.00  0.00    +0.017 A 
ATOM     29  C   UNL     1      -4.646 -12.900  -0.444  0.00  0.00    +0.001 A 
ATOM     30  C   UNL     1      -5.820 -13.631  -0.386  0.00  0.00    +0.000 A 
ATOM     31  C   UNL     1      -7.038 -12.988  -0.245  0.00  0.00    +0.001 A 
ATOM     32  C   UNL     1      -7.089 -11.614  -0.153  0.00  0.00    +0.017 A 
ENDBRANCH  26  27
ENDBRANCH  23  25
BRANCH  22  33
ATOM     33  C   UNL     1      -3.610  -6.807  -0.186  0.00  0.00    +0.184 C 
BRANCH  33  34
ATOM     34  C   UNL     1      -3.124  -7.279   1.160  0.00  0.00    +0.122 A 
ATOM     35  C   UNL     1      -3.479  -8.426   1.767  0.00  0.00    +0.046 A 
ATOM     36  C   UNL     1      -2.792  -8.465   3.002  0.00  0.00    +0.041 A 
ATOM     37  C   UNL     1      -2.059  -7.340   3.076  0.00  0.00    +0.195 A 
ATOM     38  O   UNL     1      -2.260  -6.628   1.955  0.00  0.00    -0.466 OA
ENDBRANCH  33  34
ENDBRANCH  22  33
ENDBRANCH   1  22
TORSDOF 13
