REMARK  Name = ZINC20130749
REMARK  4 active torsions:
REMARK  status: ('A' for Active; 'I' for Inactive)
REMARK    1  A    between atoms: C_6  and  C_7
REMARK    2  A    between atoms: C_7  and  O_8
REMARK    3  A    between atoms: O_8  and  C_9
REMARK    4  A    between atoms: C_12  and  C_16
REMARK                            x       y       z     vdW  Elec       q    Type
REMARK                         _______ _______ _______ _____ _____    ______ ____
ROOT
ATOM      1  C   UNL     1      -2.846   3.149   1.483  0.00  0.00    +0.139 A 
ATOM      2  C   UNL     1      -3.753   3.273   0.437  0.00  0.00    +0.048 A 
ATOM      3  C   UNL     1      -4.968   3.887   0.645  0.00  0.00    +0.011 A 
ATOM      4  C   UNL     1      -5.289   4.387   1.913  0.00  0.00    -0.022 A 
ATOM      5  C   UNL     1      -4.372   4.260   2.963  0.00  0.00    +0.031 A 
ATOM      6  C   UNL     1      -3.161   3.639   2.746  0.00  0.00    +0.083 A 
ATOM      7 CL   UNL     1      -2.025   3.474   4.048  0.00  0.00    -0.080 Cl
ENDROOT
BRANCH   4   8
ATOM      8  C   UNL     1      -6.584   5.043   2.140  0.00  0.00    +0.028 C 
ATOM      9  C   UNL     1      -7.539   5.011   1.177  0.00  0.00    +0.078 C 
ATOM     10  C   UNL     1      -8.831   5.720   1.117  0.00  0.00    +0.256 C 
ATOM     11  O   UNL     1      -9.190   6.466   2.010  0.00  0.00    -0.269 OA
ATOM     12  N   UNL     1      -9.583   5.508   0.050  0.00  0.00    -0.261 N 
ATOM     13  C   UNL     1      -9.158   4.658  -0.951  0.00  0.00    +0.158 C 
ATOM     14  N   UNL     1      -9.769   4.340  -2.058  0.00  0.00    -0.279 NA
ATOM     15  S   UNL     1      -7.565   4.105  -0.363  0.00  0.00    -0.049 S 
ATOM     16  H   UNL     1     -10.556   6.011  -0.045  0.00  0.00    +0.157 HD
ATOM     17  H   UNL     1     -10.755   4.771  -2.286  0.00  0.00    +0.189 HD
ENDBRANCH   4   8
BRANCH   1  18
ATOM     18  O   UNL     1      -1.649   2.543   1.272  0.00  0.00    -0.486 OA
BRANCH  18  19
ATOM     19  C   UNL     1      -1.392   2.057  -0.047  0.00  0.00    +0.264 C 
BRANCH  19  25
ATOM     20  C   UNL     1       1.082   2.183  -0.410  0.00  0.00    +0.008 A 
ATOM     21  C   UNL     1       2.333   1.598  -0.455  0.00  0.00    +0.020 A 
ATOM     22  C   UNL     1       2.477   0.249  -0.181  0.00  0.00    +0.041 A 
ATOM     23  C   UNL     1       1.367  -0.513   0.139  0.00  0.00    +0.020 A 
ATOM     24  C   UNL     1       0.116   0.073   0.184  0.00  0.00    +0.008 A 
ATOM     25  C   UNL     1      -0.026   1.420  -0.090  0.00  0.00    -0.010 A 
ATOM     26 CL   UNL     1       4.048  -0.486  -0.237  0.00  0.00    -0.084 Cl
ENDBRANCH  19  25
ENDBRANCH  18  19
ENDBRANCH   1  18
TORSDOF 4
