REMARK  Name = ZINC39691293
REMARK  8 active torsions:
REMARK  status: ('A' for Active; 'I' for Inactive)
REMARK    1  A    between atoms: C_1  and  C_2
REMARK    2  A    between atoms: C_7  and  C_8
REMARK    3  A    between atoms: C_8  and  C_9
REMARK    4  A    between atoms: C_9  and  N_10
REMARK    5  A    between atoms: C_11  and  C_13
REMARK    6  A    between atoms: C_24  and  C_26
REMARK    7  A    between atoms: C_28  and  C_32
REMARK    8  A    between atoms: N_29  and  C_31
REMARK                            x       y       z     vdW  Elec       q    Type
REMARK                         _______ _______ _______ _____ _____    ______ ____
ROOT
ATOM      1  C   UNL     1      -2.571   2.266   6.027  0.00  0.00    +0.100 C 
ATOM      2  C   UNL     1      -1.717   3.548   5.913  0.00  0.00    +0.121 C 
ATOM      3  N   UNL     1      -2.690   4.619   5.591  0.00  0.00    -0.295 N 
ATOM      4  C   UNL     1      -3.877   4.299   6.419  0.00  0.00    +0.115 C 
ATOM      5  C   UNL     1      -3.988   2.763   6.362  0.00  0.00    -0.004 C 
ATOM      6  C   UNL     1      -4.967   2.345   5.269  0.00  0.00    -0.010 C 
ATOM      7  C   UNL     1      -6.377   2.801   5.653  0.00  0.00    -0.082 C 
ATOM      8  N   UNL     1      -6.757   2.197   6.936  0.00  0.00    +0.379 N 
ATOM      9  C   UNL     1      -5.866   2.676   7.999  0.00  0.00    -0.082 C 
ATOM     10  C   UNL     1      -4.434   2.215   7.714  0.00  0.00    -0.010 C 
ATOM     11  C   UNL     1      -2.531   5.650   4.738  0.00  0.00    +0.267 C 
ATOM     12  O   UNL     1      -3.430   6.453   4.580  0.00  0.00    -0.268 OA
ATOM     13  H   UNL     1      -7.709   2.449   7.157  0.00  0.00    -0.086 HD
ATOM     14  H   UNL     1      -6.686   1.192   6.866  0.00  0.00    -0.086 HD
ENDROOT
BRANCH  11  15
ATOM     15  C   UNL     1      -1.265   5.804   3.993  0.00  0.00    +0.147 A 
ATOM     16  C   UNL     1      -0.949   6.831   3.073  0.00  0.00    +0.057 A 
ATOM     17  C   UNL     1       0.308   6.562   2.648  0.00  0.00    +0.037 A 
ATOM     18  N   UNL     1       0.713   5.440   3.281  0.00  0.00    -0.271 N 
ATOM     19  N   UNL     1      -0.212   5.014   4.065  0.00  0.00    -0.167 NA
ATOM     20  C   UNL     1       2.020   4.804   3.104  0.00  0.00    +0.172 C 
ATOM     21  C   UNL     1       1.106   7.365   1.653  0.00  0.00    +0.065 C 
ENDBRANCH  11  15
BRANCH   1  23
ATOM     22  N   UNL     1      -2.735   0.181   4.705  0.00  0.00    -0.315 N 
ATOM     23  C   UNL     1      -2.574   1.519   4.718  0.00  0.00    +0.218 C 
ATOM     24  O   UNL     1      -2.431   2.123   3.675  0.00  0.00    -0.275 OA
ATOM     25  H   UNL     1      -2.849  -0.301   5.539  0.00  0.00    +0.149 HD
BRANCH  22  26
ATOM     26  C   UNL     1      -2.737  -0.544   3.432  0.00  0.00    +0.109 C 
BRANCH  26  27
ATOM     27  C   UNL     1      -2.936  -2.038   3.697  0.00  0.00    +0.054 C 
BRANCH  27  34
ATOM     28  C   UNL     1      -0.439  -2.865   2.501  0.00  0.00    +0.044 C 
ATOM     29  C   UNL     1      -1.744  -3.180   1.816  0.00  0.00    -0.047 A 
ATOM     30  C   UNL     1      -1.746  -3.870   0.618  0.00  0.00    +0.003 A 
ATOM     31  C   UNL     1      -2.942  -4.159  -0.011  0.00  0.00    +0.000 A 
ATOM     32  C   UNL     1      -4.137  -3.759   0.559  0.00  0.00    +0.000 A 
ATOM     33  C   UNL     1      -4.135  -3.070   1.757  0.00  0.00    +0.004 A 
ATOM     34  C   UNL     1      -2.938  -2.785   2.388  0.00  0.00    -0.043 A 
ENDBRANCH  27  34
ENDBRANCH  26  27
ENDBRANCH  22  26
ENDBRANCH   1  23
TORSDOF 5
