REMARK  Name = ZINC24970047
REMARK  11 active torsions:
REMARK  status: ('A' for Active; 'I' for Inactive)
REMARK    1  A    between atoms: C_1  and  C_2
REMARK    2  A    between atoms: C_2  and  C_4
REMARK    3  A    between atoms: C_2  and  S_14
REMARK    4  A    between atoms: N_10  and  C_11
REMARK    5  A    between atoms: N_10  and  C_12
REMARK    6  A    between atoms: S_14  and  C_15
REMARK    7  A    between atoms: C_18  and  C_23
REMARK    8  A    between atoms: N_19  and  C_20
REMARK    9  A    between atoms: C_20  and  C_21
REMARK   10  A    between atoms: C_23  and  O_24
REMARK   11  A    between atoms: O_24  and  C_25
REMARK                            x       y       z     vdW  Elec       q    Type
REMARK                         _______ _______ _______ _____ _____    ______ ____
ROOT
ATOM      1  C   UNL     1      -0.870  -2.989  -1.149  0.00  0.00    +0.193 A 
ATOM      2  N   UNL     1      -1.082  -3.448  -2.361  0.00  0.00    -0.122 NA
ATOM      3  N   UNL     1      -1.628  -2.536  -3.084  0.00  0.00    -0.130 NA
ATOM      4  C   UNL     1      -1.800  -1.452  -2.382  0.00  0.00    +0.172 A 
ATOM      5  N   UNL     1      -1.318  -1.700  -1.126  0.00  0.00    -0.299 N 
ENDROOT
BRANCH   1   6
ATOM      6  S   UNL     1      -0.145  -3.871   0.193  0.00  0.00    -0.075 S 
BRANCH   6   8
ATOM      7  C   UNL     1       1.205  -5.279  -1.721  0.00  0.00    +0.028 C 
ATOM      8  C   UNL     1       0.169  -5.463  -0.610  0.00  0.00    +0.119 C 
BRANCH   8   9
ATOM      9  C   UNL     1       0.692  -6.444   0.407  0.00  0.00    +0.149 A 
ATOM     10  N   UNL     1       1.629  -6.071   1.261  0.00  0.00    -0.198 NA
ATOM     11  C   UNL     1       2.094  -6.935   2.161  0.00  0.00    +0.217 A 
ATOM     12  N   UNL     1       1.614  -8.173   2.200  0.00  0.00    -0.181 NA
ATOM     13  C   UNL     1       0.671  -8.544   1.340  0.00  0.00    +0.222 A 
ATOM     14  N   UNL     1       0.209  -7.673   0.446  0.00  0.00    -0.198 NA
ATOM     15  N   UNL     1       0.170  -9.829   1.377  0.00  0.00    -0.306 N 
ATOM     16  C   UNL     1       0.676 -10.785   2.365  0.00  0.00    +0.132 C 
ATOM     17  C   UNL     1      -0.869 -10.237   0.428  0.00  0.00    +0.132 C 
ATOM     18  N   UNL     1       3.073  -6.545   3.052  0.00  0.00    -0.327 N 
ATOM     19  H   UNL     1       3.456  -7.259   3.795  0.00  0.00    +0.145 HD
ATOM     20  H   UNL     1       3.470  -5.520   3.018  0.00  0.00    +0.145 HD
ENDBRANCH   8   9
ENDBRANCH   6   8
ENDBRANCH   1   6
BRANCH   5  21
ATOM     21  C   UNL     1      -1.293  -0.775   0.010  0.00  0.00    +0.152 C 
BRANCH  21  22
ATOM     22  C   UNL     1       0.002  -0.004   0.002  0.00  0.00    -0.013 C 
ATOM     23  C   UNL     1      -0.016   1.306   0.009  0.00  0.00    +0.005 C 
ENDBRANCH  21  22
ENDBRANCH   5  21
BRANCH   4  24
ATOM     24  C   UNL     1      -2.413  -0.163  -2.865  0.00  0.00    +0.305 C 
BRANCH  24  25
ATOM     25  O   UNL     1      -1.390   0.681  -3.398  0.00  0.00    -0.481 OA
BRANCH  25  26
ATOM     26  C   UNL     1      -1.778   1.891  -3.880  0.00  0.00    +0.156 A 
ATOM     27  C   UNL     1      -3.115   2.257  -3.846  0.00  0.00    +0.048 A 
ATOM     28  C   UNL     1      -3.507   3.489  -4.333  0.00  0.00    +0.004 A 
ATOM     29  C   UNL     1      -2.568   4.355  -4.863  0.00  0.00    +0.003 A 
ATOM     30  C   UNL     1      -1.235   3.993  -4.904  0.00  0.00    +0.042 A 
ATOM     31  C   UNL     1      -0.836   2.762  -4.413  0.00  0.00    +0.165 A 
ATOM     32  F   UNL     1       0.467   2.407  -4.454  0.00  0.00    -0.202 F 
ENDBRANCH  25  26
ENDBRANCH  24  25
ENDBRANCH   4  24
TORSDOF 8
