REMARK  Name = ZINC39639150
REMARK  15 active torsions:
REMARK  status: ('A' for Active; 'I' for Inactive)
REMARK    1  A    between atoms: C_1  and  C_2
REMARK    2  A    between atoms: C_4  and  C_11
REMARK    3  A    between atoms: N_5  and  C_7
REMARK    4  A    between atoms: C_7  and  C_8
REMARK    5  A    between atoms: C_7  and  C_9
REMARK    6  A    between atoms: C_7  and  C_10
REMARK    7  A    between atoms: C_15  and  C_24
REMARK    8  A    between atoms: N_26  and  C_27
REMARK    9  A    between atoms: C_27  and  C_28
REMARK   10  A    between atoms: C_29  and  O_38
REMARK   11  A    between atoms: C_31  and  O_36
REMARK   12  A    between atoms: C_33  and  O_34
REMARK   13  A    between atoms: O_34  and  C_35
REMARK   14  A    between atoms: O_36  and  C_37
REMARK   15  A    between atoms: O_38  and  C_39
REMARK                            x       y       z     vdW  Elec       q    Type
REMARK                         _______ _______ _______ _____ _____    ______ ____
ROOT
ATOM      1  C   UNL     1      -0.570  -3.612  -1.418  0.00  0.00    +0.265 C 
ATOM      2  O   UNL     1      -0.778  -3.653  -2.616  0.00  0.00    -0.268 OA
ATOM      3  N   UNL     1      -0.519  -4.754  -0.704  0.00  0.00    -0.295 N 
ATOM      4  C   UNL     1      -0.411  -4.901   0.767  0.00  0.00    +0.121 C 
ATOM      5  C   UNL     1      -1.337  -6.089   1.110  0.00  0.00    +0.100 C 
ATOM      6  C   UNL     1      -1.429  -6.904  -0.192  0.00  0.00    -0.004 C 
ATOM      7  C   UNL     1      -0.565  -6.146  -1.211  0.00  0.00    +0.115 C 
ATOM      8  C   UNL     1      -2.874  -6.965  -0.676  0.00  0.00    -0.010 C 
ATOM      9  C   UNL     1      -2.948  -7.827  -1.940  0.00  0.00    -0.082 C 
ATOM     10  N   UNL     1      -2.452  -9.177  -1.643  0.00  0.00    +0.379 N 
ATOM     11  C   UNL     1      -1.035  -9.118  -1.267  0.00  0.00    -0.082 C 
ATOM     12  C   UNL     1      -0.880  -8.310   0.025  0.00  0.00    -0.010 C 
ATOM     13  H   UNL     1      -2.985  -9.569  -0.881  0.00  0.00    -0.086 HD
ATOM     14  H   UNL     1      -2.558  -9.760  -2.460  0.00  0.00    -0.086 HD
ENDROOT
BRANCH   1  18
ATOM     15  C   UNL     1       0.439   0.016   1.978  0.00  0.00    +0.067 C 
ATOM     16  C   UNL     1       0.063  -0.722   0.720  0.00  0.00    +0.061 A 
ATOM     17  C   UNL     1       0.021  -2.109   0.561  0.00  0.00    +0.057 A 
ATOM     18  C   UNL     1      -0.374  -2.316  -0.749  0.00  0.00    +0.124 A 
ATOM     19  N   UNL     1      -0.544  -1.077  -1.298  0.00  0.00    -0.254 N 
ATOM     20  N   UNL     1      -0.287  -0.177  -0.418  0.00  0.00    -0.175 NA
BRANCH  19  21
ATOM     21  C   UNL     1      -0.961  -0.814  -2.677  0.00  0.00    +0.056 C 
ATOM     22  C   UNL     1      -2.279  -1.538  -2.958  0.00  0.00    +0.036 C 
ATOM     23  C   UNL     1      -1.154   0.691  -2.873  0.00  0.00    +0.036 C 
ATOM     24  C   UNL     1       0.115  -1.320  -3.640  0.00  0.00    +0.036 C 
ENDBRANCH  19  21
ENDBRANCH   1  18
BRANCH   5  25
ATOM     25  C   UNL     1      -2.700  -5.592   1.517  0.00  0.00    +0.218 C 
ATOM     26  O   UNL     1      -3.146  -4.575   1.028  0.00  0.00    -0.275 OA
ATOM     27  N   UNL     1      -3.424  -6.276   2.425  0.00  0.00    -0.311 N 
ATOM     28  H   UNL     1      -3.038  -7.045   2.873  0.00  0.00    +0.149 HD
BRANCH  27  29
ATOM     29  C   UNL     1      -4.794  -5.860   2.733  0.00  0.00    +0.147 C 
BRANCH  29  30
ATOM     30  C   UNL     1      -5.378  -6.784   3.771  0.00  0.00    +0.053 A 
ATOM     31  C   UNL     1      -6.056  -7.928   3.379  0.00  0.00    +0.132 A 
ATOM     32  C   UNL     1      -6.593  -8.778   4.334  0.00  0.00    +0.091 A 
ATOM     33  C   UNL     1      -6.452  -8.484   5.682  0.00  0.00    +0.127 A 
ATOM     34  C   UNL     1      -5.773  -7.340   6.074  0.00  0.00    +0.091 A 
ATOM     35  C   UNL     1      -5.233  -6.492   5.119  0.00  0.00    +0.132 A 
BRANCH  35  36
ATOM     36  O   UNL     1      -4.564  -5.374   5.504  0.00  0.00    -0.495 OA
ATOM     37  C   UNL     1      -4.452  -5.136   6.909  0.00  0.00    +0.277 C 
ENDBRANCH  35  36
BRANCH  33  38
ATOM     38  O   UNL     1      -6.979  -9.317   6.617  0.00  0.00    -0.495 OA
ATOM     39  C   UNL     1      -6.796  -8.952   7.987  0.00  0.00    +0.277 C 
ENDBRANCH  33  38
BRANCH  31  40
ATOM     40  O   UNL     1      -6.193  -8.217   2.058  0.00  0.00    -0.495 OA
ATOM     41  C   UNL     1      -6.903  -9.412   1.725  0.00  0.00    +0.277 C 
ENDBRANCH  31  40
ENDBRANCH  29  30
ENDBRANCH  27  29
ENDBRANCH   5  25
TORSDOF 8
