REMARK  Name = ZINC38701853
REMARK  14 active torsions:
REMARK  status: ('A' for Active; 'I' for Inactive)
REMARK    1  A    between atoms: C_1  and  C_2
REMARK    2  A    between atoms: C_2  and  C_3
REMARK    3  A    between atoms: C_2  and  C_4
REMARK    4  A    between atoms: C_4  and  C_5
REMARK    5  A    between atoms: C_5  and  C_6
REMARK    6  A    between atoms: C_6  and  N_7
REMARK    7  A    between atoms: C_8  and  O_41
REMARK    8  A    between atoms: C_10  and  C_17
REMARK    9  A    between atoms: N_30  and  C_35
REMARK   10  A    between atoms: C_35  and  C_36
REMARK   11  A    between atoms: C_36  and  C_37
REMARK   12  A    between atoms: C_37  and  C_38
REMARK   13  A    between atoms: C_38  and  C_39
REMARK   14  A    between atoms: C_38  and  C_40
REMARK                            x       y       z     vdW  Elec       q    Type
REMARK                         _______ _______ _______ _____ _____    ______ ____
ROOT
ATOM      1  C   UNL     1      -7.260   0.188  -2.479  0.00  0.00    +0.059 C 
ATOM      2  C   UNL     1      -8.473  -0.176  -3.299  0.00  0.00    +0.000 A 
ATOM      3  C   UNL     1      -8.296  -0.469  -4.643  0.00  0.00    +0.007 A 
ATOM      4  C   UNL     1      -9.377  -0.812  -5.430  0.00  0.00    +0.001 A 
ATOM      5  C   UNL     1     -10.645  -0.866  -4.880  0.00  0.00    +0.004 A 
ATOM      6  C   UNL     1     -10.827  -0.575  -3.544  0.00  0.00    +0.046 A 
ATOM      7  C   UNL     1      -9.741  -0.225  -2.748  0.00  0.00    +0.133 A 
ATOM      8  O   UNL     1      -9.968   0.074  -1.440  0.00  0.00    -0.443 OA
ATOM      9  C   UNL     1      -8.890   0.214  -0.642  0.00  0.00    +0.202 C 
ATOM     10  N   UNL     1      -8.892  -0.260   0.565  0.00  0.00    -0.131 NA
ATOM     11  C   UNL     1      -7.837  -0.156   1.385  0.00  0.00    +0.335 C 
ATOM     12  O   UNL     1      -7.913  -0.613   2.510  0.00  0.00    -0.250 OA
ATOM     13  N   UNL     1      -6.698   0.439   0.997  0.00  0.00    -0.224 N 
ATOM     14  C   UNL     1      -6.572   0.974  -0.228  0.00  0.00    +0.235 C 
ATOM     15  O   UNL     1      -5.524   1.497  -0.540  0.00  0.00    -0.274 OA
ATOM     16  C   UNL     1      -7.700   0.941  -1.219  0.00  0.00    +0.167 C 
ENDROOT
BRANCH   1  19
ATOM     17  N   UNL     1      -7.689   3.112  -3.194  0.00  0.00    -0.259 N 
ATOM     18  C   UNL     1      -7.167   2.087  -4.101  0.00  0.00    +0.218 C 
ATOM     19  C   UNL     1      -6.333   1.079  -3.308  0.00  0.00    +0.131 C 
ATOM     20  C   UNL     1      -5.396   1.824  -2.391  0.00  0.00    +0.228 C 
ATOM     21  O   UNL     1      -4.295   1.375  -2.154  0.00  0.00    -0.275 OA
ATOM     22  N   UNL     1      -5.782   2.987  -1.836  0.00  0.00    -0.240 N 
ATOM     23  C   UNL     1      -6.959   3.551  -2.157  0.00  0.00    +0.310 C 
ATOM     24  O   UNL     1      -7.375   4.478  -1.489  0.00  0.00    -0.252 OA
ATOM     25  H   UNL     1      -5.200   3.428  -1.197  0.00  0.00    +0.159 HD
BRANCH  18  26
ATOM     26  O   UNL     1      -6.348   2.705  -5.096  0.00  0.00    -0.373 OA
ATOM     27  H   UNL     1      -6.812   3.357  -5.639  0.00  0.00    +0.212 HD
ENDBRANCH  18  26
BRANCH  17  28
ATOM     28  C   UNL     1      -9.024   3.669  -3.426  0.00  0.00    +0.112 C 
BRANCH  28  29
ATOM     29  C   UNL     1      -8.907   4.937  -4.274  0.00  0.00    +0.019 C 
BRANCH  29  30
ATOM     30  C   UNL     1     -10.301   5.519  -4.516  0.00  0.00    +0.004 C 
BRANCH  30  32
ATOM     31  C   UNL     1      -9.650   6.425  -6.752  0.00  0.00    +0.007 C 
ATOM     32  C   UNL     1     -10.184   6.787  -5.365  0.00  0.00    -0.017 C 
ATOM     33  C   UNL     1     -11.562   7.437  -5.502  0.00  0.00    +0.007 C 
ENDBRANCH  30  32
ENDBRANCH  29  30
ENDBRANCH  28  29
ENDBRANCH  17  28
ENDBRANCH   1  19
BRANCH  13  34
ATOM     34  C   UNL     1      -5.569   0.505   1.928  0.00  0.00    +0.118 C 
BRANCH  34  35
ATOM     35  C   UNL     1      -4.694  -0.739   1.758  0.00  0.00    +0.020 C 
BRANCH  35  36
ATOM     36  C   UNL     1      -3.459  -0.620   2.654  0.00  0.00    +0.004 C 
BRANCH  36  37
ATOM     37  C   UNL     1      -2.584  -1.864   2.484  0.00  0.00    -0.017 C 
ATOM     38  C   UNL     1      -1.291  -1.690   3.283  0.00  0.00    +0.007 C 
ATOM     39  C   UNL     1      -3.339  -3.092   2.996  0.00  0.00    +0.007 C 
ENDBRANCH  36  37
ENDBRANCH  35  36
ENDBRANCH  34  35
ENDBRANCH  13  34
TORSDOF 10
