REMARK  Name = ZINC60241481
REMARK  9 active torsions:
REMARK  status: ('A' for Active; 'I' for Inactive)
REMARK    1  A    between atoms: C_1  and  C_2
REMARK    2  A    between atoms: C_7  and  C_9
REMARK    3  A    between atoms: C_7  and  C_10
REMARK    4  A    between atoms: N_13  and  C_17
REMARK    5  A    between atoms: C_17  and  C_18
REMARK    6  A    between atoms: N_20  and  C_21
REMARK    7  A    between atoms: C_21  and  C_22
REMARK    8  A    between atoms: C_21  and  C_23
REMARK    9  A    between atoms: C_21  and  C_24
REMARK                            x       y       z     vdW  Elec       q    Type
REMARK                         _______ _______ _______ _____ _____    ______ ____
ROOT
ATOM      1  C   UNL     1      -1.971  -4.111  -3.059  0.00  0.00    +0.213 C 
ENDROOT
BRANCH   1  13
ATOM      2  C   UNL     1       0.277   1.609  -0.291  0.00  0.00    +0.007 C 
ATOM      3  C   UNL     1       0.284   0.077  -0.260  0.00  0.00    -0.011 C 
ATOM      4  C   UNL     1      -1.153  -0.432  -0.136  0.00  0.00    +0.038 C 
ATOM      5  C   UNL     1      -1.162  -1.955  -0.153  0.00  0.00    +0.113 C 
ATOM      6  C   UNL     1      -0.248  -2.560   0.893  0.00  0.00    +0.041 C 
ATOM      7  C   UNL     1       1.125  -1.923   1.012  0.00  0.00    -0.032 C 
ATOM      8  C   UNL     1       1.074  -0.400   0.957  0.00  0.00    +0.009 C 
ATOM      9  C   UNL     1       1.722  -2.324   2.379  0.00  0.00    +0.011 C 
ATOM     10  C   UNL     1       2.067  -2.456  -0.072  0.00  0.00    +0.011 C 
ATOM     11  C   UNL     1      -0.870  -2.479  -1.538  0.00  0.00    +0.247 C 
ATOM     12  O   UNL     1       0.075  -2.224  -2.253  0.00  0.00    -0.273 OA
ATOM     13  N   UNL     1      -1.906  -3.288  -1.849  0.00  0.00    -0.215 N 
ATOM     14  C   UNL     1      -2.862  -3.243  -0.915  0.00  0.00    +0.310 C 
ATOM     15  O   UNL     1      -3.899  -3.873  -0.978  0.00  0.00    -0.252 OA
ATOM     16  N   UNL     1      -2.543  -2.423   0.102  0.00  0.00    -0.285 N 
ATOM     17  H   UNL     1      -3.096  -2.179   0.858  0.00  0.00    +0.151 HD
ENDBRANCH   1  13
BRANCH   1  18
ATOM     18  C   UNL     1      -1.366  -5.463  -2.780  0.00  0.00    +0.232 C 
ATOM     19  O   UNL     1      -0.924  -5.714  -1.679  0.00  0.00    -0.274 OA
ATOM     20  N   UNL     1      -1.316  -6.392  -3.755  0.00  0.00    -0.305 N 
ATOM     21  H   UNL     1      -1.669  -6.191  -4.636  0.00  0.00    +0.150 HD
BRANCH  20  22
ATOM     22  C   UNL     1      -0.728  -7.706  -3.484  0.00  0.00    +0.054 C 
ATOM     23  C   UNL     1       0.741  -7.537  -3.090  0.00  0.00    +0.036 C 
ATOM     24  C   UNL     1      -1.489  -8.380  -2.340  0.00  0.00    +0.036 C 
BRANCH  22  25
ATOM     25  C   UNL     1      -0.820  -8.562  -4.721  0.00  0.00    -0.021 A 
ATOM     26  C   UNL     1       0.069  -9.605  -4.906  0.00  0.00    +0.009 A 
ATOM     27  C   UNL     1      -0.012 -10.392  -6.040  0.00  0.00    +0.050 A 
ATOM     28  C   UNL     1      -0.985 -10.137  -6.995  0.00  0.00    +0.162 A 
ATOM     29  C   UNL     1      -1.880  -9.090  -6.807  0.00  0.00    +0.162 A 
ATOM     30  C   UNL     1      -1.796  -8.307  -5.665  0.00  0.00    +0.055 A 
ATOM     31  O   UNL     1      -2.848  -8.828  -7.728  0.00  0.00    -0.485 OA
ATOM     32  C   UNL     1      -2.670  -9.399  -9.029  0.00  0.00    +0.270 C 
ATOM     33  C   UNL     1      -2.268 -10.870  -8.857  0.00  0.00    +0.270 C 
ATOM     34  O   UNL     1      -1.049 -10.918  -8.108  0.00  0.00    -0.485 OA
ENDBRANCH  22  25
ENDBRANCH  20  22
ENDBRANCH   1  18
TORSDOF 4
