REMARK  Name = ZINC15991385
REMARK  5 active torsions:
REMARK  status: ('A' for Active; 'I' for Inactive)
REMARK    1  A    between atoms: C_6  and  S_7
REMARK    2  A    between atoms: S_7  and  N_10
REMARK    3  A    between atoms: C_13  and  C_16
REMARK    4  A    between atoms: N_18  and  N_19
REMARK    5  A    between atoms: C_20  and  C_22
REMARK                            x       y       z     vdW  Elec       q    Type
REMARK                         _______ _______ _______ _____ _____    ______ ____
ROOT
ATOM      1  C   UNL     1       3.475   6.339   0.003  0.00  0.00    +0.232 C 
ATOM      2  O   UNL     1       4.531   5.744  -0.011  0.00  0.00    -0.274 OA
ATOM      3  N   UNL     1       2.315   5.653   0.010  0.00  0.00    -0.234 N 
ATOM      4  H   UNL     1       1.470   6.129   0.021  0.00  0.00    +0.173 HD
ENDROOT
BRANCH   1   8
ATOM      5  N   UNL     1       4.046  10.396  -1.063  0.00  0.00    -0.177 NA
ATOM      6  C   UNL     1       4.877   9.902   0.043  0.00  0.00    +0.110 C 
ATOM      7  C   UNL     1       4.896   8.371  -0.000  0.00  0.00    +0.030 C 
ATOM      8  C   UNL     1       3.459   7.846   0.011  0.00  0.00    +0.079 C 
ATOM      9  C   UNL     1       2.719   8.355  -1.228  0.00  0.00    +0.030 C 
ATOM     10  C   UNL     1       2.675   9.886  -1.199  0.00  0.00    +0.110 C 
BRANCH   5  11
ATOM     11  S   UNL     1       4.643  11.507  -2.137  0.00  0.00    +0.061 S 
ATOM     12  O   UNL     1       3.521  12.180  -2.691  0.00  0.00    -0.153 OA
ATOM     13  O   UNL     1       5.690  12.196  -1.467  0.00  0.00    -0.153 OA
BRANCH  11  19
ATOM     14  C   UNL     1       6.731  10.268  -3.384  0.00  0.00    +0.030 A 
ATOM     15  C   UNL     1       7.318   9.559  -4.414  0.00  0.00    +0.022 A 
ATOM     16  C   UNL     1       6.570   9.197  -5.520  0.00  0.00    +0.041 A 
ATOM     17  C   UNL     1       5.232   9.543  -5.592  0.00  0.00    +0.022 A 
ATOM     18  C   UNL     1       4.644  10.248  -4.558  0.00  0.00    +0.030 A 
ATOM     19  C   UNL     1       5.393  10.608  -3.454  0.00  0.00    +0.106 A 
ATOM     20 CL   UNL     1       7.308   8.311  -6.817  0.00  0.00    -0.084 Cl
ENDBRANCH  11  19
ENDBRANCH   5  11
ENDBRANCH   1   8
BRANCH   3  21
ATOM     21  N   UNL     1       2.329   4.252   0.003  0.00  0.00    -0.230 N 
ATOM     22  C   UNL     1       1.169   3.566   0.010  0.00  0.00    +0.260 C 
ATOM     23  O   UNL     1       0.110   4.163   0.023  0.00  0.00    -0.269 OA
ATOM     24  H   UNL     1       3.174   3.776  -0.008  0.00  0.00    +0.173 HD
BRANCH  22  25
ATOM     25  C   UNL     1       1.185   2.090   0.002  0.00  0.00    +0.042 A 
ATOM     26  C   UNL     1       2.401   1.403  -0.013  0.00  0.00    +0.017 A 
ATOM     27  C   UNL     1       2.413   0.025  -0.021  0.00  0.00    +0.050 A 
ATOM     28  C   UNL     1       1.220  -0.685  -0.013  0.00  0.00    +0.166 A 
ATOM     29  C   UNL     1       0.002  -0.004   0.002  0.00  0.00    +0.167 A 
ATOM     30  C   UNL     1      -0.017   1.377   0.010  0.00  0.00    +0.062 A 
ATOM     31  O   UNL     1      -1.009  -0.921   0.007  0.00  0.00    -0.453 OA
ATOM     32  C   UNL     1      -0.407  -2.158  -0.418  0.00  0.00    +0.466 C 
ATOM     33  O   UNL     1       0.969  -2.025  -0.017  0.00  0.00    -0.453 OA
ENDBRANCH  22  25
ENDBRANCH   3  21
TORSDOF 5
