REMARK  Name = ZINC18196319
REMARK  4 active torsions:
REMARK  status: ('A' for Active; 'I' for Inactive)
REMARK    1  A    between atoms: C_3  and  C_6
REMARK    2  A    between atoms: C_11  and  C_21
REMARK    3  A    between atoms: C_18  and  O_19
REMARK    4  A    between atoms: C_26  and  O_27
REMARK                            x       y       z     vdW  Elec       q    Type
REMARK                         _______ _______ _______ _____ _____    ______ ____
ROOT
ATOM      1  C   UNL     1       3.935   4.556   4.856  0.00  0.00    +0.039 C 
ATOM      2  C   UNL     1       4.717   3.815   3.770  0.00  0.00    +0.060 C 
ATOM      3  C   UNL     1       3.763   3.030   2.900  0.00  0.00    +0.017 C 
ATOM      4  C   UNL     1       2.620   2.521   3.410  0.00  0.00    +0.024 C 
ATOM      5  C   UNL     1       1.649   1.712   2.579  0.00  0.00    +0.096 C 
ATOM      6  C   UNL     1       1.973   1.874   1.121  0.00  0.00    +0.067 A 
ATOM      7  C   UNL     1       3.152   2.419   0.687  0.00  0.00    +0.126 A 
ATOM      8  N   UNL     1       3.134   2.422  -0.659  0.00  0.00    -0.260 N 
ATOM      9  H   UNL     1       3.858   2.762  -1.258  0.00  0.00    +0.190 HD
ATOM     10  N   UNL     1       1.913   1.862  -1.071  0.00  0.00    -0.134 NA
ATOM     11  C   UNL     1       1.224   1.533  -0.001  0.00  0.00    +0.237 A 
ATOM     12  N   UNL     1       4.118   2.863   1.583  0.00  0.00    -0.303 N 
ATOM     13  C   UNL     1       2.278   2.728   4.759  0.00  0.00    +0.162 C 
ATOM     14  O   UNL     1       1.246   2.252   5.189  0.00  0.00    -0.292 OA
ATOM     15  C   UNL     1       3.159   3.523   5.680  0.00  0.00    +0.088 C 
ATOM     16  H   UNL     1       5.019   3.059   1.283  0.00  0.00    +0.153 HD
ENDROOT
BRANCH   5  17
ATOM     17  C   UNL     1       1.757   0.257   2.957  0.00  0.00    +0.008 A 
ATOM     18  C   UNL     1       2.958  -0.409   2.806  0.00  0.00    +0.028 A 
ATOM     19  C   UNL     1       3.058  -1.744   3.154  0.00  0.00    +0.041 A 
ATOM     20  C   UNL     1       1.956  -2.416   3.653  0.00  0.00    +0.023 A 
ATOM     21  C   UNL     1       0.754  -1.753   3.806  0.00  0.00    +0.047 A 
ATOM     22  C   UNL     1       0.653  -0.412   3.463  0.00  0.00    +0.121 A 
ATOM     23 CL   UNL     1       4.569  -2.579   2.963  0.00  0.00    -0.084 Cl
BRANCH  22  24
ATOM     24  O   UNL     1      -0.528   0.243   3.619  0.00  0.00    -0.506 OA
ATOM     25  H   UNL     1      -1.105   0.201   2.844  0.00  0.00    +0.292 HD
ENDBRANCH  22  24
ENDBRANCH   5  17
BRANCH   1  28
ATOM     26  C   UNL     1       5.934   7.104   6.862  0.00  0.00    +0.008 A 
ATOM     27  C   UNL     1       4.967   6.636   5.992  0.00  0.00    +0.011 A 
ATOM     28  C   UNL     1       4.891   5.304   5.749  0.00  0.00    -0.006 A 
ATOM     29  S   UNL     1       6.222   4.668   6.755  0.00  0.00    -0.101 S 
ATOM     30  C   UNL     1       6.785   6.219   7.437  0.00  0.00    +0.045 A 
ENDBRANCH   1  28
BRANCH  11  31
ATOM     31  O   UNL     1      -0.011   0.963   0.007  0.00  0.00    -0.491 OA
ATOM     32  H   UNL     1      -0.321   0.824  -0.933  0.00  0.00    +0.294 HD
ENDBRANCH  11  31
TORSDOF 4
