REMARK  Name = ZINC25061901
REMARK  12 active torsions:
REMARK  status: ('A' for Active; 'I' for Inactive)
REMARK    1  A    between atoms: C_1  and  C_2
REMARK    2  A    between atoms: N_5  and  C_11
REMARK    3  A    between atoms: C_7  and  C_10
REMARK    4  A    between atoms: C_11  and  C_12
REMARK    5  A    between atoms: N_17  and  C_18
REMARK    6  A    between atoms: C_18  and  C_20
REMARK    7  A    between atoms: C_23  and  S_26
REMARK    8  A    between atoms: S_26  and  N_29
REMARK    9  A    between atoms: N_29  and  C_30
REMARK   10  A    between atoms: C_30  and  C_31
REMARK   11  A    between atoms: C_30  and  C_32
REMARK   12  A    between atoms: C_30  and  C_33
REMARK                            x       y       z     vdW  Elec       q    Type
REMARK                         _______ _______ _______ _____ _____    ______ ____
ROOT
ATOM      1  C   UNL     1      -1.371  -5.265  -2.968  0.00  0.00    +0.269 C 
ATOM      2  O   UNL     1      -1.938  -5.018  -1.922  0.00  0.00    -0.268 OA
ENDROOT
BRANCH   1   8
ATOM      3  C   UNL     1      -0.976  -0.648  -3.434  0.00  0.00    +0.039 A 
ATOM      4  C   UNL     1      -1.625  -0.590  -2.246  0.00  0.00    +0.071 A 
ATOM      5  S   UNL     1      -1.862  -2.329  -1.911  0.00  0.00    -0.060 S 
ATOM      6  C   UNL     1      -1.095  -2.941  -3.343  0.00  0.00    +0.163 A 
ATOM      7  N   UNL     1      -0.730  -1.833  -3.958  0.00  0.00    -0.338 N 
ATOM      8  N   UNL     1      -0.916  -4.260  -3.742  0.00  0.00    -0.152 NA
ATOM      9  H   UNL     1      -0.211  -1.910  -4.925  0.00  0.00    +0.167 HD
BRANCH   3  10
ATOM     10  C   UNL     1      -0.549   0.612  -4.143  0.00  0.00    +0.138 C 
BRANCH  10  14
ATOM     11  C   UNL     1       4.153  -0.789  -4.525  0.00  0.00    +0.039 C 
ATOM     12  C   UNL     1       3.190   0.224  -3.905  0.00  0.00    +0.130 C 
ATOM     13  C   UNL     1       1.757  -0.102  -4.335  0.00  0.00    +0.116 C 
ATOM     14  N   UNL     1       0.845   0.919  -3.799  0.00  0.00    -0.292 NA
ATOM     15  C   UNL     1       1.223   2.257  -4.276  0.00  0.00    +0.116 C 
ATOM     16  C   UNL     1       2.661   2.560  -3.845  0.00  0.00    +0.130 C 
ATOM     17  O   UNL     1       3.528   1.541  -4.350  0.00  0.00    -0.371 OA
ATOM     18  C   UNL     1       3.087   3.918  -4.407  0.00  0.00    +0.039 C 
ENDBRANCH  10  14
ENDBRANCH   3  10
ENDBRANCH   1   8
BRANCH   1  19
ATOM     19  C   UNL     1      -1.181  -6.668  -3.392  0.00  0.00    +0.039 A 
ATOM     20  C   UNL     1      -0.536  -6.955  -4.596  0.00  0.00    +0.015 A 
ATOM     21  C   UNL     1      -0.356  -8.267  -4.983  0.00  0.00    +0.029 A 
ATOM     22  C   UNL     1      -0.825  -9.297  -4.187  0.00  0.00    +0.105 A 
ATOM     23  C   UNL     1      -1.471  -9.019  -2.995  0.00  0.00    +0.029 A 
ATOM     24  C   UNL     1      -1.652  -7.712  -2.594  0.00  0.00    +0.015 A 
BRANCH  22  25
ATOM     25  S   UNL     1      -0.597 -10.970  -4.692  0.00  0.00    +0.059 S 
ATOM     26  O   UNL     1       0.358 -10.950  -5.744  0.00  0.00    -0.153 OA
ATOM     27  O   UNL     1      -0.408 -11.730  -3.506  0.00  0.00    -0.153 OA
BRANCH  25  28
ATOM     28  N   UNL     1      -2.025 -11.479  -5.358  0.00  0.00    -0.185 NA
ATOM     29  H   UNL     1      -2.691 -12.128  -4.770  0.00  0.00    +0.149 HD
BRANCH  28  30
ATOM     30  C   UNL     1      -2.494 -10.897  -6.618  0.00  0.00    +0.032 C 
ATOM     31  C   UNL     1      -1.540 -11.290  -7.747  0.00  0.00    +0.029 C 
ATOM     32  C   UNL     1      -3.897 -11.421  -6.930  0.00  0.00    +0.029 C 
ATOM     33  C   UNL     1      -2.535  -9.373  -6.491  0.00  0.00    +0.029 C 
ENDBRANCH  28  30
ENDBRANCH  25  28
ENDBRANCH  22  25
ENDBRANCH   1  19
TORSDOF 7
