REMARK  Name = ZINC63920246
REMARK  8 active torsions:
REMARK  status: ('A' for Active; 'I' for Inactive)
REMARK    1  A    between atoms: C_4  and  C_7
REMARK    2  A    between atoms: C_7  and  C_8
REMARK    3  A    between atoms: C_8  and  C_10
REMARK    4  A    between atoms: C_8  and  N_32
REMARK    5  A    between atoms: N_12  and  C_13
REMARK    6  A    between atoms: C_13  and  C_14
REMARK    7  A    between atoms: C_14  and  C_16
REMARK    8  A    between atoms: C_14  and  C_23
REMARK                            x       y       z     vdW  Elec       q    Type
REMARK                         _______ _______ _______ _____ _____    ______ ____
ROOT
ATOM      1  C   UNL     1       5.543  -1.588   1.383  0.00  0.00    +0.234 C 
ATOM      2  O   UNL     1       5.665  -2.786   1.529  0.00  0.00    -0.274 OA
ATOM      3  N   UNL     1       6.633  -0.816   1.207  0.00  0.00    -0.313 N 
ATOM      4  H   UNL     1       6.535   0.142   1.091  0.00  0.00    +0.149 HD
ENDROOT
BRANCH   1   5
ATOM      5  C   UNL     1       4.171  -0.963   1.399  0.00  0.00    +0.165 C 
BRANCH   5   6
ATOM      6  N   UNL     1       3.229  -1.870   2.059  0.00  0.00    -0.288 N 
ATOM      7  C   UNL     1       3.018  -3.104   1.560  0.00  0.00    +0.298 C 
ATOM      8  O   UNL     1       3.611  -3.465   0.561  0.00  0.00    -0.253 OA
ATOM      9  N   UNL     1       2.151  -3.938   2.167  0.00  0.00    -0.313 N 
ATOM     10  H   UNL     1       2.756  -1.582   2.856  0.00  0.00    +0.151 HD
ATOM     11  H   UNL     1       1.679  -3.650   2.964  0.00  0.00    +0.146 HD
ATOM     12  H   UNL     1       2.000  -4.826   1.808  0.00  0.00    +0.146 HD
ENDBRANCH   5   6
BRANCH   5  13
ATOM     13  C   UNL     1       3.711  -0.707  -0.038  0.00  0.00    +0.067 C 
BRANCH  13  17
ATOM     14  C   UNL     1      -0.017   1.378   0.010  0.00  0.00    +0.000 A 
ATOM     15  C   UNL     1       1.171   2.086   0.002  0.00  0.00    +0.000 A 
ATOM     16  C   UNL     1       2.377   1.411  -0.013  0.00  0.00    +0.004 A 
ATOM     17  C   UNL     1       2.396   0.029  -0.020  0.00  0.00    -0.045 A 
ATOM     18  C   UNL     1       1.208  -0.679  -0.012  0.00  0.00    +0.004 A 
ATOM     19  C   UNL     1       0.002  -0.004   0.002  0.00  0.00    +0.000 A 
ENDBRANCH  13  17
ENDBRANCH   5  13
ENDBRANCH   1   5
BRANCH   3  20
ATOM     20  C   UNL     1       7.966  -1.424   1.192  0.00  0.00    +0.116 C 
BRANCH  20  21
ATOM     21  C   UNL     1       9.020  -0.336   0.978  0.00  0.00    +0.066 C 
BRANCH  21  22
ATOM     22  C   UNL     1      10.396  -0.942   1.085  0.00  0.00    -0.033 C 
ATOM     23  C   UNL     1      11.363  -0.612   1.971  0.00  0.00    -0.000 A 
ATOM     24  C   UNL     1      11.421   0.371   3.059  0.00  0.00    +0.010 A 
ATOM     25  C   UNL     1      12.553   0.473   3.792  0.00  0.00    +0.001 A 
ATOM     26  C   UNL     1      13.670  -0.335   3.538  0.00  0.00    +0.002 A 
ATOM     27  C   UNL     1      13.693  -1.261   2.556  0.00  0.00    +0.026 A 
ATOM     28  C   UNL     1      12.555  -1.454   1.724  0.00  0.00    +0.043 A 
ATOM     29  N   UNL     1      12.335  -2.271   0.723  0.00  0.00    -0.380 N 
ATOM     30  C   UNL     1      10.973  -2.045   0.226  0.00  0.00    +0.145 C 
ATOM     31  H   UNL     1      12.964  -2.920   0.373  0.00  0.00    +0.160 HD
ENDBRANCH  21  22
BRANCH  21  32
ATOM     32  C   UNL     1       8.844   0.272  -0.390  0.00  0.00    -0.020 A 
ATOM     33  C   UNL     1       8.942  -0.521  -1.517  0.00  0.00    +0.006 A 
ATOM     34  C   UNL     1       8.780   0.036  -2.771  0.00  0.00    +0.000 A 
ATOM     35  C   UNL     1       8.520   1.388  -2.899  0.00  0.00    +0.001 A 
ATOM     36  C   UNL     1       8.421   2.183  -1.773  0.00  0.00    +0.020 A 
ATOM     37  C   UNL     1       8.577   1.624  -0.516  0.00  0.00    +0.045 A 
ATOM     38 CL   UNL     1       8.447   2.620   0.899  0.00  0.00    -0.083 Cl
ENDBRANCH  21  32
ENDBRANCH  20  21
ENDBRANCH   3  20
TORSDOF 8
