REMARK  Name = ZINC23466162
REMARK  5 active torsions:
REMARK  status: ('A' for Active; 'I' for Inactive)
REMARK    1  A    between atoms: C_4  and  C_7
REMARK    2  A    between atoms: C_7  and  O_30
REMARK    3  A    between atoms: N_10  and  C_12
REMARK    4  A    between atoms: C_12  and  C_13
REMARK    5  A    between atoms: C_17  and  C_19
REMARK                            x       y       z     vdW  Elec       q    Type
REMARK                         _______ _______ _______ _____ _____    ______ ____
ROOT
ATOM      1  C   UNL     1       1.125   2.103  -0.002  0.00  0.00    -0.033 A 
ATOM      2  C   UNL     1      -0.061   1.390   0.020  0.00  0.00    +0.005 A 
ATOM      3  C   UNL     1      -0.045   0.006   0.008  0.00  0.00    +0.001 A 
ATOM      4  C   UNL     1       1.156  -0.672  -0.026  0.00  0.00    +0.011 A 
ATOM      5  C   UNL     1       2.356   0.041  -0.049  0.00  0.00    +0.018 A 
ATOM      6  C   UNL     1       2.332   1.437  -0.036  0.00  0.00    +0.016 A 
ENDROOT
BRANCH   5   7
ATOM      7  C   UNL     1       3.646  -0.679  -0.086  0.00  0.00    +0.141 A 
ATOM      8  N   UNL     1       3.652  -2.042  -0.093  0.00  0.00    -0.307 N 
ATOM      9  H   UNL     1       2.702  -2.596  -0.065  0.00  0.00    +0.170 HD
ATOM     10  C   UNL     1       4.828  -2.703  -0.133  0.00  0.00    +0.255 A 
ATOM     11  O   UNL     1       4.855  -3.922  -0.144  0.00  0.00    -0.268 OA
ATOM     12  C   UNL     1       6.025  -1.958  -0.154  0.00  0.00    +0.038 A 
ATOM     13  C   UNL     1       5.958  -0.597  -0.141  0.00  0.00    +0.052 A 
ATOM     14  N   UNL     1       4.768   0.007  -0.107  0.00  0.00    -0.234 NA
ATOM     15  C   UNL     1       7.354  -0.011  -0.170  0.00  0.00    +0.056 C 
ATOM     16  C   UNL     1       8.287  -1.173   0.235  0.00  0.00    +0.011 C 
ATOM     17  C   UNL     1       7.468  -2.410  -0.192  0.00  0.00    +0.043 C 
ENDBRANCH   5   7
BRANCH   1  18
ATOM     18  C   UNL     1       1.097   3.609   0.011  0.00  0.00    +0.119 C 
BRANCH  18  22
ATOM     19  C   UNL     1       1.686   6.052   2.655  0.00  0.00    +0.105 C 
ATOM     20  C   UNL     1       2.972   5.195   2.517  0.00  0.00    +0.056 C 
ATOM     21  C   UNL     1       2.433   3.836   2.023  0.00  0.00    +0.088 C 
ATOM     22  N   UNL     1       1.120   4.088   1.400  0.00  0.00    -0.295 NA
ATOM     23  C   UNL     1       0.838   5.537   1.466  0.00  0.00    +0.124 C 
BRANCH  19  27
ATOM     24  C   UNL     1       2.564  10.210   2.225  0.00  0.00    +0.000 A 
ATOM     25  C   UNL     1       2.952   9.317   1.244  0.00  0.00    +0.000 A 
ATOM     26  C   UNL     1       2.668   7.971   1.383  0.00  0.00    +0.006 A 
ATOM     27  C   UNL     1       1.996   7.519   2.503  0.00  0.00    -0.015 A 
ATOM     28  C   UNL     1       1.603   8.413   3.482  0.00  0.00    +0.006 A 
ATOM     29  C   UNL     1       1.893   9.758   3.345  0.00  0.00    +0.000 A 
ENDBRANCH  19  27
BRANCH  19  30
ATOM     30  O   UNL     1       1.031   5.796   3.899  0.00  0.00    -0.383 OA
ATOM     31  H   UNL     1       0.736   4.770   4.164  0.00  0.00    +0.211 HD
ENDBRANCH  19  30
ENDBRANCH  18  22
ENDBRANCH   1  18
TORSDOF 5
