REMARK  Name = ZINC22666885
REMARK  8 active torsions:
REMARK  status: ('A' for Active; 'I' for Inactive)
REMARK    1  A    between atoms: C_1  and  C_2
REMARK    2  A    between atoms: C_3  and  C_14
REMARK    3  A    between atoms: N_5  and  C_7
REMARK    4  A    between atoms: C_15  and  C_16
REMARK    5  A    between atoms: C_16  and  O_18
REMARK    6  A    between atoms: O_18  and  C_19
REMARK    7  A    between atoms: C_19  and  C_20
REMARK    8  A    between atoms: C_25  and  C_28
REMARK                            x       y       z     vdW  Elec       q    Type
REMARK                         _______ _______ _______ _____ _____    ______ ____
ROOT
ATOM      1  C   UNL     1      -5.225   0.855  -0.460  0.00  0.00    +0.332 C 
ATOM      2  O   UNL     1      -5.038   1.351  -1.556  0.00  0.00    -0.246 OA
ENDROOT
BRANCH   1   4
ATOM      3  C   UNL     1      -3.113   1.686   0.311  0.00  0.00    +0.020 C 
ATOM      4  C   UNL     1      -4.252   0.999   0.557  0.00  0.00    +0.092 C 
BRANCH   3   7
ATOM      5  C   UNL     1      -0.013   1.086   0.008  0.00  0.00    +0.068 C 
ATOM      6  C   UNL     1      -0.718   1.572   1.248  0.00  0.00    +0.069 A 
ATOM      7  C   UNL     1      -2.104   1.835   1.367  0.00  0.00    +0.035 A 
ATOM      8  C   UNL     1      -2.328   2.256   2.667  0.00  0.00    +0.140 A 
ATOM      9  N   UNL     1      -1.138   2.257   3.299  0.00  0.00    -0.221 N 
ATOM     10  N   UNL     1      -0.157   1.829   2.397  0.00  0.00    -0.170 NA
ATOM     11 CL   UNL     1      -3.857   2.707   3.354  0.00  0.00    -0.061 Cl
BRANCH   9  12
ATOM     12  C   UNL     1      -0.919   2.623   4.633  0.00  0.00    +0.067 A 
ATOM     13  C   UNL     1      -1.663   3.647   5.205  0.00  0.00    +0.028 A 
ATOM     14  C   UNL     1      -1.449   4.002   6.522  0.00  0.00    +0.002 A 
ATOM     15  C   UNL     1      -0.486   3.348   7.268  0.00  0.00    +0.000 A 
ATOM     16  C   UNL     1       0.260   2.331   6.701  0.00  0.00    +0.002 A 
ATOM     17  C   UNL     1       0.047   1.968   5.385  0.00  0.00    +0.028 A 
ENDBRANCH   9  12
ENDBRANCH   3   7
ENDBRANCH   1   4
BRANCH   1  18
ATOM     18  O   UNL     1      -6.361   0.169  -0.215  0.00  0.00    -0.452 OA
BRANCH  18  19
ATOM     19  C   UNL     1      -7.300   0.064  -1.288  0.00  0.00    +0.328 C 
BRANCH  19  20
ATOM     20  C   UNL     1      -8.496  -0.730  -0.832  0.00  0.00    +0.253 C 
ATOM     21  O   UNL     1      -8.541  -1.164   0.299  0.00  0.00    -0.272 OA
ATOM     22  N   UNL     1      -9.517  -0.959  -1.683  0.00  0.00    -0.299 N 
ATOM     23  C   UNL     1      -9.480  -0.435  -3.055  0.00  0.00    +0.108 C 
ATOM     24  C   UNL     1     -10.752   0.369  -3.315  0.00  0.00    +0.032 C 
ATOM     25  C   UNL     1     -11.974  -0.499  -3.006  0.00  0.00    +0.078 C 
ATOM     26  C   UNL     1     -11.952  -0.908  -1.532  0.00  0.00    +0.032 C 
ATOM     27  C   UNL     1     -10.690  -1.732  -1.253  0.00  0.00    +0.108 C 
BRANCH  25  28
ATOM     28  C   UNL     1     -13.230   0.282  -3.292  0.00  0.00    +0.214 C 
ATOM     29  O   UNL     1     -14.030   0.491  -2.404  0.00  0.00    -0.276 OA
ATOM     30  N   UNL     1     -13.466   0.748  -4.534  0.00  0.00    -0.329 N 
ATOM     31  H   UNL     1     -14.384   1.319  -4.742  0.00  0.00    +0.145 HD
ATOM     32  H   UNL     1     -12.742   0.559  -5.340  0.00  0.00    +0.145 HD
ENDBRANCH  25  28
ENDBRANCH  19  20
ENDBRANCH  18  19
ENDBRANCH   1  18
TORSDOF 7
