REMARK  Name = ZINC35548790
REMARK  7 active torsions:
REMARK  status: ('A' for Active; 'I' for Inactive)
REMARK    1  A    between atoms: C_1  and  C_2
REMARK    2  A    between atoms: C_5  and  C_14
REMARK    3  A    between atoms: C_6  and  C_7
REMARK    4  A    between atoms: C_6  and  C_8
REMARK    5  A    between atoms: N_16  and  N_17
REMARK    6  A    between atoms: C_18  and  C_20
REMARK    7  A    between atoms: C_23  and  N_26
REMARK                            x       y       z     vdW  Elec       q    Type
REMARK                         _______ _______ _______ _____ _____    ______ ____
ROOT
ATOM      1  C   UNL     1       1.007  -3.261   1.615  0.00  0.00    +0.237 C 
ATOM      2  O   UNL     1       1.582  -2.983   2.646  0.00  0.00    -0.274 OA
ATOM      3  N   UNL     1       0.845  -4.552   1.262  0.00  0.00    -0.234 N 
ATOM      4  H   UNL     1       0.385  -4.775   0.438  0.00  0.00    +0.173 HD
ENDROOT
BRANCH   1   9
ATOM      5  C   UNL     1      -0.019   1.526   0.010  0.00  0.00    +0.020 C 
ATOM      6  C   UNL     1       0.002  -0.004   0.002  0.00  0.00    +0.033 C 
ATOM      7  C   UNL     1       0.746  -0.667  -1.197  0.00  0.00    +0.016 C 
ATOM      8  C   UNL     1       1.065  -2.101  -0.713  0.00  0.00    +0.019 C 
ATOM      9  C   UNL     1       0.474  -2.165   0.729  0.00  0.00    +0.073 C 
ATOM     10  C   UNL     1       0.727  -0.692   1.212  0.00  0.00    -0.007 C 
ATOM     11  C   UNL     1       2.218  -0.351   1.258  0.00  0.00    +0.013 C 
ATOM     12  C   UNL     1       0.034  -0.396   2.543  0.00  0.00    +0.013 C 
ATOM     13  C   UNL     1      -1.070  -2.124   0.515  0.00  0.00    +0.139 C 
ATOM     14  C   UNL     1      -1.369  -0.692   0.058  0.00  0.00    +0.154 C 
ATOM     15  O   UNL     1      -2.442  -0.211  -0.217  0.00  0.00    -0.296 OA
ATOM     16 BR   UNL     1      -1.605  -3.426  -0.857  0.00  0.00    -0.079 Br
ENDBRANCH   1   9
BRANCH   3  17
ATOM     17  N   UNL     1       1.340  -5.571   2.086  0.00  0.00    -0.230 N 
ATOM     18  C   UNL     1       1.178  -6.862   1.732  0.00  0.00    +0.260 C 
ATOM     19  O   UNL     1       0.601  -7.141   0.699  0.00  0.00    -0.269 OA
ATOM     20  H   UNL     1       1.800  -5.348   2.910  0.00  0.00    +0.173 HD
BRANCH  18  21
ATOM     21  C   UNL     1       1.700  -7.937   2.602  0.00  0.00    +0.038 A 
ATOM     22  C   UNL     1       2.357  -7.620   3.791  0.00  0.00    +0.015 A 
ATOM     23  C   UNL     1       2.842  -8.629   4.598  0.00  0.00    +0.033 A 
ATOM     24  C   UNL     1       2.679  -9.952   4.230  0.00  0.00    +0.126 A 
ATOM     25  C   UNL     1       2.029 -10.274   3.052  0.00  0.00    +0.033 A 
ATOM     26  C   UNL     1       1.534  -9.275   2.239  0.00  0.00    +0.015 A 
BRANCH  24  27
ATOM     27  N   UNL     1       3.203 -11.029   5.100  0.00  0.00    +0.056 N 
ATOM     28  O   UNL     1       3.772 -10.751   6.130  0.00  0.00    -0.126 OA
ATOM     29  O   UNL     1       3.062 -12.187   4.780  0.00  0.00    -0.126 OA
ENDBRANCH  24  27
ENDBRANCH  18  21
ENDBRANCH   3  17
TORSDOF 4
