REMARK  Name = ZINC04713128
REMARK  8 active torsions:
REMARK  status: ('A' for Active; 'I' for Inactive)
REMARK    1  A    between atoms: C_1  and  C_2
REMARK    2  A    between atoms: C_4  and  C_25
REMARK    3  A    between atoms: C_9  and  N_13
REMARK    4  A    between atoms: N_13  and  N_14
REMARK    5  A    between atoms: C_15  and  C_16
REMARK    6  A    between atoms: C_15  and  C_17
REMARK    7  A    between atoms: C_20  and  O_23
REMARK    8  A    between atoms: O_23  and  C_24
REMARK                            x       y       z     vdW  Elec       q    Type
REMARK                         _______ _______ _______ _____ _____    ______ ____
ROOT
ATOM      1  C   UNL     1       0.742   2.712   9.420  0.00  0.00    +0.067 C 
ATOM      2  C   UNL     1       0.375   1.435   8.709  0.00  0.00    +0.061 A 
ATOM      3  C   UNL     1      -0.196   0.303   9.302  0.00  0.00    +0.048 A 
ATOM      4  C   UNL     1      -0.380  -0.626   8.336  0.00  0.00    +0.044 A 
ATOM      5  N   UNL     1       0.071  -0.099   7.168  0.00  0.00    -0.219 N 
ATOM      6  N   UNL     1       0.535   1.196   7.433  0.00  0.00    -0.170 NA
ATOM      7  C   UNL     1       0.068  -0.732   5.924  0.00  0.00    +0.159 A 
ATOM      8  C   UNL     1       0.047   0.015   4.753  0.00  0.00    +0.093 A 
ATOM      9  C   UNL     1       0.044  -0.664   3.536  0.00  0.00    +0.143 A 
ATOM     10  N   UNL     1       0.057  -1.996   3.540  0.00  0.00    -0.219 NA
ATOM     11  C   UNL     1       0.082  -2.667   4.673  0.00  0.00    +0.225 A 
ATOM     12  N   UNL     1       0.085  -2.060   5.843  0.00  0.00    -0.216 NA
ATOM     13  C   UNL     1      -0.974  -1.998   8.523  0.00  0.00    +0.066 C 
ENDROOT
BRANCH   9  14
ATOM     14  N   UNL     1       0.024   0.035   2.340  0.00  0.00    -0.221 N 
ATOM     15  H   UNL     1       0.011   1.005   2.345  0.00  0.00    +0.176 HD
BRANCH  14  16
ATOM     16  N   UNL     1       0.022  -0.659   1.123  0.00  0.00    -0.186 NA
ATOM     17  C   UNL     1       0.002  -0.004   0.002  0.00  0.00    +0.063 C 
ATOM     18  C   UNL     1      -0.018   1.503   0.010  0.00  0.00    +0.068 C 
BRANCH  17  19
ATOM     19  C   UNL     1      -0.000  -0.734  -1.279  0.00  0.00    -0.002 A 
ATOM     20  C   UNL     1      -0.027  -0.031  -2.486  0.00  0.00    +0.013 A 
ATOM     21  C   UNL     1      -0.023  -0.718  -3.681  0.00  0.00    +0.046 A 
ATOM     22  C   UNL     1      -0.005  -2.107  -3.686  0.00  0.00    +0.120 A 
ATOM     23  C   UNL     1       0.016  -2.810  -2.489  0.00  0.00    +0.046 A 
ATOM     24  C   UNL     1       0.019  -2.131  -1.289  0.00  0.00    +0.013 A 
BRANCH  22  25
ATOM     25  O   UNL     1      -0.007  -2.780  -4.867  0.00  0.00    -0.495 OA
ATOM     26  C   UNL     1      -0.029  -1.995  -6.061  0.00  0.00    +0.277 C 
ENDBRANCH  22  25
ENDBRANCH  17  19
ENDBRANCH  14  16
ENDBRANCH   9  14
TORSDOF 4
