REMARK  Name = ZINC12477239
REMARK  13 active torsions:
REMARK  status: ('A' for Active; 'I' for Inactive)
REMARK    1  A    between atoms: C_1  and  C_2
REMARK    2  A    between atoms: C_7  and  N_8
REMARK    3  A    between atoms: N_8  and  C_9
REMARK    4  A    between atoms: C_9  and  C_11
REMARK    5  A    between atoms: C_9  and  C_18
REMARK    6  A    between atoms: N_20  and  C_21
REMARK    7  A    between atoms: C_21  and  C_22
REMARK    8  A    between atoms: C_21  and  C_23
REMARK    9  A    between atoms: C_21  and  C_24
REMARK   10  A    between atoms: C_25  and  C_27
REMARK   11  A    between atoms: C_27  and  N_28
REMARK   12  A    between atoms: C_30  and  C_33
REMARK   13  A    between atoms: C_36  and  C_38
REMARK                            x       y       z     vdW  Elec       q    Type
REMARK                         _______ _______ _______ _____ _____    ______ ____
ROOT
ATOM      1  N   UNL     1      -1.303   1.296  -0.879  0.00  0.00    -0.254 N 
ATOM      2  C   UNL     1      -1.710   0.306  -1.698  0.00  0.00    +0.244 C 
ATOM      3  O   UNL     1      -1.097  -0.739  -1.738  0.00  0.00    -0.273 OA
ENDROOT
BRANCH   1  10
ATOM      4  C   UNL     1      -3.312   1.600   1.113  0.00  0.00    +0.045 C 
ATOM      5  C   UNL     1      -2.999   2.692   0.123  0.00  0.00    -0.029 A 
ATOM      6  C   UNL     1      -3.693   3.886   0.169  0.00  0.00    +0.005 A 
ATOM      7  C   UNL     1      -3.411   4.887  -0.743  0.00  0.00    +0.000 A 
ATOM      8  C   UNL     1      -2.430   4.698  -1.699  0.00  0.00    +0.002 A 
ATOM      9  C   UNL     1      -1.729   3.509  -1.747  0.00  0.00    +0.024 A 
ATOM     10  C   UNL     1      -2.011   2.502  -0.833  0.00  0.00    +0.040 A 
ENDBRANCH   1  10
BRANCH   1  11
ATOM     11  C   UNL     1      -0.119   1.109  -0.037  0.00  0.00    +0.197 C 
BRANCH  11  12
ATOM     12  C   UNL     1       0.040   2.296   0.878  0.00  0.00    -0.018 A 
ATOM     13  C   UNL     1       0.235   3.557   0.345  0.00  0.00    +0.007 A 
ATOM     14  C   UNL     1       0.375   4.647   1.183  0.00  0.00    +0.020 A 
ATOM     15  C   UNL     1       0.331   4.474   2.555  0.00  0.00    +0.041 A 
ATOM     16  C   UNL     1       0.142   3.212   3.088  0.00  0.00    +0.020 A 
ATOM     17  C   UNL     1      -0.004   2.123   2.248  0.00  0.00    +0.007 A 
ATOM     18 CL   UNL     1       0.514   5.842   3.609  0.00  0.00    -0.084 Cl
ENDBRANCH  11  12
BRANCH  11  19
ATOM     19  C   UNL     1       1.103   0.980  -0.909  0.00  0.00    +0.239 C 
ATOM     20  O   UNL     1       0.995   1.039  -2.116  0.00  0.00    -0.273 OA
ATOM     21  N   UNL     1       2.316   0.800  -0.349  0.00  0.00    -0.309 N 
ATOM     22  H   UNL     1       2.402   0.753   0.616  0.00  0.00    +0.149 HD
BRANCH  21  23
ATOM     23  C   UNL     1       3.503   0.674  -1.198  0.00  0.00    +0.026 C 
ATOM     24  C   UNL     1       3.668   1.944  -2.035  0.00  0.00    +0.031 C 
ATOM     25  C   UNL     1       4.740   0.479  -0.318  0.00  0.00    +0.031 C 
ATOM     26  C   UNL     1       3.342  -0.531  -2.126  0.00  0.00    +0.031 C 
ENDBRANCH  21  23
ENDBRANCH  11  19
ENDBRANCH   1  11
BRANCH   2  27
ATOM     27  C   UNL     1      -2.928   0.499  -2.564  0.00  0.00    +0.264 C 
BRANCH  27  28
ATOM     28  N   UNL     1      -3.161  -0.712  -3.356  0.00  0.00    -0.154 N 
ATOM     29  N   UNL     1      -2.676  -0.940  -4.528  0.00  0.00    -0.127 NA
ATOM     30  C   UNL     1      -3.102  -2.127  -4.917  0.00  0.00    +0.239 A 
ATOM     31  N   UNL     1      -3.873  -2.601  -3.925  0.00  0.00    -0.105 NA
ATOM     32  N   UNL     1      -3.885  -1.712  -2.992  0.00  0.00    -0.045 NA
BRANCH  30  33
ATOM     33  C   UNL     1      -2.794  -2.802  -6.196  0.00  0.00    +0.175 A 
ATOM     34  C   UNL     1      -3.241  -4.027  -6.580  0.00  0.00    +0.053 A 
ATOM     35  C   UNL     1      -2.707  -4.271  -7.861  0.00  0.00    +0.045 A 
ATOM     36  C   UNL     1      -1.962  -3.197  -8.189  0.00  0.00    +0.103 A 
ATOM     37  O   UNL     1      -2.016  -2.312  -7.180  0.00  0.00    -0.457 OA
ATOM     38  C   UNL     1      -1.194  -3.020  -9.473  0.00  0.00    +0.086 C 
ENDBRANCH  30  33
ENDBRANCH  27  28
ENDBRANCH   2  27
TORSDOF 8
