REMARK  Name = ZINC60189067
REMARK  4 active torsions:
REMARK  status: ('A' for Active; 'I' for Inactive)
REMARK    1  A    between atoms: C_3  and  C_10
REMARK    2  A    between atoms: C_5  and  N_7
REMARK    3  A    between atoms: N_12  and  C_13
REMARK    4  A    between atoms: N_12  and  C_18
REMARK                            x       y       z     vdW  Elec       q    Type
REMARK                         _______ _______ _______ _____ _____    ______ ____
ROOT
ATOM      1  C   UNL     1       3.494   2.451  -0.742  0.00  0.00    +0.247 C 
ATOM      2  O   UNL     1       2.529   2.387  -1.478  0.00  0.00    -0.270 OA
ATOM      3  N   UNL     1       3.641   3.504   0.087  0.00  0.00    -0.291 N 
ENDROOT
BRANCH   1   6
ATOM      4  C   UNL     1       6.793   0.664  -0.566  0.00  0.00    +0.003 A 
ATOM      5  C   UNL     1       5.854   1.675  -0.553  0.00  0.00    +0.013 A 
ATOM      6  C   UNL     1       4.506   1.373  -0.754  0.00  0.00    +0.039 A 
ATOM      7  C   UNL     1       4.118   0.049  -0.967  0.00  0.00    +0.045 A 
ATOM      8  C   UNL     1       5.067  -0.952  -0.977  0.00  0.00    +0.127 A 
ATOM      9  C   UNL     1       6.402  -0.645  -0.777  0.00  0.00    +0.033 A 
BRANCH   8  10
ATOM     10  N   UNL     1       4.657  -2.356  -1.202  0.00  0.00    +0.056 N 
ATOM     11  O   UNL     1       3.491  -2.625  -1.377  0.00  0.00    -0.126 OA
ATOM     12  O   UNL     1       5.488  -3.234  -1.211  0.00  0.00    -0.126 OA
ENDBRANCH   8  10
ENDBRANCH   1   6
BRANCH   3  13
ATOM     13  C   UNL     1       2.652   3.751   1.139  0.00  0.00    +0.077 C 
ATOM     14  C   UNL     1       2.431   2.470   1.969  0.00  0.00    +0.022 C 
ATOM     15  C   UNL     1       0.916   2.481   2.290  0.00  0.00    +0.002 C 
ATOM     16  C   UNL     1       0.294   3.031   0.983  0.00  0.00    +0.002 C 
ATOM     17  C   UNL     1       1.293   4.108   0.512  0.00  0.00    +0.022 C 
ENDBRANCH   3  13
BRANCH   3  18
ATOM     18  C   UNL     1       4.789   4.400  -0.065  0.00  0.00    +0.077 C 
ATOM     19  C   UNL     1       5.649   3.960  -1.268  0.00  0.00    +0.022 C 
ATOM     20  C   UNL     1       7.105   4.222  -0.811  0.00  0.00    +0.002 C 
ATOM     21  C   UNL     1       7.071   3.822   0.685  0.00  0.00    +0.002 C 
ATOM     22  C   UNL     1       5.694   4.313   1.177  0.00  0.00    +0.022 C 
ENDBRANCH   3  18
TORSDOF 4
