REMARK  Name = ZINC36206358
REMARK  16 active torsions:
REMARK  status: ('A' for Active; 'I' for Inactive)
REMARK    1  A    between atoms: C_1  and  C_2
REMARK    2  A    between atoms: C_2  and  C_3
REMARK    3  A    between atoms: C_2  and  C_4
REMARK    4  A    between atoms: C_4  and  O_5
REMARK    5  A    between atoms: O_5  and  C_6
REMARK    6  A    between atoms: C_6  and  C_7
REMARK    7  A    between atoms: C_7  and  C_9
REMARK    8  A    between atoms: C_7  and  O_37
REMARK    9  A    between atoms: C_9  and  N_10
REMARK   10  A    between atoms: N_10  and  C_11
REMARK   11  A    between atoms: N_10  and  C_17
REMARK   12  A    between atoms: C_11  and  C_12
REMARK   13  A    between atoms: C_17  and  C_18
REMARK   14  A    between atoms: C_24  and  C_29
REMARK   15  A    between atoms: C_33  and  O_35
REMARK   16  A    between atoms: O_35  and  C_36
REMARK                            x       y       z     vdW  Elec       q    Type
REMARK                         _______ _______ _______ _____ _____    ______ ____
ROOT
ATOM      1  C   UNL     1      -5.025  -6.791  -0.682  0.00  0.00    -0.003 C 
ENDROOT
BRANCH   1   2
ATOM      2  C   UNL     1      -4.836  -8.276  -0.855  0.00  0.00    +0.094 A 
ATOM      3  N   UNL     1      -5.918  -9.065  -1.077  0.00  0.00    -0.312 N 
ATOM      4  H   UNL     1      -6.800  -8.662  -1.122  0.00  0.00    +0.170 HD
ATOM      5  C   UNL     1      -5.793 -10.395  -1.236  0.00  0.00    +0.260 A 
ATOM      6  O   UNL     1      -6.775 -11.090  -1.436  0.00  0.00    -0.267 OA
ATOM      7  C   UNL     1      -4.489 -10.982  -1.169  0.00  0.00    +0.080 A 
ATOM      8  C   UNL     1      -4.099 -12.380  -1.308  0.00  0.00    +0.004 A 
ATOM      9  C   UNL     1      -2.787 -12.703  -1.206  0.00  0.00    +0.056 A 
ATOM     10  S   UNL     1      -1.997 -11.133  -0.914  0.00  0.00    -0.076 S 
ATOM     11  C   UNL     1      -3.431 -10.089  -0.936  0.00  0.00    +0.116 A 
ATOM     12  N   UNL     1      -3.633  -8.782  -0.793  0.00  0.00    -0.229 NA
BRANCH   8  13
ATOM     13  C   UNL     1      -5.117 -13.428  -1.557  0.00  0.00    -0.013 A 
ATOM     14  C   UNL     1      -6.258 -13.498  -0.758  0.00  0.00    +0.009 A 
ATOM     15  C   UNL     1      -7.205 -14.475  -0.991  0.00  0.00    +0.004 A 
ATOM     16  C   UNL     1      -7.026 -15.385  -2.017  0.00  0.00    +0.045 A 
ATOM     17  C   UNL     1      -5.894 -15.323  -2.817  0.00  0.00    +0.121 A 
ATOM     18  C   UNL     1      -4.941 -14.342  -2.594  0.00  0.00    +0.054 A 
BRANCH  17  19
ATOM     19  O   UNL     1      -5.723 -16.220  -3.823  0.00  0.00    -0.495 OA
ATOM     20  C   UNL     1      -6.748 -17.199  -4.000  0.00  0.00    +0.277 C 
ENDBRANCH  17  19
ENDBRANCH   8  13
ENDBRANCH   1   2
BRANCH   1  21
ATOM     21  N   UNL     1      -3.720  -6.154  -0.462  0.00  0.00    +0.391 N 
ATOM     22  H   UNL     1      -3.252  -6.604   0.311  0.00  0.00    -0.080 HD
BRANCH  21  23
ATOM     23  C   UNL     1      -3.915  -4.731  -0.155  0.00  0.00    -0.044 C 
BRANCH  23  24
ATOM     24  C   UNL     1      -4.596  -4.592   1.208  0.00  0.00    +0.124 C 
BRANCH  24  25
ATOM     25  O   UNL     1      -5.939  -5.073   1.120  0.00  0.00    -0.391 OA
ATOM     26  H   UNL     1      -6.486  -4.600   0.478  0.00  0.00    +0.210 HD
ENDBRANCH  24  25
BRANCH  24  27
ATOM     27  C   UNL     1      -4.609  -3.119   1.624  0.00  0.00    +0.189 C 
BRANCH  27  28
ATOM     28  O   UNL     1      -5.139  -3.002   2.946  0.00  0.00    -0.377 OA
BRANCH  28  29
ATOM     29  C   UNL     1      -5.195  -1.660   3.433  0.00  0.00    +0.163 C 
BRANCH  29  31
ATOM     30  C   UNL     1      -5.720  -0.236   5.417  0.00  0.00    +0.009 C 
ATOM     31  C   UNL     1      -5.776  -1.655   4.848  0.00  0.00    +0.009 C 
ATOM     32  C   UNL     1      -7.229  -2.131   4.805  0.00  0.00    +0.009 C 
ENDBRANCH  29  31
ENDBRANCH  28  29
ENDBRANCH  27  28
ENDBRANCH  24  27
ENDBRANCH  23  24
ENDBRANCH  21  23
BRANCH  21  33
ATOM     33  C   UNL     1      -2.899  -6.285  -1.673  0.00  0.00    -0.002 C 
BRANCH  33  34
ATOM     34  C   UNL     1      -1.513  -5.762  -1.401  0.00  0.00    +0.089 A 
ATOM     35  C   UNL     1      -0.452  -6.500  -1.029  0.00  0.00    +0.042 A 
ATOM     36  C   UNL     1       0.637  -5.610  -0.884  0.00  0.00    +0.041 A 
ATOM     37  C   UNL     1       0.176  -4.380  -1.175  0.00  0.00    +0.195 A 
ATOM     38  O   UNL     1      -1.125  -4.479  -1.494  0.00  0.00    -0.470 OA
ENDBRANCH  33  34
ENDBRANCH  21  33
ENDBRANCH   1  21
TORSDOF 13
