REMARK  Name = ZINC66831878
REMARK  6 active torsions:
REMARK  status: ('A' for Active; 'I' for Inactive)
REMARK    1  A    between atoms: C_1  and  C_2
REMARK    2  A    between atoms: C_9  and  C_11
REMARK    3  A    between atoms: C_17  and  C_19
REMARK    4  A    between atoms: C_19  and  C_21
REMARK    5  A    between atoms: C_19  and  N_22
REMARK    6  A    between atoms: C_23  and  C_25
REMARK                            x       y       z     vdW  Elec       q    Type
REMARK                         _______ _______ _______ _____ _____    ______ ____
ROOT
ATOM      1  C   UNL     1       0.090  -5.594   2.249  0.00  0.00    +0.142 C 
ATOM      2  C   UNL     1       1.547  -5.999   2.560  0.00  0.00    +0.032 C 
ATOM      3  C   UNL     1       1.544  -7.529   2.302  0.00  0.00    +0.021 C 
ATOM      4  C   UNL     1       0.566  -7.641   1.106  0.00  0.00    +0.108 C 
ATOM      5  N   UNL     1      -0.478  -6.630   1.375  0.00  0.00    -0.290 N 
ATOM      6  C   UNL     1      -1.738  -6.652   0.899  0.00  0.00    +0.236 C 
ATOM      7  O   UNL     1      -2.511  -5.763   1.188  0.00  0.00    -0.274 OA
ENDROOT
BRANCH   1  16
ATOM      8  C   UNL     1      -0.018   1.503   0.010  0.00  0.00    +0.044 C 
ATOM      9  C   UNL     1       0.002  -0.004   0.002  0.00  0.00    -0.048 A 
ATOM     10  C   UNL     1       0.006  -0.687  -1.206  0.00  0.00    +0.005 A 
ATOM     11  C   UNL     1       0.024  -2.052  -1.235  0.00  0.00    +0.030 A 
ATOM     12  C   UNL     1       0.040  -2.774  -0.039  0.00  0.00    +0.089 A 
ATOM     13  C   UNL     1       0.037  -2.083   1.185  0.00  0.00    +0.067 A 
ATOM     14  C   UNL     1       0.023  -0.695   1.195  0.00  0.00    +0.031 A 
ATOM     15  N   UNL     1       0.055  -3.051   2.169  0.00  0.00    -0.340 N 
ATOM     16  C   UNL     1       0.068  -4.261   1.546  0.00  0.00    +0.129 A 
ATOM     17  N   UNL     1       0.059  -4.099   0.255  0.00  0.00    -0.231 NA
ATOM     18  H   UNL     1       0.058  -2.898   3.127  0.00  0.00    +0.167 HD
ENDBRANCH   1  16
BRANCH   6  19
ATOM     19  C   UNL     1      -2.188  -7.781   0.008  0.00  0.00    +0.156 C 
ATOM     20  C   UNL     1      -1.317  -7.816  -1.250  0.00  0.00    +0.038 C 
BRANCH  19  21
ATOM     21  N   UNL     1      -3.588  -7.575  -0.373  0.00  0.00    -0.304 N 
ATOM     22  C   UNL     1      -4.354  -8.628  -0.718  0.00  0.00    +0.217 C 
ATOM     23  O   UNL     1      -3.885  -9.747  -0.713  0.00  0.00    -0.275 OA
ATOM     24  H   UNL     1      -3.963  -6.680  -0.376  0.00  0.00    +0.149 HD
BRANCH  22  25
ATOM     25  C   UNL     1      -5.794  -8.417  -1.109  0.00  0.00    +0.079 C 
ATOM     26  C   UNL     1      -6.555  -7.784   0.060  0.00  0.00    +0.041 C 
ATOM     27  C   UNL     1      -8.032  -7.646  -0.318  0.00  0.00    +0.160 C 
ATOM     28  O   UNL     1      -8.559  -8.931  -0.655  0.00  0.00    -0.380 OA
ATOM     29  C   UNL     1      -7.917  -9.549  -1.772  0.00  0.00    +0.160 C 
ATOM     30  C   UNL     1      -6.435  -9.765  -1.452  0.00  0.00    +0.041 C 
ENDBRANCH  22  25
ENDBRANCH  19  21
ENDBRANCH   6  19
TORSDOF 4
