REMARK  Name = ZINC40571795
REMARK  4 active torsions:
REMARK  status: ('A' for Active; 'I' for Inactive)
REMARK    1  A    between atoms: C_1  and  C_2
REMARK    2  A    between atoms: C_9  and  O_12
REMARK    3  A    between atoms: O_12  and  C_13
REMARK    4  A    between atoms: C_14  and  N_20
REMARK                            x       y       z     vdW  Elec       q    Type
REMARK                         _______ _______ _______ _____ _____    ______ ____
ROOT
ATOM      1  C   UNL     1       0.332   1.349  -0.123  0.00  0.00    +0.065 C 
ATOM      2  C   UNL     1       0.252  -0.155  -0.072  0.00  0.00    +0.039 A 
ATOM      3  C   UNL     1       0.250  -0.875  -1.264  0.00  0.00    +0.023 A 
ATOM      4  C   UNL     1       0.177  -2.239  -1.237  0.00  0.00    +0.012 A 
ATOM      5  C   UNL     1       0.107  -2.875   0.017  0.00  0.00    +0.004 A 
ATOM      6  C   UNL     1       0.031  -4.273   0.124  0.00  0.00    +0.010 A 
ATOM      7  C   UNL     1      -0.036  -4.854   1.354  0.00  0.00    +0.004 A 
ATOM      8  C   UNL     1      -0.031  -4.081   2.512  0.00  0.00    +0.048 A 
ATOM      9  C   UNL     1       0.042  -2.718   2.448  0.00  0.00    +0.156 A 
ATOM     10  C   UNL     1       0.113  -2.082   1.190  0.00  0.00    +0.113 A 
ATOM     11  N   UNL     1       0.191  -0.752   1.094  0.00  0.00    -0.248 NA
ENDROOT
BRANCH   9  12
ATOM     12  O   UNL     1       0.045  -1.980   3.588  0.00  0.00    -0.434 OA
BRANCH  12  13
ATOM     13  C   UNL     1      -1.139  -1.493   4.035  0.00  0.00    +0.246 A 
ATOM     14  C   UNL     1      -1.190  -0.681   5.173  0.00  0.00    +0.125 A 
ATOM     15  C   UNL     1      -2.429  -0.209   5.588  0.00  0.00    +0.157 A 
ATOM     16  N   UNL     1      -3.510  -0.542   4.896  0.00  0.00    -0.222 NA
ATOM     17  C   UNL     1      -3.423  -1.310   3.829  0.00  0.00    +0.226 A 
ATOM     18  N   UNL     1      -2.268  -1.775   3.397  0.00  0.00    -0.199 NA
ATOM     19 CL   UNL     1      -2.560   0.803   6.992  0.00  0.00    -0.060 Cl
BRANCH  14  20
ATOM     20  N   UNL     1      -0.023  -0.352   5.875  0.00  0.00    -0.351 N 
ATOM     21  H   UNL     1       0.835  -0.690   5.574  0.00  0.00    +0.143 HD
ATOM     22  H   UNL     1      -0.074   0.212   6.662  0.00  0.00    +0.143 HD
ENDBRANCH  14  20
ENDBRANCH  12  13
ENDBRANCH   9  12
TORSDOF 3
