REMARK  Name = ZINC17148705
REMARK  12 active torsions:
REMARK  status: ('A' for Active; 'I' for Inactive)
REMARK    1  A    between atoms: C_1  and  C_2
REMARK    2  A    between atoms: C_2  and  C_4
REMARK    3  A    between atoms: C_4  and  C_5
REMARK    4  A    between atoms: C_5  and  O_7
REMARK    5  A    between atoms: O_7  and  C_8
REMARK    6  A    between atoms: C_20  and  O_41
REMARK    7  A    between atoms: C_31  and  C_37
REMARK    8  A    between atoms: C_33  and  O_35
REMARK    9  A    between atoms: O_35  and  C_36
REMARK   10  A    between atoms: C_37  and  O_39
REMARK   11  A    between atoms: O_39  and  C_40
REMARK   12  A    between atoms: O_41  and  C_42
REMARK                            x       y       z     vdW  Elec       q    Type
REMARK                         _______ _______ _______ _____ _____    ______ ____
ROOT
ATOM      1  C   UNL     1       5.093  -5.634   3.662  0.00  0.00    +0.206 C 
ATOM      2  C   UNL     1       5.614  -4.596   2.666  0.00  0.00    +0.049 C 
ATOM      3  C   UNL     1       5.573  -5.177   1.251  0.00  0.00    -0.020 C 
ATOM      4  C   UNL     1       6.074  -4.120   0.261  0.00  0.00    -0.074 C 
ATOM      5  C   UNL     1       5.729  -1.825  -0.459  0.00  0.00    -0.073 C 
ATOM      6  C   UNL     1       5.020  -0.527  -0.049  0.00  0.00    +0.019 C 
ATOM      7  C   UNL     1       3.534  -0.786  -0.036  0.00  0.00    -0.022 A 
ATOM      8  C   UNL     1       2.440   0.160  -0.019  0.00  0.00    +0.003 A 
ATOM      9  C   UNL     1       2.393   1.558  -0.011  0.00  0.00    +0.014 A 
ATOM     10  C   UNL     1       1.150   2.139   0.003  0.00  0.00    +0.046 A 
ATOM     11  C   UNL     1      -0.017   1.384   0.010  0.00  0.00    +0.122 A 
ATOM     12  C   UNL     1       0.002  -0.004   0.002  0.00  0.00    +0.071 A 
ATOM     13  C   UNL     1       1.252  -0.618  -0.013  0.00  0.00    +0.050 A 
ATOM     14  N   UNL     1       1.625  -1.932  -0.025  0.00  0.00    -0.359 N 
ATOM     15  H   UNL     1       1.014  -2.685  -0.022  0.00  0.00    +0.166 HD
ATOM     16  C   UNL     1       2.991  -2.025  -0.042  0.00  0.00    +0.007 A 
ATOM     17  C   UNL     1       3.825  -3.282  -0.065  0.00  0.00    -0.020 C 
ATOM     18  C   UNL     1       3.255  -4.306   0.918  0.00  0.00    -0.005 C 
ATOM     19  C   UNL     1       4.135  -5.559   0.895  0.00  0.00    +0.006 C 
ATOM     20  C   UNL     1       3.605  -6.583   1.896  0.00  0.00    +0.133 C 
ATOM     21  C   UNL     1       3.649  -5.996   3.308  0.00  0.00    +0.172 C 
ATOM     22  N   UNL     1       5.196  -2.934   0.367  0.00  0.00    +0.386 N 
ATOM     23  H   UNL     1       5.167  -2.631   1.347  0.00  0.00    -0.081 HD
ENDROOT
BRANCH  21  24
ATOM     24  O   UNL     1       2.836  -4.822   3.362  0.00  0.00    -0.375 OA
ATOM     25  C   UNL     1       2.255  -4.575   4.644  0.00  0.00    +0.194 C 
ENDBRANCH  21  24
BRANCH  20  26
ATOM     26  C   UNL     1       2.183  -6.937   1.545  0.00  0.00    +0.313 C 
ATOM     27  O   UNL     1       1.649  -6.418   0.593  0.00  0.00    -0.250 OA
BRANCH  26  28
ATOM     28  O   UNL     1       1.509  -7.829   2.289  0.00  0.00    -0.468 OA
ATOM     29  C   UNL     1       0.144  -8.121   1.891  0.00  0.00    +0.280 C 
ENDBRANCH  26  28
ENDBRANCH  20  26
BRANCH  11  30
ATOM     30  O   UNL     1      -1.215   2.026   0.019  0.00  0.00    -0.495 OA
ATOM     31  C   UNL     1      -1.186   3.455   0.026  0.00  0.00    +0.277 C 
ENDBRANCH  11  30
BRANCH   1  32
ATOM     32  O   UNL     1       5.921  -6.826   3.597  0.00  0.00    -0.458 OA
BRANCH  32  33
ATOM     33  C   UNL     1       6.984  -6.874   4.415  0.00  0.00    +0.315 C 
ATOM     34  O   UNL     1       7.215  -5.952   5.161  0.00  0.00    -0.250 OA
BRANCH  33  35
ATOM     35  C   UNL     1       7.889  -8.079   4.404  0.00  0.00    +0.194 C 
BRANCH  35  37
ATOM     36  C   UNL     1      10.043  -8.954   5.590  0.00  0.00    +0.086 C 
ATOM     37  C   UNL     1       8.997  -7.885   5.406  0.00  0.00    +0.141 C 
ATOM     38  O   UNL     1       9.047  -6.872   6.062  0.00  0.00    -0.297 OA
ENDBRANCH  35  37
ENDBRANCH  33  35
ENDBRANCH  32  33
ENDBRANCH   1  32
TORSDOF 8
