REMARK  Name = ZINC65140916
REMARK  10 active torsions:
REMARK  status: ('A' for Active; 'I' for Inactive)
REMARK    1  A    between atoms: C_1  and  C_2
REMARK    2  A    between atoms: C_2  and  C_3
REMARK    3  A    between atoms: C_3  and  C_4
REMARK    4  A    between atoms: C_3  and  C_5
REMARK    5  A    between atoms: C_5  and  C_6
REMARK    6  A    between atoms: C_5  and  N_22
REMARK    7  A    between atoms: N_8  and  C_9
REMARK    8  A    between atoms: N_12  and  C_14
REMARK    9  A    between atoms: C_14  and  C_15
REMARK   10  A    between atoms: C_14  and  C_16
REMARK                            x       y       z     vdW  Elec       q    Type
REMARK                         _______ _______ _______ _____ _____    ______ ____
ROOT
ATOM      1  C   UNL     1       2.648   1.267   1.201  0.00  0.00    +0.234 C 
ATOM      2  O   UNL     1       3.356   1.703   2.084  0.00  0.00    -0.274 OA
ATOM      3  N   UNL     1       2.050   2.111   0.338  0.00  0.00    -0.313 N 
ATOM      4  H   UNL     1       1.423   1.769  -0.319  0.00  0.00    +0.149 HD
ENDROOT
BRANCH   3   5
ATOM      5  C   UNL     1       2.347   3.545   0.390  0.00  0.00    +0.055 C 
ATOM      6  C   UNL     1       3.565   3.874  -0.504  0.00  0.00    +0.002 C 
ATOM      7  C   UNL     1       2.907   4.356  -1.821  0.00  0.00    -0.076 C 
ATOM      8  N   UNL     1       1.722   5.118  -1.350  0.00  0.00    +0.385 N 
ATOM      9  C   UNL     1       1.180   4.354  -0.205  0.00  0.00    -0.056 C 
ATOM     10  H   UNL     1       1.998   6.042  -1.052  0.00  0.00    -0.081 HD
BRANCH   8  11
ATOM     11  C   UNL     1       0.720   5.208  -2.420  0.00  0.00    -0.041 C 
ATOM     12  C   UNL     1      -0.507   5.964  -1.907  0.00  0.00    -0.008 C 
BRANCH  11  13
ATOM     13  C   UNL     1       1.306   5.942  -3.598  0.00  0.00    -0.061 A 
ATOM     14  C   UNL     1       2.119   7.041  -3.393  0.00  0.00    +0.002 A 
ATOM     15  C   UNL     1       2.657   7.714  -4.473  0.00  0.00    +0.000 A 
ATOM     16  C   UNL     1       2.382   7.288  -5.759  0.00  0.00    +0.000 A 
ATOM     17  C   UNL     1       1.570   6.189  -5.965  0.00  0.00    +0.000 A 
ATOM     18  C   UNL     1       1.036   5.513  -4.884  0.00  0.00    +0.002 A 
ENDBRANCH  11  13
ENDBRANCH   8  11
ENDBRANCH   3   5
BRANCH   1  19
ATOM     19  C   UNL     1       2.437  -0.220   1.071  0.00  0.00    +0.163 C 
BRANCH  19  20
ATOM     20  N   UNL     1       3.501  -0.929   1.785  0.00  0.00    -0.288 N 
ATOM     21  C   UNL     1       3.836  -2.183   1.424  0.00  0.00    +0.298 C 
ATOM     22  O   UNL     1       3.254  -2.727   0.505  0.00  0.00    -0.253 OA
ATOM     23  N   UNL     1       4.815  -2.836   2.081  0.00  0.00    -0.313 N 
ATOM     24  H   UNL     1       3.966  -0.495   2.518  0.00  0.00    +0.151 HD
ATOM     25  H   UNL     1       5.279  -2.402   2.814  0.00  0.00    +0.146 HD
ATOM     26  H   UNL     1       5.056  -3.739   1.821  0.00  0.00    +0.146 HD
ENDBRANCH  19  20
BRANCH  19  27
ATOM     27  C   UNL     1       1.081  -0.597   1.671  0.00  0.00    +0.015 C 
ATOM     28  C   UNL     1       1.109  -0.362   3.182  0.00  0.00    +0.010 C 
BRANCH  27  30
ATOM     29  C   UNL     1       0.618  -2.279  -0.117  0.00  0.00    +0.004 C 
ATOM     30  C   UNL     1       0.791  -2.072   1.389  0.00  0.00    +0.002 C 
ENDBRANCH  27  30
ENDBRANCH  19  27
ENDBRANCH   1  19
TORSDOF 7
