REMARK  Name = ZINC33599071
REMARK  10 active torsions:
REMARK  status: ('A' for Active; 'I' for Inactive)
REMARK    1  A    between atoms: C_1  and  C_2
REMARK    2  A    between atoms: C_2  and  C_3
REMARK    3  A    between atoms: C_3  and  C_4
REMARK    4  A    between atoms: C_4  and  N_5
REMARK    5  A    between atoms: C_10  and  C_29
REMARK    6  A    between atoms: C_13  and  C_18
REMARK    7  A    between atoms: C_13  and  C_26
REMARK    8  A    between atoms: C_18  and  C_19
REMARK    9  A    between atoms: C_22  and  O_25
REMARK   10  A    between atoms: C_34  and  C_35
REMARK                            x       y       z     vdW  Elec       q    Type
REMARK                         _______ _______ _______ _____ _____    ______ ____
ROOT
ATOM      1  N   UNL     1      -2.930   0.723   3.507  0.00  0.00    -0.242 N 
ATOM      2  C   UNL     1      -2.886   1.613   2.463  0.00  0.00    +0.224 C 
ATOM      3  O   UNL     1      -2.779   2.819   2.525  0.00  0.00    -0.275 OA
ATOM      4  C   UNL     1      -2.995   0.789   1.262  0.00  0.00    +0.077 C 
ATOM      5  C   UNL     1      -2.507   0.939  -0.132  0.00  0.00    -0.026 C 
ATOM      6  N   UNL     1      -2.284  -0.466  -0.608  0.00  0.00    +0.396 N 
ATOM      7  C   UNL     1      -2.487  -1.377   0.569  0.00  0.00    +0.052 C 
ATOM      8  C   UNL     1      -2.173  -0.474   1.737  0.00  0.00    +0.086 C 
ATOM      9  C   UNL     1      -2.736  -0.572   3.102  0.00  0.00    +0.225 C 
ATOM     10  O   UNL     1      -2.976  -1.582   3.728  0.00  0.00    -0.275 OA
ATOM     11  H   UNL     1      -3.004  -0.701  -1.406  0.00  0.00    -0.083 HD
ATOM     12  H   UNL     1      -1.260  -0.563  -0.998  0.00  0.00    -0.083 HD
ENDROOT
BRANCH   5  13
ATOM     13  C   UNL     1      -1.214   1.713  -0.156  0.00  0.00    -0.058 A 
ATOM     14  C   UNL     1      -0.009   1.049  -0.026  0.00  0.00    +0.002 A 
ATOM     15  C   UNL     1       1.177   1.759  -0.053  0.00  0.00    +0.000 A 
ATOM     16  C   UNL     1       1.158   3.133  -0.205  0.00  0.00    +0.000 A 
ATOM     17  C   UNL     1      -0.048   3.797  -0.330  0.00  0.00    +0.003 A 
ATOM     18  C   UNL     1      -1.234   3.087  -0.302  0.00  0.00    -0.049 A 
ATOM     19  C   UNL     1      -2.549   3.812  -0.437  0.00  0.00    +0.044 C 
ENDBRANCH   5  13
BRANCH   7  20
ATOM     20  C   UNL     1      -1.533  -2.542   0.515  0.00  0.00    +0.347 C 
ATOM     21  O   UNL     1      -1.057  -2.982   1.535  0.00  0.00    -0.248 OA
ATOM     22  O   UNL     1      -1.211  -3.092  -0.667  0.00  0.00    -0.248 OA
ENDBRANCH   7  20
BRANCH   1  23
ATOM     23  C   UNL     1      -3.159   1.114   4.900  0.00  0.00    +0.116 C 
BRANCH  23  24
ATOM     24  C   UNL     1      -1.817   1.403   5.575  0.00  0.00    +0.019 C 
BRANCH  24  26
ATOM     25  C   UNL     1      -0.714   2.100   7.706  0.00  0.00    +0.004 C 
ATOM     26  C   UNL     1      -2.056   1.811   7.030  0.00  0.00    -0.002 C 
ENDBRANCH  24  26
ENDBRANCH  23  24
ENDBRANCH   1  23
BRANCH   7  27
ATOM     27  C   UNL     1      -3.936  -1.867   0.634  0.00  0.00    +0.035 C 
BRANCH  27  28
ATOM     28  C   UNL     1      -4.260  -2.643  -0.616  0.00  0.00    -0.048 A 
ATOM     29  C   UNL     1      -4.779  -1.991  -1.718  0.00  0.00    +0.007 A 
ATOM     30  C   UNL     1      -5.073  -2.700  -2.867  0.00  0.00    +0.045 A 
ATOM     31  C   UNL     1      -4.856  -4.069  -2.910  0.00  0.00    +0.117 A 
ATOM     32  C   UNL     1      -4.341  -4.723  -1.800  0.00  0.00    +0.045 A 
ATOM     33  C   UNL     1      -4.044  -4.008  -0.656  0.00  0.00    +0.007 A 
BRANCH  31  34
ATOM     34  O   UNL     1      -5.149  -4.770  -4.037  0.00  0.00    -0.507 OA
ATOM     35  H   UNL     1      -4.977  -5.856  -4.070  0.00  0.00    +0.292 HD
ENDBRANCH  31  34
ENDBRANCH  27  28
ENDBRANCH   7  27
TORSDOF 8
