REMARK  Name = ZINC39232557
REMARK  7 active torsions:
REMARK  status: ('A' for Active; 'I' for Inactive)
REMARK    1  A    between atoms: C_1  and  C_2
REMARK    2  A    between atoms: C_4  and  C_9
REMARK    3  A    between atoms: C_5  and  C_8
REMARK    4  A    between atoms: C_9  and  C_10
REMARK    5  A    between atoms: C_11  and  C_25
REMARK    6  A    between atoms: N_13  and  C_18
REMARK    7  A    between atoms: C_21  and  C_24
REMARK                            x       y       z     vdW  Elec       q    Type
REMARK                         _______ _______ _______ _____ _____    ______ ____
ROOT
ATOM      1  C   UNL     1      -2.297   0.621  -1.972  0.00  0.00    +0.076 C 
ATOM      2  C   UNL     1      -0.920   1.079  -2.390  0.00  0.00    +0.149 C 
ATOM      3  N   UNL     1      -1.106   1.881  -3.605  0.00  0.00    -0.261 N 
ATOM      4  C   UNL     1      -2.422   1.907  -3.886  0.00  0.00    +0.289 C 
ATOM      5  O   UNL     1      -2.922   2.485  -4.831  0.00  0.00    -0.266 OA
ATOM      6  C   UNL     1      -3.168   1.123  -2.880  0.00  0.00    +0.249 C 
ATOM      7  O   UNL     1      -4.508   0.938  -2.867  0.00  0.00    -0.282 OA
ENDROOT
BRANCH   3   8
ATOM      8  C   UNL     1      -0.047   2.538  -4.375  0.00  0.00    +0.208 C 
ATOM      9  C   UNL     1      -0.091   4.041  -4.177  0.00  0.00    +0.057 C 
ATOM     10  C   UNL     1      -0.652   4.574  -5.241  0.00  0.00    +0.121 C 
ATOM     11  O   UNL     1      -1.014   3.640  -6.153  0.00  0.00    -0.409 OA
ATOM     12  N   UNL     1      -0.288   2.391  -5.835  0.00  0.00    -0.131 NA
ATOM     13  C   UNL     1      -0.868   6.054  -5.425  0.00  0.00    +0.088 C 
ATOM     14  H   UNL     1       0.583   2.339  -6.341  0.00  0.00    +0.170 HD
ENDBRANCH   3   8
BRANCH   2  15
ATOM     15  C   UNL     1      -0.301   1.919  -1.303  0.00  0.00    +0.013 A 
ATOM     16  C   UNL     1      -0.477   3.290  -1.303  0.00  0.00    +0.008 A 
ATOM     17  C   UNL     1       0.090   4.061  -0.306  0.00  0.00    +0.001 A 
ATOM     18  C   UNL     1       0.836   3.461   0.693  0.00  0.00    +0.003 A 
ATOM     19  C   UNL     1       1.013   2.091   0.695  0.00  0.00    +0.039 A 
ATOM     20  C   UNL     1       0.441   1.317  -0.301  0.00  0.00    +0.129 A 
ATOM     21  F   UNL     1       0.610  -0.023  -0.297  0.00  0.00    -0.205 F 
ENDBRANCH   2  15
BRANCH   1  22
ATOM     22  C   UNL     1      -2.628  -0.211  -0.811  0.00  0.00    +0.193 C 
ATOM     23  O   UNL     1      -2.600   0.267   0.308  0.00  0.00    -0.287 OA
BRANCH  22  26
ATOM     24  C   UNL     1      -1.567  -2.449  -2.873  0.00  0.00    +0.035 C 
ATOM     25  C   UNL     1      -2.982  -2.406  -2.293  0.00  0.00    +0.110 C 
ATOM     26  C   UNL     1      -2.993  -1.623  -0.998  0.00  0.00    +0.026 C 
ATOM     27  C   UNL     1      -3.407  -2.491  -0.050  0.00  0.00    -0.026 C 
ATOM     28  C   UNL     1      -3.663  -3.792  -0.669  0.00  0.00    +0.082 C 
ATOM     29  N   UNL     1      -3.428  -3.759  -1.939  0.00  0.00    -0.383 N 
ATOM     30  C   UNL     1      -3.577  -2.172   1.413  0.00  0.00    +0.046 C 
ATOM     31  H   UNL     1      -3.528  -4.502  -2.555  0.00  0.00    +0.160 HD
ENDBRANCH  22  26
ENDBRANCH   1  22
TORSDOF 4
