REMARK  Name = ZINC18200078
REMARK  7 active torsions:
REMARK  status: ('A' for Active; 'I' for Inactive)
REMARK    1  A    between atoms: C_1  and  C_2
REMARK    2  A    between atoms: C_11  and  C_13
REMARK    3  A    between atoms: C_22  and  C_25
REMARK    4  A    between atoms: C_28  and  O_33
REMARK    5  A    between atoms: C_29  and  O_31
REMARK    6  A    between atoms: O_31  and  C_32
REMARK    7  A    between atoms: O_33  and  C_34
REMARK                            x       y       z     vdW  Elec       q    Type
REMARK                         _______ _______ _______ _____ _____    ______ ____
ROOT
ATOM      1  C   UNL     1       4.862   2.067   0.428  0.00  0.00    +0.068 C 
ATOM      2  C   UNL     1       3.398   2.338   0.194  0.00  0.00    +0.066 A 
ATOM      3  C   UNL     1       2.373   1.407   0.291  0.00  0.00    +0.027 A 
ATOM      4  C   UNL     1       1.197   2.047   0.002  0.00  0.00    +0.122 A 
ATOM      5  N   UNL     1       1.484   3.335  -0.260  0.00  0.00    -0.263 N 
ATOM      6  H   UNL     1       0.827   4.050  -0.500  0.00  0.00    +0.190 HD
ATOM      7  N   UNL     1       2.874   3.495  -0.135  0.00  0.00    -0.177 NA
ATOM      8  N   UNL     1      -0.017   1.368   0.010  0.00  0.00    -0.303 N 
ATOM      9  C   UNL     1       0.002  -0.004   0.002  0.00  0.00    +0.017 C 
ATOM     10  C   UNL     1       1.115  -0.713   0.289  0.00  0.00    +0.024 C 
ATOM     11  C   UNL     1       2.431  -0.053   0.639  0.00  0.00    +0.089 C 
ATOM     12  C   UNL     1       1.096  -2.120   0.281  0.00  0.00    +0.162 C 
ATOM     13  O   UNL     1       2.117  -2.728   0.534  0.00  0.00    -0.292 OA
ATOM     14  C   UNL     1      -0.157  -2.887  -0.034  0.00  0.00    +0.088 C 
ATOM     15  C   UNL     1      -1.370  -2.045   0.374  0.00  0.00    +0.032 C 
ATOM     16  C   UNL     1      -1.290  -0.702  -0.355  0.00  0.00    +0.059 C 
ATOM     17  H   UNL     1      -0.857   1.853   0.016  0.00  0.00    +0.153 HD
ENDROOT
BRANCH  11  18
ATOM     18  C   UNL     1       2.692  -0.206   2.115  0.00  0.00    -0.035 A 
ATOM     19  C   UNL     1       1.804   0.323   3.033  0.00  0.00    +0.004 A 
ATOM     20  C   UNL     1       2.041   0.178   4.387  0.00  0.00    +0.000 A 
ATOM     21  C   UNL     1       3.171  -0.487   4.824  0.00  0.00    +0.000 A 
ATOM     22  C   UNL     1       4.062  -1.012   3.906  0.00  0.00    +0.000 A 
ATOM     23  C   UNL     1       3.823  -0.871   2.552  0.00  0.00    +0.004 A 
ENDBRANCH  11  18
BRANCH  15  24
ATOM     24  C   UNL     1      -2.639  -2.759  -0.014  0.00  0.00    -0.040 A 
ATOM     25  C   UNL     1      -2.882  -3.060  -1.342  0.00  0.00    +0.008 A 
ATOM     26  C   UNL     1      -4.042  -3.720  -1.703  0.00  0.00    +0.049 A 
ATOM     27  C   UNL     1      -4.969  -4.072  -0.735  0.00  0.00    +0.161 A 
ATOM     28  C   UNL     1      -4.727  -3.764   0.601  0.00  0.00    +0.162 A 
ATOM     29  C   UNL     1      -3.560  -3.107   0.956  0.00  0.00    +0.053 A 
BRANCH  28  30
ATOM     30  O   UNL     1      -5.634  -4.106   1.554  0.00  0.00    -0.491 OA
ATOM     31  C   UNL     1      -5.319  -3.758   2.904  0.00  0.00    +0.277 C 
ENDBRANCH  28  30
BRANCH  27  32
ATOM     32  O   UNL     1      -6.113  -4.716  -1.089  0.00  0.00    -0.491 OA
ATOM     33  C   UNL     1      -6.294  -5.000  -2.477  0.00  0.00    +0.277 C 
ENDBRANCH  27  32
ENDBRANCH  15  24
TORSDOF 4
