REMARK  Name = ZINC20339540
REMARK  5 active torsions:
REMARK  status: ('A' for Active; 'I' for Inactive)
REMARK    1  A    between atoms: C_1  and  C_2
REMARK    2  A    between atoms: C_2  and  C_3
REMARK    3  A    between atoms: C_3  and  N_4
REMARK    4  A    between atoms: C_7  and  N_23
REMARK    5  A    between atoms: C_13  and  C_14
REMARK                            x       y       z     vdW  Elec       q    Type
REMARK                         _______ _______ _______ _____ _____    ______ ____
ROOT
ATOM      1  N   UNL     1      -2.095   1.512   2.845  0.00  0.00    -0.262 N 
ATOM      2  C   UNL     1      -2.802   2.704   2.642  0.00  0.00    +0.081 A 
ATOM      3  C   UNL     1      -2.798   3.307   1.393  0.00  0.00    +0.050 A 
ATOM      4  C   UNL     1      -3.501   4.487   1.193  0.00  0.00    +0.027 A 
ATOM      5  C   UNL     1      -4.206   5.064   2.241  0.00  0.00    +0.026 A 
ATOM      6  C   UNL     1      -4.210   4.465   3.487  0.00  0.00    +0.050 A 
ATOM      7  C   UNL     1      -3.510   3.287   3.691  0.00  0.00    +0.150 A 
ATOM      8  O   UNL     1      -3.513   2.696   4.920  0.00  0.00    -0.449 OA
ATOM      9  C   UNL     1      -3.312   1.342   4.933  0.00  0.00    +0.191 C 
ATOM     10  C   UNL     1      -3.984   0.537   5.786  0.00  0.00    +0.059 C 
ATOM     11  C   UNL     1      -2.331   0.796   3.971  0.00  0.00    +0.286 C 
ATOM     12  O   UNL     1      -1.755  -0.254   4.184  0.00  0.00    -0.266 OA
ENDROOT
BRANCH  10  13
ATOM     13  C   UNL     1      -3.893  -0.924   5.644  0.00  0.00    -0.021 A 
ATOM     14  C   UNL     1      -3.842  -1.505   4.373  0.00  0.00    +0.009 A 
ATOM     15  C   UNL     1      -3.752  -2.875   4.248  0.00  0.00    +0.020 A 
ATOM     16  C   UNL     1      -3.723  -3.676   5.377  0.00  0.00    +0.041 A 
ATOM     17  C   UNL     1      -3.779  -3.109   6.639  0.00  0.00    +0.020 A 
ATOM     18  C   UNL     1      -3.864  -1.740   6.780  0.00  0.00    +0.009 A 
ATOM     19 CL   UNL     1      -3.616  -5.401   5.210  0.00  0.00    -0.084 Cl
ENDBRANCH  10  13
BRANCH   4  20
ATOM     20  N   UNL     1      -3.498   5.097  -0.067  0.00  0.00    -0.358 N 
ATOM     21  H   UNL     1      -4.055   6.032  -0.226  0.00  0.00    +0.142 HD
ATOM     22  H   UNL     1      -2.940   4.641  -0.897  0.00  0.00    +0.142 HD
ENDBRANCH   4  20
BRANCH   1  23
ATOM     23  C   UNL     1      -1.122   1.044   1.855  0.00  0.00    +0.114 C 
BRANCH  23  25
ATOM     24  C   UNL     1       1.275   1.125   1.154  0.00  0.00    +0.005 C 
ATOM     25  C   UNL     1       0.259   1.614   2.188  0.00  0.00    +0.016 C 
ENDBRANCH  23  25
ENDBRANCH   1  23
TORSDOF 4
