REMARK  Name = ZINC63393998
REMARK  7 active torsions:
REMARK  status: ('A' for Active; 'I' for Inactive)
REMARK    1  A    between atoms: C_7  and  C_10
REMARK    2  A    between atoms: C_10  and  C_11
REMARK    3  A    between atoms: C_11  and  N_12
REMARK    4  A    between atoms: C_13  and  C_15
REMARK    5  A    between atoms: C_15  and  N_24
REMARK    6  A    between atoms: C_16  and  C_17
REMARK    7  A    between atoms: C_25  and  C_27
REMARK                            x       y       z     vdW  Elec       q    Type
REMARK                         _______ _______ _______ _____ _____    ______ ____
ROOT
ATOM      1  C   UNL     1      -1.717  -6.570  -2.816  0.00  0.00    +0.097 C 
ATOM      2  C   UNL     1      -2.201  -7.208  -1.726  0.00  0.00    +0.036 C 
ENDROOT
BRANCH   2   3
ATOM      3  C   UNL     1      -2.019  -6.622  -0.389  0.00  0.00    -0.023 A 
ATOM      4  C   UNL     1      -1.953  -5.233  -0.235  0.00  0.00    +0.011 A 
ATOM      5  C   UNL     1      -1.782  -4.690   1.020  0.00  0.00    +0.039 A 
ATOM      6  C   UNL     1      -1.677  -5.517   2.128  0.00  0.00    +0.123 A 
ATOM      7  C   UNL     1      -1.741  -6.894   1.982  0.00  0.00    +0.039 A 
ATOM      8  C   UNL     1      -1.917  -7.450   0.734  0.00  0.00    +0.011 A 
ATOM      9  F   UNL     1      -1.509  -4.978   3.356  0.00  0.00    -0.205 F 
ENDBRANCH   2   3
BRANCH   1  11
ATOM     10  N   UNL     1       0.351  -5.485  -2.107  0.00  0.00    -0.310 N 
ATOM     11  C   UNL     1      -0.875  -5.376  -2.656  0.00  0.00    +0.258 C 
ATOM     12  O   UNL     1      -1.286  -4.289  -3.018  0.00  0.00    -0.269 OA
ATOM     13  H   UNL     1       0.707  -6.359  -1.885  0.00  0.00    +0.149 HD
BRANCH  10  14
ATOM     14  C   UNL     1       1.146  -4.282  -1.846  0.00  0.00    +0.109 C 
BRANCH  14  15
ATOM     15  C   UNL     1       2.532  -4.687  -1.340  0.00  0.00    +0.052 C 
BRANCH  15  22
ATOM     16  C   UNL     1       3.458  -1.981   2.249  0.00  0.00    +0.001 A 
ATOM     17  C   UNL     1       4.324  -0.922   1.945  0.00  0.00    +0.002 A 
ATOM     18  C   UNL     1       4.832  -0.727   0.710  0.00  0.00    +0.026 A 
ATOM     19  C   UNL     1       4.498  -1.610  -0.353  0.00  0.00    +0.043 A 
ATOM     20  N   UNL     1       4.854  -1.632  -1.615  0.00  0.00    -0.380 N 
ATOM     21  C   UNL     1       4.205  -2.777  -2.263  0.00  0.00    +0.144 C 
ATOM     22  C   UNL     1       3.389  -3.457  -1.187  0.00  0.00    -0.040 C 
ATOM     23  C   UNL     1       3.584  -2.737  -0.058  0.00  0.00    -0.001 A 
ATOM     24  C   UNL     1       3.076  -2.879   1.312  0.00  0.00    +0.010 A 
ATOM     25  H   UNL     1       5.446  -0.998  -2.047  0.00  0.00    +0.160 HD
ENDBRANCH  15  22
ENDBRANCH  14  15
ENDBRANCH  10  14
ENDBRANCH   1  11
BRANCH   1  26
ATOM     26  N   UNL     1      -2.018  -7.046  -4.096  0.00  0.00    -0.277 N 
ATOM     27  C   UNL     1      -1.446  -6.480  -5.178  0.00  0.00    +0.250 C 
ATOM     28  O   UNL     1      -0.602  -5.617  -5.037  0.00  0.00    -0.270 OA
ATOM     29  H   UNL     1      -2.638  -7.784  -4.206  0.00  0.00    +0.155 HD
BRANCH  27  30
ATOM     30  C   UNL     1      -1.845  -6.909  -6.534  0.00  0.00    +0.055 A 
ATOM     31  C   UNL     1      -2.819  -7.897  -6.699  0.00  0.00    +0.014 A 
ATOM     32  C   UNL     1      -3.187  -8.292  -7.968  0.00  0.00    +0.001 A 
ATOM     33  C   UNL     1      -2.595  -7.714  -9.077  0.00  0.00    +0.001 A 
ATOM     34  C   UNL     1      -1.630  -6.735  -8.922  0.00  0.00    +0.021 A 
ATOM     35  C   UNL     1      -1.255  -6.325  -7.657  0.00  0.00    +0.053 A 
ATOM     36 CL   UNL     1      -0.049  -5.091  -7.464  0.00  0.00    -0.083 Cl
ENDBRANCH  27  30
ENDBRANCH   1  26
TORSDOF 7
