REMARK  Name = ZINC45585307
REMARK  11 active torsions:
REMARK  status: ('A' for Active; 'I' for Inactive)
REMARK    1  A    between atoms: C_1  and  C_2
REMARK    2  A    between atoms: C_5  and  C_28
REMARK    3  A    between atoms: C_6  and  S_8
REMARK    4  A    between atoms: S_8  and  N_11
REMARK    5  A    between atoms: N_11  and  C_12
REMARK    6  A    between atoms: C_12  and  C_13
REMARK    7  A    between atoms: C_13  and  N_14
REMARK    8  A    between atoms: N_17  and  C_18
REMARK    9  A    between atoms: C_18  and  C_19
REMARK   10  A    between atoms: C_19  and  N_20
REMARK   11  A    between atoms: C_25  and  C_27
REMARK                            x       y       z     vdW  Elec       q    Type
REMARK                         _______ _______ _______ _____ _____    ______ ____
ROOT
ATOM      1  N   UNL     1      -2.303  -6.833  -0.277  0.00  0.00    -0.298 N 
ATOM      2  C   UNL     1      -3.151  -7.874  -0.392  0.00  0.00    +0.300 C 
ATOM      3  O   UNL     1      -3.981  -8.081   0.473  0.00  0.00    -0.253 OA
ATOM      4  N   UNL     1      -3.079  -8.687  -1.464  0.00  0.00    -0.301 N 
ATOM      5  H   UNL     1      -1.641  -6.668  -0.967  0.00  0.00    +0.150 HD
ATOM      6  H   UNL     1      -2.417  -8.523  -2.154  0.00  0.00    +0.150 HD
ENDROOT
BRANCH   1   7
ATOM      7  C   UNL     1      -2.381  -5.949   0.889  0.00  0.00    +0.122 C 
BRANCH   7   8
ATOM      8  C   UNL     1      -1.316  -4.857   0.773  0.00  0.00    +0.124 C 
BRANCH   8   9
ATOM      9  N   UNL     1      -1.394  -3.974   1.939  0.00  0.00    -0.188 NA
ATOM     10  H   UNL     1      -2.169  -4.006   2.521  0.00  0.00    +0.148 HD
BRANCH   9  11
ATOM     11  S   UNL     1      -0.158  -2.919   2.263  0.00  0.00    +0.059 S 
ATOM     12  O   UNL     1       1.048  -3.664   2.162  0.00  0.00    -0.153 OA
ATOM     13  O   UNL     1      -0.523  -2.216   3.442  0.00  0.00    -0.153 OA
BRANCH  11  19
ATOM     14  C   UNL     1       2.209  -0.603  -1.781  0.00  0.00    +0.044 C 
ATOM     15  C   UNL     1       1.002  -0.708  -0.885  0.00  0.00    -0.049 A 
ATOM     16  C   UNL     1      -0.083   0.125  -1.086  0.00  0.00    +0.004 A 
ATOM     17  C   UNL     1      -1.190   0.029  -0.265  0.00  0.00    +0.005 A 
ATOM     18  C   UNL     1      -1.213  -0.901   0.758  0.00  0.00    -0.024 A 
ATOM     19  C   UNL     1      -0.129  -1.735   0.959  0.00  0.00    +0.108 A 
ATOM     20  C   UNL     1       0.977  -1.641   0.134  0.00  0.00    +0.032 A 
ATOM     21  C   UNL     1      -2.420  -1.006   1.654  0.00  0.00    +0.046 C 
ENDBRANCH  11  19
ENDBRANCH   9  11
ENDBRANCH   8   9
ENDBRANCH   7   8
ENDBRANCH   1   7
BRANCH   4  22
ATOM     22  C   UNL     1      -4.001  -9.819  -1.589  0.00  0.00    +0.087 C 
BRANCH  22  23
ATOM     23  C   UNL     1      -3.709 -10.574  -2.887  0.00  0.00    -0.059 C 
BRANCH  23  24
ATOM     24  N   UNL     1      -4.633 -11.709  -3.011  0.00  0.00    +0.382 N 
ATOM     25  C   UNL     1      -6.007 -11.208  -3.144  0.00  0.00    -0.078 C 
ATOM     26  C   UNL     1      -6.981 -12.386  -3.192  0.00  0.00    -0.019 C 
ATOM     27  C   UNL     1      -6.642 -13.273  -4.394  0.00  0.00    -0.003 C 
ATOM     28  C   UNL     1      -5.184 -13.730  -4.283  0.00  0.00    -0.016 C 
ATOM     29  C   UNL     1      -4.276 -12.502  -4.194  0.00  0.00    -0.072 C 
ATOM     30  C   UNL     1      -2.818 -12.953  -4.083  0.00  0.00    -0.013 C 
ATOM     31  H   UNL     1      -4.567 -12.288  -2.187  0.00  0.00    -0.081 HD
ENDBRANCH  23  24
ENDBRANCH  22  23
ENDBRANCH   4  22
TORSDOF 8
