REMARK  Name = ZINC04444941
REMARK  11 active torsions:
REMARK  status: ('A' for Active; 'I' for Inactive)
REMARK    1  A    between atoms: C_1  and  C_2
REMARK    2  A    between atoms: C_3  and  C_31
REMARK    3  A    between atoms: C_4  and  C_30
REMARK    4  A    between atoms: C_5  and  C_10
REMARK    5  A    between atoms: C_6  and  C_9
REMARK    6  A    between atoms: C_7  and  C_8
REMARK    7  A    between atoms: C_10  and  O_12
REMARK    8  A    between atoms: O_12  and  C_13
REMARK    9  A    between atoms: C_13  and  C_14
REMARK   10  A    between atoms: N_16  and  N_17
REMARK   11  A    between atoms: C_23  and  C_26
REMARK                            x       y       z     vdW  Elec       q    Type
REMARK                         _______ _______ _______ _____ _____    ______ ____
ROOT
ATOM      1  C   UNL     1       0.015  -2.690  -2.496  0.00  0.00    +0.267 C 
ATOM      2  O   UNL     1      -0.004  -1.946  -3.454  0.00  0.00    -0.271 OA
ATOM      3  N   UNL     1       0.031  -4.025  -2.680  0.00  0.00    -0.221 N 
ATOM      4  H   UNL     1       0.047  -4.620  -1.914  0.00  0.00    +0.174 HD
ENDROOT
BRANCH   3   5
ATOM      5  N   UNL     1       0.026  -4.553  -3.977  0.00  0.00    -0.137 N 
ATOM      6  C   UNL     1       1.106  -5.092  -4.581  0.00  0.00    +0.263 C 
ATOM      7  O   UNL     1       2.222  -5.206  -4.122  0.00  0.00    -0.271 OA
ATOM      8  C   UNL     1       0.630  -5.523  -5.949  0.00  0.00    +0.114 C 
ATOM      9  C   UNL     1       0.786  -7.031  -6.116  0.00  0.00    +0.035 C 
ATOM     10  C   UNL     1       0.274  -7.450  -7.496  0.00  0.00    +0.006 C 
ATOM     11  C   UNL     1       1.067  -6.716  -8.578  0.00  0.00    -0.014 C 
ATOM     12  C   UNL     1       0.881  -5.207  -8.413  0.00  0.00    +0.006 C 
ATOM     13  C   UNL     1       1.396  -4.778  -7.037  0.00  0.00    +0.035 C 
ATOM     14  C   UNL     1       0.564  -7.144  -9.958  0.00  0.00    +0.007 C 
ATOM     15  N   UNL     1      -0.789  -5.147  -5.968  0.00  0.00    -0.284 N 
ATOM     16  C   UNL     1      -1.052  -4.592  -4.770  0.00  0.00    +0.326 C 
ATOM     17  O   UNL     1      -2.144  -4.170  -4.446  0.00  0.00    -0.251 OA
ATOM     18  H   UNL     1      -1.414  -5.277  -6.698  0.00  0.00    +0.151 HD
ENDBRANCH   3   5
BRANCH   1  19
ATOM     19  C   UNL     1       0.021  -2.122  -1.100  0.00  0.00    +0.329 C 
BRANCH  19  20
ATOM     20  O   UNL     1       0.000  -0.671  -1.168  0.00  0.00    -0.452 OA
BRANCH  20  21
ATOM     21  C   UNL     1       0.002  -0.004   0.002  0.00  0.00    +0.340 C 
ATOM     22  O   UNL     1       0.020  -0.617   1.051  0.00  0.00    -0.245 OA
BRANCH  21  27
ATOM     23  C   UNL     1      -0.076   5.749   0.033  0.00  0.00    +0.044 C 
ATOM     24  C   UNL     1      -0.056   4.242   0.025  0.00  0.00    -0.044 A 
ATOM     25  C   UNL     1       1.154   3.570   0.010  0.00  0.00    -0.044 A 
ATOM     26  C   UNL     1       1.180   2.191   0.003  0.00  0.00    -0.033 A 
ATOM     27  C   UNL     1      -0.018   1.473   0.010  0.00  0.00    +0.065 A 
ATOM     28  C   UNL     1      -1.235   2.158   0.020  0.00  0.00    -0.033 A 
ATOM     29  C   UNL     1      -1.246   3.537   0.033  0.00  0.00    -0.044 A 
ATOM     30  C   UNL     1      -2.558   4.278   0.049  0.00  0.00    +0.044 C 
ATOM     31  C   UNL     1      -2.533   1.392   0.021  0.00  0.00    +0.045 C 
ATOM     32  C   UNL     1       2.498   1.460  -0.013  0.00  0.00    +0.045 C 
ATOM     33  C   UNL     1       2.445   4.346   0.002  0.00  0.00    +0.044 C 
ENDBRANCH  21  27
ENDBRANCH  20  21
ENDBRANCH  19  20
ENDBRANCH   1  19
TORSDOF 5
