REMARK  Name = ZINC44389802
REMARK  10 active torsions:
REMARK  status: ('A' for Active; 'I' for Inactive)
REMARK    1  A    between atoms: C_1  and  C_2
REMARK    2  A    between atoms: C_2  and  C_3
REMARK    3  A    between atoms: C_4  and  C_31
REMARK    4  A    between atoms: C_11  and  N_19
REMARK    5  A    between atoms: C_13  and  C_15
REMARK    6  A    between atoms: C_15  and  C_16
REMARK    7  A    between atoms: C_15  and  C_17
REMARK    8  A    between atoms: C_15  and  C_18
REMARK    9  A    between atoms: N_22  and  C_23
REMARK   10  A    between atoms: C_23  and  C_24
REMARK                            x       y       z     vdW  Elec       q    Type
REMARK                         _______ _______ _______ _____ _____    ______ ____
ROOT
ATOM      1  C   UNL     1       0.707  -0.490  -1.238  0.00  0.00    +0.040 A 
ATOM      2  C   UNL     1       0.005  -0.724  -2.406  0.00  0.00    +0.050 A 
ATOM      3  N   UNL     1       0.655  -1.150  -3.477  0.00  0.00    -0.215 NA
ATOM      4  C   UNL     1       1.962  -1.355  -3.443  0.00  0.00    +0.255 A 
ATOM      5  N   UNL     1       2.670  -1.143  -2.345  0.00  0.00    -0.171 NA
ATOM      6  C   UNL     1       2.084  -0.709  -1.236  0.00  0.00    +0.278 A 
ATOM      7  O   UNL     1       2.813  -0.488  -0.115  0.00  0.00    -0.265 OA
ATOM      8  N   UNL     1       2.610  -1.804  -4.592  0.00  0.00    -0.206 N 
ATOM      9  C   UNL     1       3.942  -2.065  -4.714  0.00  0.00    +0.131 A 
ATOM     10  C   UNL     1       4.161  -2.480  -5.991  0.00  0.00    +0.067 A 
ATOM     11  C   UNL     1       2.933  -2.472  -6.661  0.00  0.00    +0.042 A 
ATOM     12  N   UNL     1       2.007  -2.075  -5.828  0.00  0.00    -0.293 N 
ATOM     13  C   UNL     1      -1.484  -0.495  -2.458  0.00  0.00    +0.066 C 
ATOM     14  H   UNL     1       1.063  -1.981  -6.031  0.00  0.00    +0.187 HD
ENDROOT
BRANCH   9  15
ATOM     15  N   UNL     1       4.904  -1.930  -3.714  0.00  0.00    -0.254 N 
ATOM     16  C   UNL     1       6.192  -2.225  -3.974  0.00  0.00    +0.305 C 
ATOM     17  O   UNL     1       6.517  -2.608  -5.082  0.00  0.00    -0.252 OA
ATOM     18  N   UNL     1       7.122  -2.095  -3.008  0.00  0.00    -0.295 N 
ATOM     19  H   UNL     1       4.645  -1.624  -2.830  0.00  0.00    +0.158 HD
ATOM     20  H   UNL     1       6.864  -1.789  -2.124  0.00  0.00    +0.151 HD
BRANCH  18  21
ATOM     21  C   UNL     1       8.524  -2.415  -3.291  0.00  0.00    +0.141 C 
BRANCH  21  22
ATOM     22  C   UNL     1       9.351  -2.187  -2.052  0.00  0.00    -0.030 A 
ATOM     23  C   UNL     1       9.917  -0.948  -1.818  0.00  0.00    +0.008 A 
ATOM     24  C   UNL     1      10.676  -0.737  -0.683  0.00  0.00    +0.038 A 
ATOM     25  C   UNL     1      10.870  -1.768   0.221  0.00  0.00    +0.123 A 
ATOM     26  C   UNL     1      10.302  -3.009  -0.015  0.00  0.00    +0.038 A 
ATOM     27  C   UNL     1       9.540  -3.216  -1.148  0.00  0.00    +0.008 A 
ATOM     28  F   UNL     1      11.612  -1.564   1.331  0.00  0.00    -0.205 F 
ENDBRANCH  21  22
ENDBRANCH  18  21
ENDBRANCH   9  15
BRANCH  11  29
ATOM     29  C   UNL     1       2.714  -2.862  -8.101  0.00  0.00    +0.004 C 
ATOM     30  C   UNL     1       4.048  -3.273  -8.727  0.00  0.00    +0.017 C 
ATOM     31  C   UNL     1       1.736  -4.036  -8.167  0.00  0.00    +0.017 C 
ATOM     32  C   UNL     1       2.135  -1.672  -8.869  0.00  0.00    +0.017 C 
ENDBRANCH  11  29
BRANCH   1  34
ATOM     33  C   UNL     1      -0.019   1.526   0.010  0.00  0.00    +0.009 C 
ATOM     34  C   UNL     1       0.002  -0.004   0.002  0.00  0.00    +0.039 C 
ENDBRANCH   1  34
TORSDOF 5
