REMARK  Name = ZINC52627439
REMARK  5 active torsions:
REMARK  status: ('A' for Active; 'I' for Inactive)
REMARK    1  A    between atoms: C_1  and  O_2
REMARK    2  A    between atoms: O_2  and  C_3
REMARK    3  A    between atoms: C_10  and  C_14
REMARK    4  A    between atoms: C_14  and  N_15
REMARK    5  A    between atoms: C_18  and  C_21
REMARK                            x       y       z     vdW  Elec       q    Type
REMARK                         _______ _______ _______ _____ _____    ______ ____
ROOT
ATOM      1  N   UNL     1      -0.447  -4.239   2.312  0.00  0.00    -0.295 NA
ATOM      2  C   UNL     1      -1.122  -5.138   3.262  0.00  0.00    +0.089 C 
ATOM      3  C   UNL     1      -0.866  -4.628   4.683  0.00  0.00    +0.050 C 
ATOM      4  C   UNL     1      -1.171  -3.158   4.756  0.00  0.00    -0.043 C 
ATOM      5  C   UNL     1      -1.282  -2.396   3.670  0.00  0.00    -0.008 C 
ATOM      6  C   UNL     1      -1.121  -2.935   2.277  0.00  0.00    +0.112 C 
ENDROOT
BRANCH   4   7
ATOM      7  C   UNL     1      -1.347  -2.563   6.022  0.00  0.00    -0.016 C 
ATOM      8  C   UNL     1      -1.169  -3.162   7.262  0.00  0.00    +0.006 A 
ATOM      9  C   UNL     1      -0.782  -4.468   7.646  0.00  0.00    +0.048 A 
ATOM     10  C   UNL     1      -0.688  -4.782   8.963  0.00  0.00    +0.124 A 
ATOM     11  C   UNL     1      -0.966  -3.841   9.963  0.00  0.00    +0.040 A 
ATOM     12  C   UNL     1      -1.342  -2.575   9.669  0.00  0.00    +0.029 A 
ATOM     13  C   UNL     1      -1.462  -2.170   8.312  0.00  0.00    +0.043 A 
ATOM     14  N   UNL     1      -1.803  -1.019   7.774  0.00  0.00    -0.380 N 
ATOM     15  C   UNL     1      -1.762  -1.138   6.314  0.00  0.00    +0.149 C 
ATOM     16  F   UNL     1      -0.318  -6.032   9.318  0.00  0.00    -0.205 F 
ATOM     17  H   UNL     1      -2.040  -0.217   8.266  0.00  0.00    +0.160 HD
ENDBRANCH   4   7
BRANCH   1  18
ATOM     18  C   UNL     1      -0.387  -4.837   0.972  0.00  0.00    +0.130 C 
BRANCH  18  26
ATOM     19  C   UNL     1       4.212  -5.963   1.712  0.00  0.00    +0.163 A 
ATOM     20  C   UNL     1       5.312  -6.788   1.528  0.00  0.00    +0.049 A 
ATOM     21  C   UNL     1       5.221  -7.896   0.707  0.00  0.00    +0.006 A 
ATOM     22  C   UNL     1       4.032  -8.188   0.065  0.00  0.00    +0.027 A 
ATOM     23  C   UNL     1       2.928  -7.368   0.245  0.00  0.00    +0.073 A 
ATOM     24  C   UNL     1       3.012  -6.253   1.072  0.00  0.00    +0.183 A 
ATOM     25  O   UNL     1       1.939  -5.438   1.254  0.00  0.00    -0.480 OA
ATOM     26  C   UNL     1       0.643  -5.968   0.963  0.00  0.00    +0.204 C 
ATOM     27  C   UNL     1       0.678  -6.626  -0.423  0.00  0.00    +0.147 C 
ATOM     28  N   UNL     1       1.718  -7.665  -0.403  0.00  0.00    -0.337 N 
ATOM     29  H   UNL     1       1.569  -8.530  -0.815  0.00  0.00    +0.146 HD
BRANCH  19  31
ATOM     30  C   UNL     1       5.569  -4.638   3.146  0.00  0.00    +0.277 C 
ATOM     31  O   UNL     1       4.306  -4.875   2.521  0.00  0.00    -0.491 OA
ENDBRANCH  19  31
ENDBRANCH  18  26
ENDBRANCH   1  18
TORSDOF 4
