REMARK  Name = ZINC03191901
REMARK  5 active torsions:
REMARK  status: ('A' for Active; 'I' for Inactive)
REMARK    1  A    between atoms: C_1  and  C_2
REMARK    2  A    between atoms: C_3  and  S_14
REMARK    3  A    between atoms: C_4  and  N_13
REMARK    4  A    between atoms: N_5  and  C_7
REMARK    5  A    between atoms: S_14  and  C_15
REMARK                            x       y       z     vdW  Elec       q    Type
REMARK                         _______ _______ _______ _____ _____    ______ ____
ROOT
ATOM      1  C   UNL     1      -0.225   6.759  -0.899  0.00  0.00    +0.069 C 
ATOM      2  C   UNL     1       0.531   5.556  -0.397  0.00  0.00    +0.076 A 
ATOM      3  C   UNL     1       1.685   5.587   0.396  0.00  0.00    +0.075 A 
ATOM      4  C   UNL     1       2.061   4.297   0.637  0.00  0.00    +0.134 A 
ATOM      5  N   UNL     1       1.161   3.487   0.009  0.00  0.00    -0.218 N 
ATOM      6  N   UNL     1       0.223   4.305  -0.632  0.00  0.00    -0.169 NA
ENDROOT
BRANCH   5   7
ATOM      7  C   UNL     1       1.177   2.086   0.002  0.00  0.00    +0.067 A 
ATOM      8  C   UNL     1      -0.017   1.377   0.010  0.00  0.00    +0.028 A 
ATOM      9  C   UNL     1       0.002  -0.004   0.002  0.00  0.00    +0.002 A 
ATOM     10  C   UNL     1       1.208  -0.680  -0.013  0.00  0.00    +0.000 A 
ATOM     11  C   UNL     1       2.399   0.023  -0.021  0.00  0.00    +0.002 A 
ATOM     12  C   UNL     1       2.386   1.404  -0.013  0.00  0.00    +0.028 A 
ENDBRANCH   5   7
BRANCH   4  13
ATOM     13  N   UNL     1       3.163   3.884   1.387  0.00  0.00    -0.342 N 
ATOM     14  H   UNL     1       3.345   2.938   1.500  0.00  0.00    +0.144 HD
ATOM     15  H   UNL     1       3.746   4.542   1.796  0.00  0.00    +0.144 HD
ENDBRANCH   4  13
BRANCH   3  16
ATOM     16  S   UNL     1       2.506   7.033   0.979  0.00  0.00    -0.083 S 
BRANCH  16  17
ATOM     17  C   UNL     1       3.673   7.402  -0.290  0.00  0.00    +0.031 A 
ATOM     18  C   UNL     1       3.755   6.593  -1.417  0.00  0.00    +0.016 A 
ATOM     19  C   UNL     1       4.670   6.884  -2.409  0.00  0.00    +0.001 A 
ATOM     20  C   UNL     1       5.505   7.980  -2.283  0.00  0.00    +0.001 A 
ATOM     21  C   UNL     1       5.426   8.788  -1.163  0.00  0.00    +0.021 A 
ATOM     22  C   UNL     1       4.510   8.506  -0.168  0.00  0.00    +0.055 A 
ATOM     23 CL   UNL     1       4.407   9.524   1.234  0.00  0.00    -0.082 Cl
ENDBRANCH  16  17
ENDBRANCH   3  16
TORSDOF 4
