REMARK  Name = ZINC67062307
REMARK  8 active torsions:
REMARK  status: ('A' for Active; 'I' for Inactive)
REMARK    1  A    between atoms: C_1  and  C_2
REMARK    2  A    between atoms: C_2  and  N_3
REMARK    3  A    between atoms: C_4  and  C_6
REMARK    4  A    between atoms: C_9  and  C_12
REMARK    5  A    between atoms: C_12  and  N_13
REMARK    6  A    between atoms: N_16  and  N_17
REMARK    7  A    between atoms: C_18  and  C_20
REMARK    8  A    between atoms: C_20  and  C_21
REMARK                            x       y       z     vdW  Elec       q    Type
REMARK                         _______ _______ _______ _____ _____    ______ ____
ROOT
ATOM      1  N   UNL     1       2.682  -3.908   7.152  0.00  0.00    -0.294 N 
ATOM      2  C   UNL     1       3.111  -4.352   8.350  0.00  0.00    +0.316 C 
ATOM      3  O   UNL     1       4.290  -4.596   8.522  0.00  0.00    -0.251 OA
ATOM      4  N   UNL     1       2.233  -4.525   9.358  0.00  0.00    -0.218 N 
ATOM      5  H   UNL     1       1.742  -3.713   7.015  0.00  0.00    +0.151 HD
ATOM      6  H   UNL     1       2.542  -4.844  10.220  0.00  0.00    +0.174 HD
ENDROOT
BRANCH   4   7
ATOM      7  N   UNL     1       0.875  -4.243   9.160  0.00  0.00    -0.233 N 
ATOM      8  C   UNL     1      -0.003  -4.416  10.168  0.00  0.00    +0.229 C 
ATOM      9  O   UNL     1       0.383  -4.816  11.246  0.00  0.00    -0.274 OA
ATOM     10  H   UNL     1       0.566  -3.924   8.297  0.00  0.00    +0.173 HD
BRANCH   8  11
ATOM     11  C   UNL     1      -1.464  -4.114   9.955  0.00  0.00    +0.101 C 
BRANCH  11  12
ATOM     12  C   UNL     1      -2.236  -4.392  11.246  0.00  0.00    -0.002 C 
ATOM     13  C   UNL     1      -2.175  -5.888  11.564  0.00  0.00    +0.004 C 
ATOM     14  C   UNL     1      -2.946  -6.166  12.856  0.00  0.00    +0.000 C 
ATOM     15  C   UNL     1      -4.406  -5.742  12.679  0.00  0.00    +0.000 C 
ATOM     16  C   UNL     1      -4.467  -4.247  12.361  0.00  0.00    +0.000 C 
ATOM     17  C   UNL     1      -3.695  -3.968  11.069  0.00  0.00    +0.004 C 
ENDBRANCH  11  12
ENDBRANCH   8  11
ENDBRANCH   4   7
BRANCH   1  18
ATOM     18  C   UNL     1       3.637  -3.720   6.056  0.00  0.00    +0.141 C 
BRANCH  18  22
ATOM     19  C   UNL     1       1.569  -2.304   2.591  0.00  0.00    +0.037 A 
ATOM     20  C   UNL     1       2.092  -1.397   3.515  0.00  0.00    +0.013 A 
ATOM     21  C   UNL     1       2.758  -1.861   4.631  0.00  0.00    +0.006 A 
ATOM     22  C   UNL     1       2.908  -3.221   4.835  0.00  0.00    -0.030 A 
ATOM     23  C   UNL     1       2.392  -4.125   3.923  0.00  0.00    +0.006 A 
ATOM     24  C   UNL     1       1.719  -3.674   2.807  0.00  0.00    +0.013 A 
BRANCH  19  26
ATOM     25  N   UNL     1       0.711  -0.489   1.189  0.00  0.00    -0.312 N 
ATOM     26  C   UNL     1       0.854  -1.814   1.394  0.00  0.00    +0.244 C 
ATOM     27  O   UNL     1       0.395  -2.606   0.594  0.00  0.00    -0.270 OA
ATOM     28  H   UNL     1       1.077   0.142   1.827  0.00  0.00    +0.149 HD
BRANCH  25  30
ATOM     29  C   UNL     1      -0.019   1.526   0.010  0.00  0.00    +0.024 C 
ATOM     30  C   UNL     1       0.002  -0.004   0.002  0.00  0.00    +0.101 C 
ENDBRANCH  25  30
ENDBRANCH  19  26
ENDBRANCH  18  22
ENDBRANCH   1  18
TORSDOF 7
