REMARK  Name = ZINC36148159
REMARK  10 active torsions:
REMARK  status: ('A' for Active; 'I' for Inactive)
REMARK    1  A    between atoms: C_1  and  C_2
REMARK    2  A    between atoms: C_2  and  C_3
REMARK    3  A    between atoms: C_2  and  C_4
REMARK    4  A    between atoms: C_2  and  N_5
REMARK    5  A    between atoms: C_11  and  C_14
REMARK    6  A    between atoms: C_14  and  C_16
REMARK    7  A    between atoms: C_14  and  N_25
REMARK    8  A    between atoms: N_18  and  C_19
REMARK    9  A    between atoms: C_19  and  C_20
REMARK   10  A    between atoms: C_26  and  C_28
REMARK                            x       y       z     vdW  Elec       q    Type
REMARK                         _______ _______ _______ _____ _____    ______ ____
ROOT
ATOM      1  C   UNL     1       4.922  -3.833  -4.132  0.00  0.00    +0.162 C 
ENDROOT
BRANCH   1   8
ATOM      2  N   UNL     1       0.688  -0.477  -1.203  0.00  0.00    -0.294 N 
ATOM      3  C   UNL     1       1.972  -0.132  -1.427  0.00  0.00    +0.303 C 
ATOM      4  O   UNL     1       2.532   0.644  -0.678  0.00  0.00    -0.253 OA
ATOM      5  N   UNL     1       2.633  -0.647  -2.482  0.00  0.00    -0.286 N 
ATOM      6  C   UNL     1       1.938  -1.494  -3.461  0.00  0.00    +0.109 C 
ATOM      7  C   UNL     1       2.703  -2.813  -3.604  0.00  0.00    +0.025 C 
ATOM      8  C   UNL     1       4.163  -2.516  -3.954  0.00  0.00    +0.021 C 
ATOM      9  C   UNL     1       4.805  -1.705  -2.827  0.00  0.00    +0.025 C 
ATOM     10  C   UNL     1       4.063  -0.369  -2.678  0.00  0.00    +0.109 C 
ATOM     11  H   UNL     1       0.218  -1.038  -1.839  0.00  0.00    +0.151 HD
BRANCH   2  13
ATOM     12  C   UNL     1      -0.019   1.525   0.011  0.00  0.00    +0.031 C 
ATOM     13  C   UNL     1       0.003  -0.005   0.003  0.00  0.00    +0.028 C 
ATOM     14  C   UNL     1       0.743  -0.511   1.242  0.00  0.00    +0.031 C 
ATOM     15  C   UNL     1      -1.433  -0.535   0.014  0.00  0.00    +0.031 C 
ENDBRANCH   2  13
ENDBRANCH   1   8
BRANCH   1  16
ATOM     16  C   UNL     1       6.360  -3.541  -4.477  0.00  0.00    +0.234 C 
ATOM     17  O   UNL     1       7.250  -3.936  -3.753  0.00  0.00    -0.274 OA
ATOM     18  N   UNL     1       6.657  -2.841  -5.590  0.00  0.00    -0.307 N 
ATOM     19  H   UNL     1       5.946  -2.525  -6.168  0.00  0.00    +0.149 HD
BRANCH  18  20
ATOM     20  C   UNL     1       8.055  -2.557  -5.925  0.00  0.00    +0.178 C 
BRANCH  20  21
ATOM     21  C   UNL     1       8.114  -1.766  -7.206  0.00  0.00    +0.122 A 
ATOM     22  C   UNL     1       8.098  -0.425  -7.305  0.00  0.00    +0.046 A 
ATOM     23  C   UNL     1       8.169  -0.114  -8.682  0.00  0.00    +0.041 A 
ATOM     24  C   UNL     1       8.224  -1.284  -9.343  0.00  0.00    +0.195 A 
ATOM     25  O   UNL     1       8.196  -2.281  -8.444  0.00  0.00    -0.466 OA
ENDBRANCH  20  21
ENDBRANCH  18  20
ENDBRANCH   1  16
BRANCH   1  26
ATOM     26  N   UNL     1       4.865  -4.601  -2.886  0.00  0.00    -0.300 N 
ATOM     27  C   UNL     1       4.996  -5.942  -2.915  0.00  0.00    +0.245 C 
ATOM     28  O   UNL     1       5.161  -6.514  -3.975  0.00  0.00    -0.270 OA
ATOM     29  H   UNL     1       4.734  -4.145  -2.040  0.00  0.00    +0.150 HD
BRANCH  27  30
ATOM     30  C   UNL     1       4.939  -6.717  -1.659  0.00  0.00    +0.037 A 
ATOM     31  C   UNL     1       4.744  -6.063  -0.440  0.00  0.00    +0.016 A 
ATOM     32  C   UNL     1       4.691  -6.791   0.729  0.00  0.00    +0.039 A 
ATOM     33  C   UNL     1       4.832  -8.170   0.697  0.00  0.00    +0.123 A 
ATOM     34  C   UNL     1       5.026  -8.824  -0.510  0.00  0.00    +0.039 A 
ATOM     35  C   UNL     1       5.074  -8.107  -1.686  0.00  0.00    +0.016 A 
ATOM     36  F   UNL     1       4.780  -8.879   1.846  0.00  0.00    -0.205 F 
ENDBRANCH  27  30
ENDBRANCH   1  26
TORSDOF 7
