REMARK  Name = ZINC36359096
REMARK  8 active torsions:
REMARK  status: ('A' for Active; 'I' for Inactive)
REMARK    1  A    between atoms: C_1  and  O_2
REMARK    2  A    between atoms: O_2  and  C_3
REMARK    3  A    between atoms: C_9  and  C_13
REMARK    4  A    between atoms: C_13  and  C_14
REMARK    5  A    between atoms: C_14  and  N_15
REMARK    6  A    between atoms: C_16  and  C_32
REMARK    7  A    between atoms: C_19  and  C_26
REMARK    8  A    between atoms: C_36  and  O_38
REMARK                            x       y       z     vdW  Elec       q    Type
REMARK                         _______ _______ _______ _____ _____    ______ ____
ROOT
ATOM      1  N   UNL     1       1.758  -6.730  -0.088  0.00  0.00    -0.285 N 
ATOM      2  C   UNL     1       2.092  -8.123   0.237  0.00  0.00    +0.141 C 
ATOM      3  C   UNL     1       1.438  -8.966  -0.823  0.00  0.00    +0.035 A 
ATOM      4  C   UNL     1       1.198 -10.249  -1.327  0.00  0.00    +0.099 A 
ATOM      5  N   UNL     1       0.452 -10.114  -2.406  0.00  0.00    -0.173 NA
ATOM      6  N   UNL     1       0.198  -8.875  -2.632  0.00  0.00    -0.272 N 
ATOM      7  H   UNL     1      -0.334  -8.541  -3.372  0.00  0.00    +0.189 HD
ATOM      8  C   UNL     1       0.786  -8.097  -1.676  0.00  0.00    +0.126 A 
ATOM      9  C   UNL     1       0.996  -6.727  -1.196  0.00  0.00    +0.265 C 
ATOM     10  O   UNL     1       0.547  -5.729  -1.727  0.00  0.00    -0.268 OA
ENDROOT
BRANCH   4  11
ATOM     11  C   UNL     1       1.692 -11.526  -0.754  0.00  0.00    +0.002 A 
ATOM     12  C   UNL     1       2.944 -11.581  -0.145  0.00  0.00    +0.010 A 
ATOM     13  C   UNL     1       3.398 -12.771   0.386  0.00  0.00    +0.001 A 
ATOM     14  C   UNL     1       2.614 -13.907   0.315  0.00  0.00    +0.000 A 
ATOM     15  C   UNL     1       1.370 -13.858  -0.288  0.00  0.00    +0.001 A 
ATOM     16  C   UNL     1       0.903 -12.672  -0.818  0.00  0.00    +0.010 A 
ENDBRANCH   4  11
BRANCH   2  17
ATOM     17  C   UNL     1       3.586  -8.318   0.209  0.00  0.00    -0.019 A 
ATOM     18  C   UNL     1       4.345  -7.704  -0.771  0.00  0.00    +0.006 A 
ATOM     19  C   UNL     1       5.716  -7.881  -0.800  0.00  0.00    +0.004 A 
ATOM     20  C   UNL     1       6.331  -8.673   0.150  0.00  0.00    +0.045 A 
ATOM     21  C   UNL     1       5.573  -9.291   1.133  0.00  0.00    +0.117 A 
ATOM     22  C   UNL     1       4.198  -9.107   1.164  0.00  0.00    +0.051 A 
BRANCH  21  23
ATOM     23  O   UNL     1       6.176 -10.071   2.069  0.00  0.00    -0.507 OA
ATOM     24  H   UNL     1       6.453  -9.592   2.861  0.00  0.00    +0.292 HD
ENDBRANCH  21  23
ENDBRANCH   2  17
BRANCH   1  25
ATOM     25  C   UNL     1       2.178  -5.548   0.669  0.00  0.00    +0.114 C 
BRANCH  25  26
ATOM     26  C   UNL     1       1.138  -5.237   1.747  0.00  0.00    +0.056 C 
BRANCH  26  33
ATOM     27  C   UNL     1       0.626  -0.619   1.042  0.00  0.00    +0.121 A 
ATOM     28  C   UNL     1       1.204   0.145   2.054  0.00  0.00    +0.047 A 
ATOM     29  C   UNL     1       1.839  -0.461   3.114  0.00  0.00    +0.030 A 
ATOM     30  C   UNL     1       1.909  -1.849   3.182  0.00  0.00    +0.047 A 
ATOM     31  C   UNL     1       1.327  -2.623   2.162  0.00  0.00    +0.006 A 
ATOM     32  C   UNL     1       0.680  -1.997   1.094  0.00  0.00    +0.056 A 
ATOM     33  C   UNL     1       1.570  -4.021   2.526  0.00  0.00    -0.021 A 
ATOM     34  C   UNL     1       2.249  -4.014   3.683  0.00  0.00    +0.087 A 
ATOM     35  N   UNL     1       2.461  -2.726   4.092  0.00  0.00    -0.360 N 
ATOM     36  H   UNL     1       2.931  -2.467   4.900  0.00  0.00    +0.165 HD
BRANCH  27  38
ATOM     37  C   UNL     1      -0.017   1.425   0.010  0.00  0.00    +0.277 C 
ATOM     38  O   UNL     1       0.002  -0.004   0.002  0.00  0.00    -0.495 OA
ENDBRANCH  27  38
ENDBRANCH  26  33
ENDBRANCH  25  26
ENDBRANCH   1  25
TORSDOF 7
