REMARK  Name = ZINC38547657
REMARK  12 active torsions:
REMARK  status: ('A' for Active; 'I' for Inactive)
REMARK    1  A    between atoms: C_1  and  C_2
REMARK    2  A    between atoms: C_6  and  N_8
REMARK    3  A    between atoms: N_8  and  C_9
REMARK    4  A    between atoms: C_9  and  C_11
REMARK    5  A    between atoms: C_9  and  C_20
REMARK    6  A    between atoms: C_14  and  C_17
REMARK    7  A    between atoms: C_17  and  C_18
REMARK    8  A    between atoms: C_17  and  C_19
REMARK    9  A    between atoms: C_21  and  C_34
REMARK   10  A    between atoms: C_22  and  C_33
REMARK   11  A    between atoms: C_24  and  N_25
REMARK   12  A    between atoms: C_26  and  C_28
REMARK                            x       y       z     vdW  Elec       q    Type
REMARK                         _______ _______ _______ _____ _____    ______ ____
ROOT
ATOM      1  C   UNL     1       0.180  -4.085   2.337  0.00  0.00    +0.135 C 
ENDROOT
BRANCH   1   2
ATOM      2  C   UNL     1       1.468  -4.663   1.811  0.00  0.00    +0.009 A 
ATOM      3  C   UNL     1       2.141  -5.642   2.518  0.00  0.00    -0.033 A 
ATOM      4  C   UNL     1       3.297  -6.141   2.017  0.00  0.00    -0.008 A 
ATOM      5  S   UNL     1       3.471  -5.221   0.497  0.00  0.00    -0.078 S 
ATOM      6  C   UNL     1       1.989  -4.234   0.626  0.00  0.00    +0.078 A 
ATOM      7  C   UNL     1       4.202  -7.198   2.594  0.00  0.00    +0.052 C 
ATOM      8  C   UNL     1       1.597  -6.147   3.830  0.00  0.00    +0.045 C 
BRANCH   6   9
ATOM      9  N   UNL     1       1.492  -3.272  -0.256  0.00  0.00    -0.273 N 
ATOM     10  C   UNL     1       2.098  -3.071  -1.443  0.00  0.00    +0.284 C 
ATOM     11  O   UNL     1       3.030  -3.778  -1.779  0.00  0.00    -0.266 OA
ATOM     12  H   UNL     1       0.712  -2.749  -0.014  0.00  0.00    +0.156 HD
BRANCH  10  13
ATOM     13  C   UNL     1       1.633  -2.000  -2.330  0.00  0.00    +0.189 A 
ATOM     14  C   UNL     1       2.092  -1.747  -3.591  0.00  0.00    +0.054 A 
ATOM     15  C   UNL     1       1.373  -0.639  -4.067  0.00  0.00    +0.042 A 
ATOM     16  C   UNL     1       0.518  -0.269  -3.089  0.00  0.00    +0.196 A 
ATOM     17  O   UNL     1       0.674  -1.094  -2.045  0.00  0.00    -0.458 OA
ENDBRANCH  10  13
ENDBRANCH   6   9
ENDBRANCH   1   2
BRANCH   1  18
ATOM     18  C   UNL     1      -0.984  -4.701   1.603  0.00  0.00    -0.023 A 
ATOM     19  C   UNL     1      -1.355  -4.215   0.364  0.00  0.00    +0.006 A 
ATOM     20  C   UNL     1      -2.423  -4.780  -0.308  0.00  0.00    +0.004 A 
ATOM     21  C   UNL     1      -3.118  -5.832   0.258  0.00  0.00    -0.045 A 
ATOM     22  C   UNL     1      -2.745  -6.319   1.497  0.00  0.00    +0.004 A 
ATOM     23  C   UNL     1      -1.675  -5.756   2.168  0.00  0.00    +0.006 A 
BRANCH  21  24
ATOM     24  C   UNL     1      -4.282  -6.448  -0.474  0.00  0.00    +0.013 C 
ATOM     25  C   UNL     1      -3.997  -7.929  -0.730  0.00  0.00    +0.012 C 
ATOM     26  C   UNL     1      -5.548  -6.311   0.373  0.00  0.00    +0.012 C 
ENDBRANCH  21  24
ENDBRANCH   1  18
BRANCH   1  27
ATOM     27  N   UNL     1       0.175  -2.634   2.129  0.00  0.00    -0.320 N 
ATOM     28  H   UNL     1      -0.321  -2.252   1.388  0.00  0.00    +0.148 HD
BRANCH  27  34
ATOM     29  C   UNL     1       1.683   1.781   3.203  0.00  0.00    +0.063 C 
ATOM     30  C   UNL     1       1.622   0.312   3.535  0.00  0.00    +0.014 A 
ATOM     31  C   UNL     1       2.258  -0.158   4.667  0.00  0.00    +0.021 A 
ATOM     32  C   UNL     1       2.198  -1.512   4.968  0.00  0.00    +0.005 A 
ATOM     33  C   UNL     1       1.498  -2.347   4.116  0.00  0.00    +0.041 A 
ATOM     34  C   UNL     1       0.881  -1.806   2.994  0.00  0.00    +0.097 A 
ATOM     35  N   UNL     1       0.957  -0.508   2.743  0.00  0.00    -0.347 N 
ATOM     36  H   UNL     1       0.515  -0.151   1.957  0.00  0.00    +0.167 HD
ENDBRANCH  27  34
ENDBRANCH   1  27
TORSDOF 7
