REMARK  Name = ZINC39836433
REMARK  12 active torsions:
REMARK  status: ('A' for Active; 'I' for Inactive)
REMARK    1  A    between atoms: C_1  and  C_2
REMARK    2  A    between atoms: C_2  and  C_3
REMARK    3  A    between atoms: C_2  and  C_4
REMARK    4  A    between atoms: C_2  and  C_5
REMARK    5  A    between atoms: C_8  and  C_11
REMARK    6  A    between atoms: N_13  and  C_14
REMARK    7  A    between atoms: C_15  and  C_28
REMARK    8  A    between atoms: C_20  and  C_24
REMARK    9  A    between atoms: C_24  and  C_25
REMARK   10  A    between atoms: C_24  and  C_26
REMARK   11  A    between atoms: C_24  and  C_27
REMARK   12  A    between atoms: N_30  and  C_31
REMARK                            x       y       z     vdW  Elec       q    Type
REMARK                         _______ _______ _______ _____ _____    ______ ____
ROOT
ATOM      1  C   UNL     1       4.630  -1.969  -6.092  0.00  0.00    +0.085 A 
ATOM      2  C   UNL     1       5.939  -1.727  -6.478  0.00  0.00    +0.069 A 
ATOM      3  C   UNL     1       6.382  -2.316  -7.729  0.00  0.00    -0.023 A 
ATOM      4  C   UNL     1       5.435  -3.039  -8.366  0.00  0.00    -0.004 A 
ATOM      5  S   UNL     1       4.013  -2.935  -7.319  0.00  0.00    -0.077 S 
ATOM      6  C   UNL     1       5.581  -3.764  -9.668  0.00  0.00    +0.046 C 
ATOM      7  C   UNL     1       6.852  -3.256 -10.364  0.00  0.00    -0.000 C 
ATOM      8  C   UNL     1       8.003  -3.255  -9.354  0.00  0.00    +0.009 C 
ATOM      9  C   UNL     1       7.780  -2.159  -8.310  0.00  0.00    +0.037 C 
ENDROOT
BRANCH   1  12
ATOM     10  C   UNL     1       2.696  -1.861  -4.731  0.00  0.00    +0.249 C 
ATOM     11  O   UNL     1       2.106  -2.560  -5.532  0.00  0.00    -0.270 OA
ATOM     12  N   UNL     1       3.981  -1.521  -4.952  0.00  0.00    -0.275 N 
ATOM     13  H   UNL     1       4.452  -0.963  -4.314  0.00  0.00    +0.156 HD
BRANCH  10  17
ATOM     14  C   UNL     1       0.707  -0.490  -1.238  0.00  0.00    -0.042 A 
ATOM     15  C   UNL     1       0.033  -1.285  -2.147  0.00  0.00    +0.005 A 
ATOM     16  C   UNL     1       0.672  -1.734  -3.284  0.00  0.00    +0.013 A 
ATOM     17  C   UNL     1       2.004  -1.383  -3.516  0.00  0.00    +0.037 A 
ATOM     18  C   UNL     1       2.679  -0.581  -2.595  0.00  0.00    +0.013 A 
ATOM     19  C   UNL     1       2.025  -0.135  -1.464  0.00  0.00    +0.005 A 
BRANCH  14  21
ATOM     20  C   UNL     1      -0.019   1.526   0.010  0.00  0.00    +0.015 C 
ATOM     21  C   UNL     1       0.002  -0.004   0.002  0.00  0.00    -0.013 C 
ATOM     22  C   UNL     1       0.742  -0.511   1.242  0.00  0.00    +0.015 C 
ATOM     23  C   UNL     1      -1.433  -0.534   0.013  0.00  0.00    +0.015 C 
ENDBRANCH  14  21
ENDBRANCH  10  17
ENDBRANCH   1  12
BRANCH   7  24
ATOM     24  C   UNL     1       7.196  -4.175 -11.537  0.00  0.00    -0.035 C 
ATOM     25  C   UNL     1       6.037  -4.182 -12.536  0.00  0.00    +0.011 C 
ATOM     26  C   UNL     1       8.462  -3.666 -12.229  0.00  0.00    +0.011 C 
ATOM     27  C   UNL     1       7.433  -5.595 -11.021  0.00  0.00    +0.011 C 
ENDBRANCH   7  24
BRANCH   2  28
ATOM     28  C   UNL     1       6.839  -0.909  -5.658  0.00  0.00    +0.247 C 
ATOM     29  O   UNL     1       7.525  -1.434  -4.800  0.00  0.00    -0.270 OA
ATOM     30  N   UNL     1       6.906   0.422  -5.854  0.00  0.00    -0.307 N 
ATOM     31  H   UNL     1       6.359   0.840  -6.537  0.00  0.00    +0.149 HD
BRANCH  30  32
ATOM     32  C   UNL     1       7.805   1.239  -5.034  0.00  0.00    +0.096 C 
ATOM     33  C   UNL     1       9.210   1.234  -5.658  0.00  0.00    +0.046 C 
ATOM     34  C   UNL     1      10.052   2.342  -4.963  0.00  0.00    +0.168 C 
ATOM     35  S   UNL     1       8.800   3.688  -4.835  0.00  0.00    -0.029 S 
ATOM     36  O   UNL     1       8.904   4.525  -5.979  0.00  0.00    -0.174 OA
ATOM     37  O   UNL     1       8.871   4.264  -3.538  0.00  0.00    -0.174 OA
ATOM     38  C   UNL     1       7.264   2.687  -4.965  0.00  0.00    +0.188 C 
ENDBRANCH  30  32
ENDBRANCH   2  28
TORSDOF 6
