REMARK  Name = ZINC09374165
REMARK  15 active torsions:
REMARK  status: ('A' for Active; 'I' for Inactive)
REMARK    1  A    between atoms: C_1  and  C_2
REMARK    2  A    between atoms: C_2  and  N_71
REMARK    3  A    between atoms: C_3  and  C_4
REMARK    4  A    between atoms: C_3  and  N_71
REMARK    5  A    between atoms: C_5  and  C_6
REMARK    6  A    between atoms: C_5  and  N_71
REMARK    7  A    between atoms: C_6  and  C_7
REMARK    8  A    between atoms: C_7  and  N_8
REMARK    9  A    between atoms: C_9  and  C_29
REMARK   10  A    between atoms: C_12  and  C_13
REMARK   11  A    between atoms: C_12  and  O_24
REMARK   12  A    between atoms: C_20  and  C_23
REMARK   13  A    between atoms: C_32  and  C_35
REMARK   14  A    between atoms: C_35  and  O_37
REMARK   15  A    between atoms: O_37  and  C_38
REMARK                            x       y       z     vdW  Elec       q    Type
REMARK                         _______ _______ _______ _____ _____    ______ ____
ROOT
ATOM      1  N   UNL     1       6.351  -4.019   4.262  0.00  0.00    -0.284 N 
ATOM      2  C   UNL     1       6.579  -2.639   3.822  0.00  0.00    +0.144 C 
ATOM      3  C   UNL     1       5.315  -2.194   3.124  0.00  0.00    +0.071 C 
ATOM      4  C   UNL     1       5.075  -0.961   2.548  0.00  0.00    +0.133 C 
ATOM      5  C   UNL     1       4.437  -3.286   3.172  0.00  0.00    +0.249 C 
ATOM      6  O   UNL     1       3.311  -3.318   2.709  0.00  0.00    -0.282 OA
ATOM      7  C   UNL     1       5.118  -4.399   3.888  0.00  0.00    +0.288 C 
ATOM      8  O   UNL     1       4.631  -5.490   4.102  0.00  0.00    -0.266 OA
ENDROOT
BRANCH   4   9
ATOM      9  C   UNL     1       3.741  -0.644   2.018  0.00  0.00    +0.017 A 
ATOM     10  C   UNL     1       2.597  -0.898   2.785  0.00  0.00    +0.015 A 
ATOM     11  C   UNL     1       1.351  -0.605   2.286  0.00  0.00    +0.046 A 
ATOM     12  C   UNL     1       1.212  -0.053   1.011  0.00  0.00    +0.124 A 
ATOM     13  C   UNL     1       2.352   0.206   0.255  0.00  0.00    -0.002 A 
ATOM     14  C   UNL     1       3.602  -0.085   0.741  0.00  0.00    +0.019 A 
ATOM     15  C   UNL     1       1.888   0.820  -1.052  0.00  0.00    +0.083 C 
ATOM     16  C   UNL     1       0.429   1.212  -0.720  0.00  0.00    +0.175 C 
ATOM     17  O   UNL     1       0.085   0.298   0.335  0.00  0.00    -0.488 OA
ATOM     18  C   UNL     1       0.355   2.659  -0.228  0.00  0.00    +0.052 C 
ENDBRANCH   4   9
BRANCH   2  19
ATOM     19  C   UNL     1       6.849  -1.758   5.014  0.00  0.00    -0.022 A 
ATOM     20  C   UNL     1       6.141  -1.951   6.187  0.00  0.00    +0.006 A 
ATOM     21  C   UNL     1       6.386  -1.151   7.284  0.00  0.00    +0.015 A 
ATOM     22  C   UNL     1       7.343  -0.137   7.205  0.00  0.00    +0.059 A 
ATOM     23  C   UNL     1       8.050   0.055   6.016  0.00  0.00    +0.015 A 
ATOM     24  C   UNL     1       7.799  -0.755   4.928  0.00  0.00    +0.006 A 
BRANCH  22  25
ATOM     25  C   UNL     1       7.608   0.727   8.373  0.00  0.00    +0.339 C 
ATOM     26  O   UNL     1       8.441   1.607   8.301  0.00  0.00    -0.245 OA
BRANCH  25  27
ATOM     27  O   UNL     1       6.924   0.539   9.518  0.00  0.00    -0.464 OA
ATOM     28  C   UNL     1       7.236   1.425  10.626  0.00  0.00    +0.280 C 
ENDBRANCH  25  27
ENDBRANCH  22  25
ENDBRANCH   2  19
BRANCH   4  29
ATOM     29  O   UNL     1       6.066  -0.047   2.473  0.00  0.00    -0.506 OA
ATOM     30  H   UNL     1       5.723   0.782   2.031  0.00  0.00    +0.292 HD
ENDBRANCH   4  29
BRANCH   1  31
ATOM     31  C   UNL     1       7.314  -4.850   4.989  0.00  0.00    +0.107 C 
BRANCH  31  32
ATOM     32  C   UNL     1       8.179  -5.621   3.989  0.00  0.00    +0.000 C 
BRANCH  32  33
ATOM     33  C   UNL     1       9.184  -6.489   4.748  0.00  0.00    -0.077 C 
BRANCH  33  34
ATOM     34  N   UNL     1       9.997  -7.243   3.770  0.00  0.00    +0.379 N 
ATOM     35  H   UNL     1       9.369  -7.726   3.116  0.00  0.00    -0.082 HD
BRANCH  34  37
ATOM     36  C   UNL     1      11.842  -5.606   3.944  0.00  0.00    -0.017 C 
ATOM     37  C   UNL     1      10.860  -6.315   3.009  0.00  0.00    -0.082 C 
ENDBRANCH  34  37
BRANCH  34  38
ATOM     38  C   UNL     1      10.827  -8.246   4.469  0.00  0.00    -0.082 C 
ATOM     39  C   UNL     1      11.376  -9.235   3.438  0.00  0.00    -0.017 C 
ENDBRANCH  34  38
ENDBRANCH  33  34
ENDBRANCH  32  33
ENDBRANCH  31  32
ENDBRANCH   1  31
TORSDOF 11
