REMARK  Name = ZINC52943900
REMARK  7 active torsions:
REMARK  status: ('A' for Active; 'I' for Inactive)
REMARK    1  A    between atoms: C_1  and  C_2
REMARK    2  A    between atoms: C_5  and  O_22
REMARK    3  A    between atoms: C_6  and  C_8
REMARK    4  A    between atoms: C_8  and  C_10
REMARK    5  A    between atoms: C_8  and  O_21
REMARK    6  A    between atoms: C_17  and  C_20
REMARK    7  A    between atoms: O_22  and  C_23
REMARK                            x       y       z     vdW  Elec       q    Type
REMARK                         _______ _______ _______ _____ _____    ______ ____
ROOT
ATOM      1  C   UNL     1       0.052  -2.841   2.493  0.00  0.00    +0.178 C 
ENDROOT
BRANCH   1   2
ATOM      2  C   UNL     1      -1.356  -3.219   2.872  0.00  0.00    -0.014 A 
ATOM      3  C   UNL     1      -2.191  -2.287   3.460  0.00  0.00    +0.010 A 
ATOM      4  C   UNL     1      -3.483  -2.627   3.805  0.00  0.00    +0.046 A 
ATOM      5  C   UNL     1      -3.957  -3.914   3.564  0.00  0.00    +0.124 A 
ATOM      6  C   UNL     1      -3.107  -4.844   2.979  0.00  0.00    -0.002 A 
ATOM      7  C   UNL     1      -1.821  -4.499   2.627  0.00  0.00    +0.013 A 
ATOM      8  C   UNL     1      -3.881  -6.143   2.865  0.00  0.00    +0.083 C 
ATOM      9  C   UNL     1      -5.078  -5.887   3.811  0.00  0.00    +0.175 C 
ATOM     10  O   UNL     1      -5.183  -4.453   3.810  0.00  0.00    -0.488 OA
ATOM     11  C   UNL     1      -4.779  -6.412   5.216  0.00  0.00    +0.052 C 
ENDBRANCH   1   2
BRANCH   1  17
ATOM     12  C   UNL     1      -0.018   1.503   0.010  0.00  0.00    +0.044 C 
ATOM     13  C   UNL     1       0.002  -0.004   0.002  0.00  0.00    -0.050 A 
ATOM     14  C   UNL     1       0.006  -0.688  -1.200  0.00  0.00    +0.007 A 
ATOM     15  C   UNL     1       0.024  -2.069  -1.210  0.00  0.00    +0.046 A 
ATOM     16  C   UNL     1       0.039  -2.770  -0.013  0.00  0.00    +0.126 A 
ATOM     17  C   UNL     1       0.036  -2.082   1.191  0.00  0.00    +0.027 A 
ATOM     18  C   UNL     1       0.023  -0.701   1.196  0.00  0.00    +0.013 A 
BRANCH  16  19
ATOM     19  O   UNL     1       0.057  -4.129  -0.021  0.00  0.00    -0.495 OA
ATOM     20  C   UNL     1       0.058  -4.771  -1.298  0.00  0.00    +0.277 C 
ENDBRANCH  16  19
ENDBRANCH   1  17
BRANCH   1  21
ATOM     21  O   UNL     1       0.616  -2.018   3.517  0.00  0.00    -0.382 OA
ATOM     22  H   UNL     1       0.131  -1.196   3.672  0.00  0.00    +0.211 HD
ENDBRANCH   1  21
TORSDOF 4
