REMARK  Name = ZINC39769593
REMARK  6 active torsions:
REMARK  status: ('A' for Active; 'I' for Inactive)
REMARK    1  A    between atoms: C_1  and  N_2
REMARK    2  A    between atoms: C_3  and  C_5
REMARK    3  A    between atoms: C_8  and  N_11
REMARK    4  A    between atoms: C_12  and  C_14
REMARK    5  A    between atoms: C_14  and  O_15
REMARK    6  A    between atoms: O_15  and  C_16
REMARK                            x       y       z     vdW  Elec       q    Type
REMARK                         _______ _______ _______ _____ _____    ______ ____
ROOT
ATOM      1  C   UNL     1      -2.204  -8.528   0.187  0.00  0.00    +0.324 C 
ENDROOT
BRANCH   1   3
ATOM      2  N   UNL     1      -1.079  -6.335  -0.022  0.00  0.00    -0.283 N 
ATOM      3  C   UNL     1      -2.232  -7.025   0.082  0.00  0.00    +0.255 C 
ATOM      4  O   UNL     1      -3.293  -6.436   0.091  0.00  0.00    -0.272 OA
ATOM      5  H   UNL     1      -0.237  -6.808  -0.106  0.00  0.00    +0.155 HD
BRANCH   2   9
ATOM      6  C   UNL     1      -1.133  -2.170   0.021  0.00  0.00    +0.037 A 
ATOM      7  C   UNL     1      -2.064  -2.890   0.774  0.00  0.00    +0.015 A 
ATOM      8  C   UNL     1      -2.044  -4.266   0.757  0.00  0.00    +0.024 A 
ATOM      9  C   UNL     1      -1.098  -4.940  -0.008  0.00  0.00    +0.034 A 
ATOM     10  C   UNL     1      -0.169  -4.226  -0.758  0.00  0.00    +0.024 A 
ATOM     11  C   UNL     1      -0.188  -2.850  -0.751  0.00  0.00    +0.015 A 
BRANCH   6  14
ATOM     12  C   UNL     1      -2.084   1.425   0.796  0.00  0.00    +0.128 C 
ATOM     13  N   UNL     1      -2.065  -0.039   0.781  0.00  0.00    -0.314 N 
ATOM     14  C   UNL     1      -1.153  -0.694   0.036  0.00  0.00    +0.244 C 
ATOM     15  O   UNL     1      -0.345  -0.069  -0.623  0.00  0.00    -0.270 OA
ATOM     16  H   UNL     1      -2.709  -0.538   1.308  0.00  0.00    +0.149 HD
ENDBRANCH   6  14
ENDBRANCH   2   9
ENDBRANCH   1   3
BRANCH   1  17
ATOM     17  O   UNL     1      -3.541  -9.024   0.285  0.00  0.00    -0.483 OA
BRANCH  17  18
ATOM     18  C   UNL     1      -3.693 -10.371   0.387  0.00  0.00    +0.120 C 
ATOM     19  C   UNL     1      -2.590 -11.145   0.395  0.00  0.00    +0.047 C 
ATOM     20  C   UNL     1      -2.737 -12.613   0.598  0.00  0.00    +0.137 C 
ATOM     21  C   UNL     1      -4.117 -13.051   0.157  0.00  0.00    -0.012 C 
ATOM     22  C   UNL     1      -3.920 -14.246  -0.492  0.00  0.00    +0.003 A 
ATOM     23  C   UNL     1      -4.827 -15.201  -1.005  0.00  0.00    +0.010 A 
ATOM     24  C   UNL     1      -4.288 -16.292  -1.625  0.00  0.00    +0.001 A 
ATOM     25  C   UNL     1      -2.917 -16.493  -1.764  0.00  0.00    +0.002 A 
ATOM     26  C   UNL     1      -1.978 -15.626  -1.291  0.00  0.00    +0.026 A 
ATOM     27  C   UNL     1      -2.454 -14.465  -0.624  0.00  0.00    +0.044 A 
ATOM     28  N   UNL     1      -1.794 -13.489  -0.066  0.00  0.00    -0.374 N 
ATOM     29  C   UNL     1      -5.238 -12.233   0.273  0.00  0.00    +0.010 C 
ATOM     30  C   UNL     1      -5.002 -10.898   0.487  0.00  0.00    +0.046 C 
ATOM     31  H   UNL     1      -0.831 -13.374  -0.091  0.00  0.00    +0.161 HD
ENDBRANCH  17  18
ENDBRANCH   1  17
TORSDOF 5
