REMARK  Name = ZINC63121455
REMARK  7 active torsions:
REMARK  status: ('A' for Active; 'I' for Inactive)
REMARK    1  A    between atoms: C_7  and  C_10
REMARK    2  A    between atoms: C_10  and  C_11
REMARK    3  A    between atoms: N_13  and  N_14
REMARK    4  A    between atoms: C_15  and  C_16
REMARK    5  A    between atoms: C_21  and  O_22
REMARK    6  A    between atoms: O_22  and  C_23
REMARK    7  A    between atoms: C_23  and  C_24
REMARK                            x       y       z     vdW  Elec       q    Type
REMARK                         _______ _______ _______ _____ _____    ______ ____
ROOT
ATOM      1  N   UNL     1      -0.567  -5.122  -3.001  0.00  0.00    -0.188 NA
ATOM      2  C   UNL     1      -1.350  -6.130  -3.236  0.00  0.00    +0.142 C 
ENDROOT
BRANCH   2   3
ATOM      3  C   UNL     1      -1.576  -6.580  -4.621  0.00  0.00    +0.037 A 
ATOM      4  C   UNL     1      -2.422  -7.661  -4.879  0.00  0.00    +0.028 A 
ATOM      5  C   UNL     1      -2.629  -8.078  -6.178  0.00  0.00    +0.019 A 
ATOM      6  C   UNL     1      -2.000  -7.428  -7.228  0.00  0.00    +0.019 A 
ATOM      7  C   UNL     1      -1.160  -6.358  -6.985  0.00  0.00    +0.047 A 
ATOM      8  C   UNL     1      -0.947  -5.923  -5.687  0.00  0.00    +0.130 A 
ATOM      9 BR   UNL     1      -3.775  -9.541  -6.526  0.00  0.00    -0.050 Br
BRANCH   8  10
ATOM     10  O   UNL     1      -0.126  -4.868  -5.448  0.00  0.00    -0.487 OA
BRANCH  10  11
ATOM     11  C   UNL     1       0.481  -4.247  -6.584  0.00  0.00    +0.264 C 
BRANCH  11  12
ATOM     12  C   UNL     1       1.350  -3.104  -6.127  0.00  0.00    -0.010 A 
ATOM     13  C   UNL     1       0.815  -1.836  -6.003  0.00  0.00    +0.010 A 
ATOM     14  C   UNL     1       1.611  -0.787  -5.584  0.00  0.00    +0.039 A 
ATOM     15  C   UNL     1       2.946  -1.007  -5.289  0.00  0.00    +0.123 A 
ATOM     16  C   UNL     1       3.481  -2.278  -5.413  0.00  0.00    +0.039 A 
ATOM     17  C   UNL     1       2.682  -3.327  -5.828  0.00  0.00    +0.010 A 
ATOM     18  F   UNL     1       3.726   0.017  -4.879  0.00  0.00    -0.205 F 
ENDBRANCH  11  12
ENDBRANCH  10  11
ENDBRANCH   8  10
ENDBRANCH   2   3
BRANCH   1  21
ATOM     19  C   UNL     1       0.460  -3.646  -1.440  0.00  0.00    +0.236 C 
ATOM     20  O   UNL     1       1.006  -3.075  -2.360  0.00  0.00    -0.274 OA
ATOM     21  N   UNL     1      -0.353  -4.693  -1.684  0.00  0.00    -0.207 N 
ATOM     22  H   UNL     1      -0.790  -5.150  -0.948  0.00  0.00    +0.177 HD
BRANCH  19  23
ATOM     23  C   UNL     1       0.691  -3.186  -0.024  0.00  0.00    +0.130 C 
BRANCH  23  30
ATOM     24  C   UNL     1      -0.016   1.348   0.009  0.00  0.00    +0.001 A 
ATOM     25  C   UNL     1       1.166   2.101   0.002  0.00  0.00    +0.002 A 
ATOM     26  C   UNL     1       2.391   1.535  -0.013  0.00  0.00    +0.026 A 
ATOM     27  C   UNL     1       2.529   0.120  -0.022  0.00  0.00    +0.043 A 
ATOM     28  N   UNL     1       3.587  -0.654  -0.037  0.00  0.00    -0.380 N 
ATOM     29  C   UNL     1       3.143  -2.053  -0.041  0.00  0.00    +0.145 C 
ATOM     30  C   UNL     1       1.631  -2.008  -0.025  0.00  0.00    -0.033 C 
ATOM     31  C   UNL     1       1.295  -0.698  -0.014  0.00  0.00    -0.001 A 
ATOM     32  C   UNL     1       0.002  -0.004   0.002  0.00  0.00    +0.010 A 
ATOM     33  H   UNL     1       4.509  -0.353  -0.045  0.00  0.00    +0.160 HD
ENDBRANCH  23  30
ENDBRANCH  19  23
ENDBRANCH   1  21
TORSDOF 7
