REMARK  Name = ZINC49532023
REMARK  5 active torsions:
REMARK  status: ('A' for Active; 'I' for Inactive)
REMARK    1  A    between atoms: C_1  and  C_2
REMARK    2  A    between atoms: C_2  and  C_4
REMARK    3  A    between atoms: C_2  and  N_11
REMARK    4  A    between atoms: C_12  and  C_16
REMARK    5  A    between atoms: C_19  and  N_22
REMARK                            x       y       z     vdW  Elec       q    Type
REMARK                         _______ _______ _______ _____ _____    ______ ____
ROOT
ATOM      1  N   UNL     1      -1.311  -0.904   0.168  0.00  0.00    -0.218 N 
ATOM      2  C   UNL     1      -1.995  -1.223  -0.960  0.00  0.00    +0.182 A 
ATOM      3  N   UNL     1      -3.276  -1.087  -0.685  0.00  0.00    -0.108 NA
ATOM      4  N   UNL     1      -3.437  -0.708   0.531  0.00  0.00    -0.023 NA
ATOM      5  N   UNL     1      -2.296  -0.580   1.117  0.00  0.00    -0.043 NA
ENDROOT
BRANCH   2   6
ATOM      6  C   UNL     1      -1.413  -1.643  -2.253  0.00  0.00    +0.021 A 
ATOM      7  C   UNL     1      -0.175  -1.140  -2.658  0.00  0.00    +0.013 A 
ATOM      8  C   UNL     1       0.366  -1.534  -3.862  0.00  0.00    +0.023 A 
ATOM      9  C   UNL     1      -0.320  -2.430  -4.675  0.00  0.00    +0.025 A 
ATOM     10  C   UNL     1      -1.554  -2.932  -4.274  0.00  0.00    +0.023 A 
ATOM     11  C   UNL     1      -2.097  -2.546  -3.067  0.00  0.00    +0.013 A 
BRANCH   9  12
ATOM     12  N   UNL     1       0.229  -2.826  -5.893  0.00  0.00    -0.358 N 
ATOM     13  H   UNL     1       1.089  -2.477  -6.174  0.00  0.00    +0.142 HD
ATOM     14  H   UNL     1      -0.249  -3.451  -6.460  0.00  0.00    +0.142 HD
ENDBRANCH   9  12
ENDBRANCH   2   6
BRANCH   1  16
ATOM     15  C   UNL     1       0.627   0.529   0.577  0.00  0.00    +0.038 C 
ATOM     16  C   UNL     1       0.141  -0.905   0.357  0.00  0.00    +0.141 C 
BRANCH  16  17
ATOM     17  C   UNL     1       0.490  -1.743   1.560  0.00  0.00    +0.012 A 
ATOM     18  C   UNL     1      -0.013  -1.412   2.804  0.00  0.00    +0.008 A 
ATOM     19  C   UNL     1       0.307  -2.180   3.907  0.00  0.00    +0.001 A 
ATOM     20  C   UNL     1       1.131  -3.282   3.768  0.00  0.00    +0.003 A 
ATOM     21  C   UNL     1       1.636  -3.615   2.525  0.00  0.00    +0.039 A 
ATOM     22  C   UNL     1       1.311  -2.849   1.418  0.00  0.00    +0.129 A 
ATOM     23  F   UNL     1       1.800  -3.177   0.202  0.00  0.00    -0.205 F 
ENDBRANCH  16  17
ENDBRANCH   1  16
TORSDOF 4
