REMARK  Name = ZINC05242517
REMARK  4 active torsions:
REMARK  status: ('A' for Active; 'I' for Inactive)
REMARK    1  A    between atoms: C_3  and  O_23
REMARK    2  A    between atoms: C_6  and  C_7
REMARK    3  A    between atoms: C_9  and  C_19
REMARK    4  A    between atoms: C_14  and  C_17
REMARK                            x       y       z     vdW  Elec       q    Type
REMARK                         _______ _______ _______ _____ _____    ______ ____
ROOT
ATOM      1  C   UNK     1       1.116   1.921   0.002  0.00  0.00    +0.094 A 
ATOM      2  C   UNK     1      -0.013   1.076   0.008  0.00  0.00    +0.062 A 
ATOM      3  C   UNK     1      -1.115   1.855   0.017  0.00  0.00    +0.150 A 
ATOM      4  N   UNK     1      -0.708   3.153   0.026  0.00  0.00    -0.203 N 
ATOM      5  N   UNK     1       0.693   3.167   0.013  0.00  0.00    -0.164 NA
ATOM      6  C   UNK     1      -1.538   4.271   0.040  0.00  0.00    +0.195 A 
ATOM      7  N   UNK     1      -1.212   5.547   0.049  0.00  0.00    -0.214 NA
ATOM      8  C   UNK     1      -2.168   6.476   0.058  0.00  0.00    +0.161 A 
ATOM      9  C   UNK     1      -3.481   6.078   0.068  0.00  0.00    +0.084 A 
ATOM     10  S   UNK     1      -3.321   4.349   0.057  0.00  0.00    -0.055 S 
ENDROOT
BRANCH   1  16
ATOM     11  C   UNK     1       2.843   0.123  -0.018  0.00  0.00    +0.013 A 
ATOM     12  C   UNK     1       4.161  -0.283  -0.036  0.00  0.00    +0.046 A 
ATOM     13  C   UNK     1       5.179   0.661  -0.042  0.00  0.00    +0.117 A 
ATOM     14  C   UNK     1       4.873   2.016  -0.032  0.00  0.00    +0.046 A 
ATOM     15  C   UNK     1       3.557   2.427  -0.018  0.00  0.00    +0.013 A 
ATOM     16  C   UNK     1       2.533   1.482  -0.014  0.00  0.00    +0.002 A 
BRANCH  13  17
ATOM     17  O   UNK     1       6.476   0.259  -0.055  0.00  0.00    -0.507 OA
ATOM     18  H   UNK     1       6.860   0.139   0.824  0.00  0.00    +0.292 HD
ENDBRANCH  13  17
ENDBRANCH   1  16
BRANCH   3  19
ATOM     19  C   UNK     1      -2.543   1.373   0.020  0.00  0.00    +0.434 C 
ATOM     20  F   UNK     1      -2.564  -0.021   0.128  0.00  0.00    -0.164 F 
ATOM     21  F   UNK     1      -3.222   1.936   1.106  0.00  0.00    -0.164 F 
ATOM     22  F   UNK     1      -3.168   1.758  -1.171  0.00  0.00    -0.164 F 
ENDBRANCH   3  19
BRANCH   8  23
ATOM     23  C   UNK     1      -1.821   7.905   0.062  0.00  0.00    +0.405 C 
ATOM     24  O   UNK     1      -2.700   8.745   0.076  0.00  0.00    -0.239 OA
ATOM     25  O   UNK     1      -0.527   8.285   0.052  0.00  0.00    -0.239 OA
ENDBRANCH   8  23
TORSDOF 4
