REMARK  Name = ZINC13571067
REMARK  5 active torsions:
REMARK  status: ('A' for Active; 'I' for Inactive)
REMARK    1  A    between atoms: C_1  and  C_2
REMARK    2  A    between atoms: C_2  and  C_28
REMARK    3  A    between atoms: C_6  and  C_17
REMARK    4  A    between atoms: C_11  and  O_16
REMARK    5  A    between atoms: C_12  and  O_15
REMARK                            x       y       z     vdW  Elec       q    Type
REMARK                         _______ _______ _______ _____ _____    ______ ____
ROOT
ATOM      1  C   UNL     1      -0.019   1.526   0.010  0.00  0.00    +0.031 C 
ATOM      2  C   UNL     1       0.002  -0.004   0.002  0.00  0.00    +0.034 C 
ATOM      3  C   UNL     1      -1.434  -0.544   0.056  0.00  0.00    +0.096 C 
ATOM      4  C   UNL     1      -1.383  -2.073   0.033  0.00  0.00    +0.187 C 
ATOM      5  C   UNL     1      -2.786  -2.629   0.309  0.00  0.00    +0.084 C 
ATOM      6  C   UNL     1      -2.695  -4.156   0.374  0.00  0.00    +0.061 C 
ATOM      7  C   UNL     1      -1.919  -4.670  -0.812  0.00  0.00    +0.006 A 
ATOM      8  C   UNL     1      -2.035  -6.008  -1.155  0.00  0.00    +0.011 A 
ATOM      9  C   UNL     1      -1.337  -6.518  -2.231  0.00  0.00    +0.050 A 
ATOM     10  C   UNL     1      -0.513  -5.690  -2.977  0.00  0.00    +0.162 A 
ATOM     11  C   UNL     1      -0.395  -4.349  -2.640  0.00  0.00    +0.201 A 
ATOM     12  C   UNL     1      -1.102  -3.836  -1.554  0.00  0.00    +0.172 A 
ATOM     13  O   UNL     1      -0.971  -2.515  -1.261  0.00  0.00    -0.463 OA
ATOM     14  N   UNL     1      -0.453  -2.568   1.043  0.00  0.00    -0.330 N 
ATOM     15  C   UNL     1       0.545  -1.805   1.561  0.00  0.00    +0.142 C 
ATOM     16  N   UNL     1       0.712  -0.499   1.191  0.00  0.00    -0.320 N 
ATOM     17  S   UNL     1       1.585  -2.473   2.668  0.00  0.00    -0.016 SA
ATOM     18  C   UNL     1       0.699  -0.506  -1.264  0.00  0.00    +0.031 C 
ATOM     19  H   UNL     1       1.288   0.089   1.703  0.00  0.00    +0.148 HD
ATOM     20  H   UNL     1      -0.551  -3.480   1.359  0.00  0.00    +0.165 HD
ENDROOT
BRANCH   6  21
ATOM     21  C   UNL     1      -4.084  -4.742   0.355  0.00  0.00    -0.004 A 
ATOM     22  C   UNL     1      -4.919  -4.506  -0.720  0.00  0.00    +0.007 A 
ATOM     23  C   UNL     1      -6.192  -5.043  -0.738  0.00  0.00    +0.000 A 
ATOM     24  C   UNL     1      -6.632  -5.817   0.321  0.00  0.00    +0.003 A 
ATOM     25  C   UNL     1      -5.799  -6.054   1.397  0.00  0.00    +0.038 A 
ATOM     26  C   UNL     1      -4.521  -5.521   1.413  0.00  0.00    +0.127 A 
ATOM     27  F   UNL     1      -3.703  -5.756   2.463  0.00  0.00    -0.205 F 
ENDBRANCH   6  21
BRANCH  11  28
ATOM     28  O   UNL     1       0.414  -3.534  -3.370  0.00  0.00    -0.501 OA
ATOM     29  H   UNL     1      -0.029  -3.104  -4.115  0.00  0.00    +0.292 HD
ENDBRANCH  11  28
BRANCH  10  30
ATOM     30  O   UNL     1       0.178  -6.191  -4.037  0.00  0.00    -0.503 OA
ATOM     31  H   UNL     1      -0.299  -6.142  -4.876  0.00  0.00    +0.292 HD
ENDBRANCH  10  30
TORSDOF 3
