REMARK  Name = ZINC22676146
REMARK  9 active torsions:
REMARK  status: ('A' for Active; 'I' for Inactive)
REMARK    1  A    between atoms: C_1  and  C_2
REMARK    2  A    between atoms: C_11  and  N_31
REMARK    3  A    between atoms: C_13  and  S_15
REMARK    4  A    between atoms: S_15  and  C_16
REMARK    5  A    between atoms: C_16  and  C_17
REMARK    6  A    between atoms: N_19  and  C_20
REMARK    7  A    between atoms: N_19  and  C_24
REMARK    8  A    between atoms: C_20  and  C_21
REMARK    9  A    between atoms: C_21  and  C_22
REMARK                            x       y       z     vdW  Elec       q    Type
REMARK                         _______ _______ _______ _____ _____    ______ ____
ROOT
ATOM      1  C   UNL     1      -2.076 -12.653  -2.086  0.00  0.00    +0.008 C 
ATOM      2  C   UNL     1      -1.910 -11.134  -2.000  0.00  0.00    -0.009 C 
ATOM      3  C   UNL     1      -0.809 -10.795  -0.991  0.00  0.00    +0.008 C 
ATOM      4  C   UNL     1      -0.804  -9.291  -0.715  0.00  0.00    +0.037 C 
ATOM      5  C   UNL     1      -0.731  -8.546  -2.046  0.00  0.00    -0.025 A 
ATOM      6  C   UNL     1      -1.053  -9.164  -3.199  0.00  0.00    -0.004 A 
ATOM      7  S   UNL     1      -0.824  -7.939  -4.460  0.00  0.00    -0.073 S 
ATOM      8  C   UNL     1      -0.295  -6.593  -3.432  0.00  0.00    +0.115 A 
ATOM      9  C   UNL     1      -0.313  -7.145  -2.136  0.00  0.00    +0.051 A 
ATOM     10  C   UNL     1       0.076  -6.264  -1.088  0.00  0.00    +0.129 A 
ATOM     11  N   UNL     1       0.427  -5.024  -1.384  0.00  0.00    -0.207 NA
ATOM     12  C   UNL     1       0.416  -4.566  -2.630  0.00  0.00    +0.191 A 
ATOM     13  N   UNL     1       0.062  -5.342  -3.646  0.00  0.00    -0.214 NA
ATOM     14  C   UNL     1      -1.506 -10.582  -3.374  0.00  0.00    +0.046 C 
ENDROOT
BRANCH  10  15
ATOM     15  N   UNL     1       0.095  -6.703   0.223  0.00  0.00    -0.343 N 
ATOM     16  H   UNL     1       0.397  -6.017   1.028  0.00  0.00    +0.144 HD
ATOM     17  H   UNL     1      -0.193  -7.738   0.461  0.00  0.00    +0.144 HD
ENDBRANCH  10  15
BRANCH  12  18
ATOM     18  S   UNL     1       0.889  -2.897  -2.941  0.00  0.00    -0.077 S 
BRANCH  18  19
ATOM     19  C   UNL     1       1.251  -2.353  -1.253  0.00  0.00    +0.173 C 
BRANCH  19  20
ATOM     20  C   UNL     1       1.688  -0.911  -1.272  0.00  0.00    +0.230 C 
ATOM     21  O   UNL     1       1.750  -0.310  -2.324  0.00  0.00    -0.274 OA
ATOM     22  N   UNL     1       2.012  -0.289  -0.121  0.00  0.00    -0.267 N 
BRANCH  22  23
ATOM     23  C   UNL     1       2.418   1.051  -0.140  0.00  0.00    +0.072 A 
ATOM     24  C   UNL     1       1.478   2.065  -0.022  0.00  0.00    +0.026 A 
ATOM     25  C   UNL     1       1.882   3.386  -0.035  0.00  0.00    +0.002 A 
ATOM     26  C   UNL     1       3.222   3.700  -0.176  0.00  0.00    +0.003 A 
ATOM     27  C   UNL     1       4.162   2.694  -0.299  0.00  0.00    +0.040 A 
ATOM     28  C   UNL     1       3.765   1.369  -0.282  0.00  0.00    +0.145 A 
ATOM     29  F   UNL     1       4.683   0.386  -0.403  0.00  0.00    -0.204 F 
ENDBRANCH  22  23
BRANCH  22  30
ATOM     30  C   UNL     1       1.938  -1.015   1.149  0.00  0.00    +0.128 C 
BRANCH  30  31
ATOM     31  C   UNL     1       0.541  -0.849   1.750  0.00  0.00    +0.138 C 
BRANCH  31  32
ATOM     32  C   UNL     1       0.466  -1.578   3.027  0.00  0.00    +0.064 C 
ATOM     33  N   UNL     1       0.409  -2.141   4.012  0.00  0.00    -0.197 NA
ENDBRANCH  31  32
ENDBRANCH  30  31
ENDBRANCH  22  30
ENDBRANCH  19  20
ENDBRANCH  18  19
ENDBRANCH  12  18
TORSDOF 8
