REMARK  Name = ZINC39673768
REMARK  9 active torsions:
REMARK  status: ('A' for Active; 'I' for Inactive)
REMARK    1  A    between atoms: C_1  and  C_2
REMARK    2  A    between atoms: C_2  and  C_3
REMARK    3  A    between atoms: C_3  and  C_4
REMARK    4  A    between atoms: C_4  and  C_6
REMARK    5  A    between atoms: C_4  and  N_7
REMARK    6  A    between atoms: C_8  and  C_10
REMARK    7  A    between atoms: C_21  and  C_23
REMARK    8  A    between atoms: C_28  and  O_29
REMARK    9  A    between atoms: O_29  and  C_30
REMARK                            x       y       z     vdW  Elec       q    Type
REMARK                         _______ _______ _______ _____ _____    ______ ____
ROOT
ATOM      1  C   UNL     1       0.297  -4.229  -2.046  0.00  0.00    +0.100 C 
ATOM      2  C   UNL     1       1.297  -3.274  -2.737  0.00  0.00    +0.121 C 
ATOM      3  N   UNL     1       2.631  -3.827  -2.407  0.00  0.00    -0.296 N 
ATOM      4  C   UNL     1       2.454  -5.296  -2.496  0.00  0.00    +0.115 C 
ATOM      5  C   UNL     1       1.060  -5.556  -1.893  0.00  0.00    -0.004 C 
ATOM      6  C   UNL     1       1.184  -5.926  -0.418  0.00  0.00    -0.010 C 
ATOM      7  C   UNL     1       1.896  -7.277  -0.295  0.00  0.00    -0.082 C 
ATOM      8  N   UNL     1       1.131  -8.302  -1.015  0.00  0.00    +0.379 N 
ATOM      9  C   UNL     1       1.095  -7.986  -2.448  0.00  0.00    -0.082 C 
ATOM     10  C   UNL     1       0.350  -6.665  -2.662  0.00  0.00    -0.010 C 
ATOM     11  C   UNL     1       3.753  -3.148  -2.096  0.00  0.00    +0.252 C 
ATOM     12  O   UNL     1       4.801  -3.744  -1.940  0.00  0.00    -0.270 OA
ATOM     13  H   UNL     1       1.569  -9.202  -0.881  0.00  0.00    -0.086 HD
ATOM     14  H   UNL     1       0.189  -8.333  -0.654  0.00  0.00    -0.086 HD
ENDROOT
BRANCH  11  15
ATOM     15  C   UNL     1       3.709  -1.681  -1.944  0.00  0.00    +0.099 A 
ATOM     16  C   UNL     1       2.860  -0.907  -2.744  0.00  0.00    +0.020 A 
ATOM     17  C   UNL     1       2.856   0.464  -2.563  0.00  0.00    +0.021 A 
ATOM     18  C   UNL     1       3.681   1.027  -1.605  0.00  0.00    +0.114 A 
ATOM     19  N   UNL     1       4.473   0.279  -0.862  0.00  0.00    -0.220 NA
ATOM     20  C   UNL     1       4.512  -1.037  -0.991  0.00  0.00    +0.233 A 
BRANCH  20  21
ATOM     21  O   UNL     1       5.337  -1.766  -0.203  0.00  0.00    -0.437 OA
BRANCH  21  22
ATOM     22  C   UNL     1       6.171  -1.099   0.638  0.00  0.00    +0.130 A 
ATOM     23  C   UNL     1       5.681  -0.558   1.818  0.00  0.00    +0.048 A 
ATOM     24  C   UNL     1       6.530   0.119   2.672  0.00  0.00    +0.023 A 
ATOM     25  C   UNL     1       7.868   0.258   2.350  0.00  0.00    +0.041 A 
ATOM     26  C   UNL     1       8.359  -0.280   1.174  0.00  0.00    +0.023 A 
ATOM     27  C   UNL     1       7.515  -0.964   0.321  0.00  0.00    +0.048 A 
ATOM     28 CL   UNL     1       8.933   1.110   3.425  0.00  0.00    -0.084 Cl
ENDBRANCH  21  22
ENDBRANCH  20  21
ENDBRANCH  11  15
BRANCH   1  30
ATOM     29  N   UNL     1      -1.304  -3.982  -0.177  0.00  0.00    -0.312 N 
ATOM     30  C   UNL     1      -0.095  -3.690  -0.694  0.00  0.00    +0.218 C 
ATOM     31  O   UNL     1       0.679  -2.994  -0.072  0.00  0.00    -0.275 OA
ATOM     32  H   UNL     1      -1.923  -4.539  -0.675  0.00  0.00    +0.149 HD
BRANCH  29  33
ATOM     33  C   UNL     1      -1.685  -3.458   1.137  0.00  0.00    +0.070 C 
ATOM     34  C   UNL     1      -1.156  -4.389   2.230  0.00  0.00    +0.028 C 
BRANCH  33  35
ATOM     35  C   UNL     1      -3.210  -3.376   1.231  0.00  0.00    +0.022 C 
BRANCH  35  37
ATOM     36  C   UNL     1      -5.254  -2.269   0.314  0.00  0.00    +0.004 C 
ATOM     37  C   UNL     1      -3.729  -2.351   0.220  0.00  0.00    -0.002 C 
ENDBRANCH  35  37
ENDBRANCH  33  35
ENDBRANCH  29  33
ENDBRANCH   1  30
TORSDOF 7
