REMARK  Name = ZINC64175160
REMARK  8 active torsions:
REMARK  status: ('A' for Active; 'I' for Inactive)
REMARK    1  A    between atoms: C_1  and  C_2
REMARK    2  A    between atoms: C_4  and  C_13
REMARK    3  A    between atoms: C_10  and  C_12
REMARK    4  A    between atoms: C_13  and  O_15
REMARK    5  A    between atoms: O_15  and  C_16
REMARK    6  A    between atoms: C_16  and  C_17
REMARK    7  A    between atoms: C_17  and  C_19
REMARK    8  A    between atoms: C_27  and  C_29
REMARK                            x       y       z     vdW  Elec       q    Type
REMARK                         _______ _______ _______ _____ _____    ______ ____
ROOT
ATOM      1  O   UNL     1       0.010  -2.194  -3.645  0.00  0.00    -0.453 OA
ENDROOT
BRANCH   1   2
ATOM      2  C   UNL     1       0.023  -2.842  -2.465  0.00  0.00    +0.340 C 
ATOM      3  O   UNL     1       0.037  -4.056  -2.439  0.00  0.00    -0.245 OA
BRANCH   2   7
ATOM      4  C   UNL     1      -0.018   1.503   0.010  0.00  0.00    +0.066 C 
ATOM      5  C   UNL     1       0.002  -0.004   0.002  0.00  0.00    +0.043 A 
ATOM      6  C   UNL     1       0.005  -0.674  -1.205  0.00  0.00    +0.038 A 
ATOM      7  C   UNL     1       0.021  -2.075  -1.199  0.00  0.00    +0.071 A 
ATOM      8  C   UNL     1       0.034  -2.724   0.032  0.00  0.00    +0.050 A 
ATOM      9  C   UNL     1       0.037  -1.981   1.207  0.00  0.00    +0.245 A 
ATOM     10  N   UNL     1       0.022  -0.655   1.146  0.00  0.00    -0.216 NA
ATOM     11  O   UNL     1       0.072  -2.812   2.284  0.00  0.00    -0.386 OA
ATOM     12  N   UNL     1      -0.350  -4.153   1.849  0.00  0.00    -0.146 NA
ATOM     13  C   UNL     1       0.042  -4.187   0.417  0.00  0.00    +0.126 C 
ATOM     14  C   UNL     1       1.442  -4.782   0.253  0.00  0.00    +0.032 C 
ATOM     15  H   UNL     1       0.128  -4.871   2.372  0.00  0.00    +0.168 HD
ENDBRANCH   2   7
ENDBRANCH   1   2
BRANCH   1  16
ATOM     16  C   UNL     1       0.013  -2.998  -4.827  0.00  0.00    +0.311 C 
BRANCH  16  17
ATOM     17  C   UNL     1      -0.002  -2.106  -6.041  0.00  0.00    +0.199 C 
ATOM     18  O   UNL     1      -0.015  -0.899  -5.908  0.00  0.00    -0.289 OA
BRANCH  17  19
ATOM     19  C   UNL     1      -0.002  -2.673  -7.333  0.00  0.00    +0.029 C 
ATOM     20  C   UNL     1       0.005  -4.018  -7.656  0.00  0.00    +0.007 A 
ATOM     21  C   UNL     1       0.015  -5.196  -6.873  0.00  0.00    +0.010 A 
ATOM     22  C   UNL     1       0.021  -6.410  -7.468  0.00  0.00    +0.001 A 
ATOM     23  C   UNL     1       0.018  -6.566  -8.863  0.00  0.00    +0.002 A 
ATOM     24  C   UNL     1       0.009  -5.506  -9.700  0.00  0.00    +0.026 A 
ATOM     25  C   UNL     1       0.001  -4.147  -9.134  0.00  0.00    +0.043 A 
ATOM     26  N   UNL     1      -0.008  -2.971  -9.695  0.00  0.00    -0.377 N 
ATOM     27  C   UNL     1      -0.017  -1.938  -8.655  0.00  0.00    +0.111 C 
ATOM     28  C   UNL     1      -1.281  -1.084  -8.769  0.00  0.00    +0.035 C 
ATOM     29  H   UNL     1      -0.011  -2.806 -10.651  0.00  0.00    +0.160 HD
ENDBRANCH  17  19
ENDBRANCH  16  17
ENDBRANCH   1  16
TORSDOF 5
