REMARK  Name = ZINC36270376
REMARK  4 active torsions:
REMARK  status: ('A' for Active; 'I' for Inactive)
REMARK    1  A    between atoms: N_10  and  C_13
REMARK    2  A    between atoms: C_13  and  C_14
REMARK    3  A    between atoms: C_15  and  C_24
REMARK    4  A    between atoms: C_20  and  N_23
REMARK                            x       y       z     vdW  Elec       q    Type
REMARK                         _______ _______ _______ _____ _____    ______ ____
ROOT
ATOM      1  C   UNL     1       0.171  -6.626   1.361  0.00  0.00    +0.065 A 
ATOM      2  C   UNL     1      -1.040  -6.674   1.985  0.00  0.00    +0.096 A 
ATOM      3  N   UNL     1      -1.613  -7.854   1.702  0.00  0.00    -0.227 NA
ATOM      4  C   UNL     1      -0.802  -8.553   0.919  0.00  0.00    +0.139 A 
ATOM      5  N   UNL     1       0.321  -7.804   0.685  0.00  0.00    -0.300 N 
ATOM      6  C   UNL     1       1.327  -8.290  -0.104  0.00  0.00    +0.115 A 
ATOM      7  C   UNL     1       1.226  -9.518  -0.669  0.00  0.00    +0.041 A 
ATOM      8  C   UNL     1       0.080 -10.307  -0.448  0.00  0.00    +0.028 A 
ATOM      9  C   UNL     1      -0.920  -9.835   0.343  0.00  0.00    +0.048 A 
ENDROOT
BRANCH   2  10
ATOM     10  C   UNL     1      -1.625  -5.605   2.832  0.00  0.00    +0.020 A 
ATOM     11  C   UNL     1      -2.970  -5.248   2.697  0.00  0.00    +0.013 A 
ATOM     12  C   UNL     1      -3.467  -4.245   3.511  0.00  0.00    +0.020 A 
ATOM     13  C   UNL     1      -2.626  -3.634   4.422  0.00  0.00    +0.111 A 
ATOM     14  N   UNL     1      -1.361  -3.992   4.526  0.00  0.00    -0.263 NA
ATOM     15  C   UNL     1      -0.844  -4.945   3.778  0.00  0.00    +0.120 A 
ENDBRANCH   2  10
BRANCH   7  16
ATOM     16  N   UNL     1       2.264 -10.003  -1.476  0.00  0.00    -0.357 N 
ATOM     17  H   UNL     1       3.054  -9.460  -1.629  0.00  0.00    +0.142 HD
ATOM     18  H   UNL     1       2.193 -10.881  -1.881  0.00  0.00    +0.142 HD
ENDBRANCH   7  16
BRANCH   1  19
ATOM     19  C   UNL     1       1.155  -5.486   1.404  0.00  0.00    +0.140 C 
BRANCH  19  29
ATOM     20  C   UNL     1      -1.073   0.774  -2.263  0.00  0.00    +0.005 A 
ATOM     21  C   UNL     1       0.035   1.611  -2.259  0.00  0.00    +0.020 A 
ATOM     22  C   UNL     1       1.275   1.091  -1.948  0.00  0.00    +0.113 A 
ATOM     23  N   UNL     1       1.418  -0.188  -1.656  0.00  0.00    -0.240 NA
ATOM     24  C   UNL     1       0.387  -1.018  -1.649  0.00  0.00    +0.121 A 
ATOM     25  C   UNL     1      -0.892  -0.561  -1.953  0.00  0.00    +0.043 A 
ATOM     26  N   UNL     1       0.583  -2.358  -1.335  0.00  0.00    -0.313 N 
ATOM     27  C   UNL     1       1.938  -2.920  -1.236  0.00  0.00    +0.122 C 
ATOM     28  C   UNL     1       2.063  -3.659   0.100  0.00  0.00    +0.104 C 
ATOM     29  N   UNL     1       0.975  -4.638   0.218  0.00  0.00    -0.294 NA
ATOM     30  C   UNL     1      -0.337  -3.978   0.238  0.00  0.00    +0.104 C 
ATOM     31  C   UNL     1      -0.560  -3.251  -1.087  0.00  0.00    +0.122 C 
ENDBRANCH  19  29
ENDBRANCH   1  19
TORSDOF 4
