REMARK  Name = ZINC22874248
REMARK  7 active torsions:
REMARK  status: ('A' for Active; 'I' for Inactive)
REMARK    1  A    between atoms: C_1  and  C_2
REMARK    2  A    between atoms: C_2  and  N_3
REMARK    3  A    between atoms: N_6  and  C_9
REMARK    4  A    between atoms: C_9  and  N_10
REMARK    5  A    between atoms: N_13  and  C_26
REMARK    6  A    between atoms: C_14  and  C_16
REMARK    7  A    between atoms: C_26  and  C_27
REMARK                            x       y       z     vdW  Elec       q    Type
REMARK                         _______ _______ _______ _____ _____    ______ ____
ROOT
ATOM      1  N   UNL     1      -4.965  -4.020  -1.668  0.00  0.00    -0.226 N 
ATOM      2  C   UNL     1      -5.380  -4.664  -2.778  0.00  0.00    +0.180 A 
ATOM      3  S   UNL     1      -6.261  -3.976  -4.075  0.00  0.00    -0.011 S 
ATOM      4  N   UNL     1      -4.975  -5.946  -2.683  0.00  0.00    -0.300 N 
ATOM      5  C   UNL     1      -4.296  -6.099  -1.491  0.00  0.00    +0.165 A 
ATOM      6  N   UNL     1      -4.277  -4.949  -0.874  0.00  0.00    -0.149 NA
ENDROOT
BRANCH   5   7
ATOM      7  C   UNL     1      -3.688  -7.352  -0.998  0.00  0.00    +0.044 A 
ATOM      8  C   UNL     1      -3.608  -8.532  -1.666  0.00  0.00    +0.095 A 
ATOM      9  N   UNL     1      -2.979  -9.459  -0.889  0.00  0.00    -0.360 N 
ATOM     10  H   UNL     1      -2.805 -10.376  -1.151  0.00  0.00    +0.165 HD
ATOM     11  C   UNL     1      -2.625  -8.904   0.323  0.00  0.00    +0.047 A 
ATOM     12  C   UNL     1      -3.045  -7.563   0.309  0.00  0.00    +0.010 A 
ATOM     13  C   UNL     1      -2.811  -6.748   1.415  0.00  0.00    +0.011 A 
ATOM     14  C   UNL     1      -2.164  -7.262   2.517  0.00  0.00    +0.001 A 
ATOM     15  C   UNL     1      -1.745  -8.585   2.529  0.00  0.00    +0.002 A 
ATOM     16  C   UNL     1      -1.977  -9.405   1.447  0.00  0.00    +0.026 A 
ENDBRANCH   5   7
BRANCH   1  17
ATOM     17  C   UNL     1      -5.186  -2.607  -1.352  0.00  0.00    +0.232 C 
BRANCH  17  21
ATOM     18  N   UNL     1      -2.022   0.164  -0.925  0.00  0.00    +0.381 N 
ATOM     19  C   UNL     1      -2.896   0.288  -2.100  0.00  0.00    -0.063 C 
ATOM     20  C   UNL     1      -4.214  -0.442  -1.835  0.00  0.00    +0.067 C 
ATOM     21  N   UNL     1      -3.939  -1.858  -1.556  0.00  0.00    -0.287 NA
ATOM     22  C   UNL     1      -3.045  -1.998  -0.398  0.00  0.00    +0.067 C 
ATOM     23  C   UNL     1      -1.736  -1.255  -0.674  0.00  0.00    -0.063 C 
ATOM     24  H   UNL     1      -2.483   0.561  -0.120  0.00  0.00    -0.082 HD
BRANCH  18  26
ATOM     25  C   UNL     1      -1.048   2.377  -1.311  0.00  0.00    -0.017 C 
ATOM     26  C   UNL     1      -0.764   0.880  -1.173  0.00  0.00    -0.082 C 
ENDBRANCH  18  26
ENDBRANCH  17  21
ENDBRANCH   1  17
BRANCH   4  27
ATOM     27  C   UNL     1      -5.215  -6.997  -3.675  0.00  0.00    +0.157 C 
BRANCH  27  28
ATOM     28  C   UNL     1      -3.996  -7.123  -4.590  0.00  0.00    +0.138 C 
ATOM     29  C   UNL     1      -4.243  -8.207  -5.670  0.00  0.00    +0.035 C 
ATOM     30  C   UNL     1      -3.275  -7.735  -6.789  0.00  0.00    +0.031 C 
ATOM     31  C   UNL     1      -3.334  -6.199  -6.647  0.00  0.00    +0.160 C 
ATOM     32  O   UNL     1      -3.792  -5.903  -5.321  0.00  0.00    -0.375 OA
ENDBRANCH  27  28
ENDBRANCH   4  27
TORSDOF 6
