REMARK  Name = ZINC13132969
REMARK  3 active torsions:
REMARK  status: ('A' for Active; 'I' for Inactive)
REMARK    1  A    between atoms: C_8  and  C_12
REMARK    2  A    between atoms: C_12  and  C_13
REMARK    3  A    between atoms: C_12  and  C_19
REMARK                            x       y       z     vdW  Elec       q    Type
REMARK                         _______ _______ _______ _____ _____    ______ ____
ROOT
ATOM      1  C   UNL     1       2.628  -4.245  -0.046  0.00  0.00    +0.119 C 
ENDROOT
BRANCH   1   9
ATOM      2  C   UNL     1       3.080   1.859  -1.093  0.00  0.00    +0.001 A 
ATOM      3  C   UNL     1       4.439   1.855  -1.371  0.00  0.00    +0.004 A 
ATOM      4  C   UNL     1       5.161   0.681  -1.336  0.00  0.00    +0.047 A 
ATOM      5  C   UNL     1       4.527  -0.513  -1.019  0.00  0.00    +0.143 A 
ATOM      6  C   UNL     1       3.151  -0.511  -0.737  0.00  0.00    +0.065 A 
ATOM      7  C   UNL     1       2.432   0.686  -0.777  0.00  0.00    +0.015 A 
ATOM      8  C   UNL     1       2.491  -1.782  -0.403  0.00  0.00    +0.201 A 
ATOM      9  C   UNL     1       3.255  -2.917  -0.383  0.00  0.00    +0.098 A 
ATOM     10  C   UNL     1       4.625  -2.838  -0.676  0.00  0.00    +0.345 A 
ATOM     11  O   UNL     1       5.295  -3.856  -0.654  0.00  0.00    -0.245 OA
ATOM     12  O   UNL     1       5.218  -1.673  -0.980  0.00  0.00    -0.422 OA
ATOM     13  O   UNL     1       1.169  -1.828  -0.124  0.00  0.00    -0.287 OA
ENDBRANCH   1   9
BRANCH   1  14
ATOM     14  C   UNL     1       3.398  -4.894   1.076  0.00  0.00    +0.098 A 
ATOM     15  C   UNL     1       3.460  -6.257   1.167  0.00  0.00    +0.201 A 
ATOM     16  C   UNL     1       4.224  -6.840   2.281  0.00  0.00    +0.065 A 
ATOM     17  C   UNL     1       4.330  -8.224   2.435  0.00  0.00    +0.015 A 
ATOM     18  C   UNL     1       5.053  -8.739   3.488  0.00  0.00    +0.001 A 
ATOM     19  C   UNL     1       5.674  -7.889   4.392  0.00  0.00    +0.004 A 
ATOM     20  C   UNL     1       5.578  -6.521   4.252  0.00  0.00    +0.047 A 
ATOM     21  C   UNL     1       4.853  -5.981   3.196  0.00  0.00    +0.143 A 
ATOM     22  O   UNL     1       4.750  -4.644   3.043  0.00  0.00    -0.422 OA
ATOM     23  C   UNL     1       4.059  -4.102   2.027  0.00  0.00    +0.345 A 
ATOM     24  O   UNL     1       4.000  -2.888   1.931  0.00  0.00    -0.245 OA
ATOM     25  O   UNL     1       2.837  -7.045   0.262  0.00  0.00    -0.287 OA
ENDBRANCH   1  14
BRANCH   1  26
ATOM     26  C   UNL     1       2.661  -5.138  -1.260  0.00  0.00    +0.054 A 
ATOM     27  C   UNL     1       3.813  -5.839  -1.561  0.00  0.00    +0.024 A 
ATOM     28  C   UNL     1       3.833  -6.657  -2.680  0.00  0.00    +0.003 A 
ATOM     29  C   UNL     1       2.687  -6.740  -3.457  0.00  0.00    +0.020 A 
ATOM     30  C   UNL     1       1.572  -6.010  -3.093  0.00  0.00    +0.111 A 
ATOM     31  N   UNL     1       1.588  -5.245  -2.018  0.00  0.00    -0.259 NA
ENDBRANCH   1  26
TORSDOF 3
