REMARK  Name = ZINC40011311
REMARK  8 active torsions:
REMARK  status: ('A' for Active; 'I' for Inactive)
REMARK    1  A    between atoms: C_1  and  C_2
REMARK    2  A    between atoms: C_14  and  S_16
REMARK    3  A    between atoms: S_16  and  C_17
REMARK    4  A    between atoms: C_17  and  C_18
REMARK    5  A    between atoms: N_20  and  C_21
REMARK    6  A    between atoms: C_21  and  C_22
REMARK    7  A    between atoms: C_26  and  O_28
REMARK    8  A    between atoms: O_28  and  C_29
REMARK                            x       y       z     vdW  Elec       q    Type
REMARK                         _______ _______ _______ _____ _____    ______ ____
ROOT
ATOM      1  C   UNL     1      -0.018   1.503   0.010  0.00  0.00    +0.044 C 
ATOM      2  C   UNL     1       0.002  -0.004   0.002  0.00  0.00    -0.050 A 
ATOM      3  C   UNL     1       0.005  -0.672  -1.230  0.00  0.00    +0.005 A 
ATOM      4  C   UNL     1       0.017  -2.022  -1.308  0.00  0.00    +0.026 A 
ATOM      5  C   UNL     1       0.028  -2.812  -0.071  0.00  0.00    +0.046 A 
ATOM      6  N   UNL     1       0.072  -4.106   0.139  0.00  0.00    -0.358 N 
ATOM      7  C   UNL     1      -0.066  -4.355   1.565  0.00  0.00    +0.252 C 
ATOM      8  C   UNL     1       0.065  -2.998   2.235  0.00  0.00    +0.117 C 
ATOM      9  C   UNL     1       0.036  -2.075   1.218  0.00  0.00    +0.025 A 
ATOM     10  C   UNL     1       0.022  -0.662   1.184  0.00  0.00    +0.015 A 
ATOM     11  N   UNL     1       0.302  -2.882   3.544  0.00  0.00    -0.147 NA
ATOM     12  N   UNL     1       0.931  -3.879   4.089  0.00  0.00    -0.122 NA
ATOM     13  C   UNL     1       1.375  -4.934   3.363  0.00  0.00    +0.208 C 
ATOM     14  N   UNL     1       0.972  -5.206   2.143  0.00  0.00    -0.227 NA
ATOM     15  H   UNL     1       0.179  -4.786  -0.544  0.00  0.00    +0.162 HD
ENDROOT
BRANCH  13  16
ATOM     16  S   UNL     1       2.560  -6.009   4.102  0.00  0.00    -0.075 S 
BRANCH  16  17
ATOM     17  C   UNL     1       2.877  -7.257   2.824  0.00  0.00    +0.173 C 
BRANCH  17  18
ATOM     18  C   UNL     1       3.887  -8.252   3.334  0.00  0.00    +0.224 C 
ATOM     19  O   UNL     1       4.348  -8.131   4.449  0.00  0.00    -0.275 OA
ATOM     20  N   UNL     1       4.279  -9.277   2.551  0.00  0.00    -0.311 N 
ATOM     21  H   UNL     1       3.910  -9.373   1.659  0.00  0.00    +0.149 HD
BRANCH  20  22
ATOM     22  C   UNL     1       5.261 -10.244   3.046  0.00  0.00    +0.139 C 
BRANCH  22  23
ATOM     23  C   UNL     1       5.524 -11.281   1.985  0.00  0.00    -0.027 A 
ATOM     24  C   UNL     1       4.755 -12.429   1.935  0.00  0.00    +0.005 A 
ATOM     25  C   UNL     1       4.994 -13.382   0.962  0.00  0.00    +0.004 A 
ATOM     26  C   UNL     1       6.003 -13.190   0.038  0.00  0.00    +0.045 A 
ATOM     27  C   UNL     1       6.777 -12.040   0.087  0.00  0.00    +0.120 A 
ATOM     28  C   UNL     1       6.530 -11.082   1.060  0.00  0.00    +0.050 A 
BRANCH  27  29
ATOM     29  O   UNL     1       7.770 -11.848  -0.821  0.00  0.00    -0.495 OA
ATOM     30  C   UNL     1       7.962 -12.874  -1.797  0.00  0.00    +0.277 C 
ENDBRANCH  27  29
ENDBRANCH  22  23
ENDBRANCH  20  22
ENDBRANCH  17  18
ENDBRANCH  16  17
ENDBRANCH  13  16
TORSDOF 6
