REMARK  Name = ZINC35023523
REMARK  9 active torsions:
REMARK  status: ('A' for Active; 'I' for Inactive)
REMARK    1  A    between atoms: C_1  and  C_2
REMARK    2  A    between atoms: C_5  and  C_8
REMARK    3  A    between atoms: C_8  and  O_32
REMARK    4  A    between atoms: C_9  and  C_26
REMARK    5  A    between atoms: C_11  and  C_17
REMARK    6  A    between atoms: C_20  and  C_23
REMARK    7  A    between atoms: C_23  and  C_24
REMARK    8  A    between atoms: C_23  and  C_25
REMARK    9  A    between atoms: C_26  and  C_28
REMARK                            x       y       z     vdW  Elec       q    Type
REMARK                         _______ _______ _______ _____ _____    ______ ____
ROOT
ATOM      1  C   UNL     1      -0.662  -3.096   1.795  0.00  0.00    +0.172 C 
ATOM      2  C   UNL     1       0.668  -3.854   1.857  0.00  0.00    +0.144 C 
ATOM      3  C   UNL     1       1.265  -3.908   0.447  0.00  0.00    +0.120 C 
ATOM      4  N   UNL     1       0.289  -4.504  -0.466  0.00  0.00    -0.292 N 
ATOM      5  C   UNL     1      -1.030  -4.388  -0.250  0.00  0.00    +0.302 C 
ATOM      6  O   UNL     1      -1.799  -4.893  -1.045  0.00  0.00    -0.253 OA
ATOM      7  N   UNL     1      -1.534  -3.737   0.809  0.00  0.00    -0.267 N 
ATOM      8  H   UNL     1       0.601  -4.993  -1.243  0.00  0.00    +0.151 HD
ATOM      9  H   UNL     1      -2.496  -3.689   0.924  0.00  0.00    +0.153 HD
ENDROOT
BRANCH   1  14
ATOM     10  C   UNL     1       0.306   2.386   0.246  0.00  0.00    +0.044 C 
ATOM     11  C   UNL     1       0.054   0.956   0.650  0.00  0.00    -0.050 A 
ATOM     12  C   UNL     1      -0.539   0.080  -0.241  0.00  0.00    +0.004 A 
ATOM     13  C   UNL     1      -0.770  -1.231   0.130  0.00  0.00    +0.008 A 
ATOM     14  C   UNL     1      -0.409  -1.667   1.391  0.00  0.00    +0.003 A 
ATOM     15  C   UNL     1       0.185  -0.792   2.281  0.00  0.00    +0.008 A 
ATOM     16  C   UNL     1       0.420   0.519   1.909  0.00  0.00    +0.004 A 
ENDBRANCH   1  14
BRANCH   3  17
ATOM     17  C   UNL     1       1.599  -2.512  -0.012  0.00  0.00    -0.026 A 
ATOM     18  C   UNL     1       2.243  -1.638   0.844  0.00  0.00    +0.006 A 
ATOM     19  C   UNL     1       2.549  -0.358   0.423  0.00  0.00    +0.004 A 
ATOM     20  C   UNL     1       2.212   0.049  -0.854  0.00  0.00    -0.045 A 
ATOM     21  C   UNL     1       1.568  -0.825  -1.710  0.00  0.00    +0.004 A 
ATOM     22  C   UNL     1       1.266  -2.107  -1.291  0.00  0.00    +0.006 A 
BRANCH  20  23
ATOM     23  C   UNL     1       2.544   1.446  -1.313  0.00  0.00    +0.013 C 
ATOM     24  C   UNL     1       3.825   1.416  -2.149  0.00  0.00    +0.012 C 
ATOM     25  C   UNL     1       1.394   1.991  -2.161  0.00  0.00    +0.012 C 
ENDBRANCH  20  23
ENDBRANCH   3  17
BRANCH   2  26
ATOM     26  C   UNL     1       0.430  -5.254   2.364  0.00  0.00    +0.245 C 
ATOM     27  O   UNL     1      -0.622  -5.804   2.145  0.00  0.00    -0.287 OA
BRANCH  26  28
ATOM     28  C   UNL     1       1.506  -5.966   3.142  0.00  0.00    +0.451 C 
ATOM     29  F   UNL     1       1.055  -7.241   3.502  0.00  0.00    -0.163 F 
ATOM     30  F   UNL     1       2.654  -6.084   2.352  0.00  0.00    -0.163 F 
ATOM     31  F   UNL     1       1.807  -5.236   4.297  0.00  0.00    -0.163 F 
ENDBRANCH  26  28
ENDBRANCH   2  26
BRANCH   1  32
ATOM     32  O   UNL     1      -1.290  -3.126   3.079  0.00  0.00    -0.367 OA
ATOM     33  H   UNL     1      -2.140  -2.666   3.111  0.00  0.00    +0.212 HD
ENDBRANCH   1  32
TORSDOF 6
