REMARK  Name = ZINC63384966
REMARK  3 active torsions:
REMARK  status: ('A' for Active; 'I' for Inactive)
REMARK    1  A    between atoms: C_1  and  C_2
REMARK    2  A    between atoms: C_2  and  C_3
REMARK    3  A    between atoms: C_2  and  C_4
REMARK                            x       y       z     vdW  Elec       q    Type
REMARK                         _______ _______ _______ _____ _____    ______ ____
ROOT
ATOM      1  C   UNL     1       0.597  -0.491  -1.294  0.00  0.00    +0.219 C 
ATOM      2  O   UNL     1      -0.080  -1.134  -2.068  0.00  0.00    -0.275 OA
ATOM      3  N   UNL     1       1.888  -0.232  -1.583  0.00  0.00    -0.281 N 
ATOM      4  C   UNL     1       2.736   0.423  -0.581  0.00  0.00    +0.113 C 
ATOM      5  C   UNL     1       3.339   1.708  -1.179  0.00  0.00    +0.052 C 
ATOM      6  C   UNL     1       3.850   1.349  -2.552  0.00  0.00    -0.034 C 
ATOM      7  C   UNL     1       5.036   1.521  -3.123  0.00  0.00    -0.001 A 
ATOM      8  C   UNL     1       6.248   2.224  -2.671  0.00  0.00    +0.010 A 
ATOM      9  C   UNL     1       7.313   2.183  -3.514  0.00  0.00    +0.001 A 
ATOM     10  C   UNL     1       7.295   1.522  -4.746  0.00  0.00    +0.002 A 
ATOM     11  C   UNL     1       6.221   0.860  -5.245  0.00  0.00    +0.026 A 
ATOM     12  C   UNL     1       5.036   0.839  -4.453  0.00  0.00    +0.043 A 
ATOM     13  N   UNL     1       3.873   0.309  -4.692  0.00  0.00    -0.375 N 
ATOM     14  C   UNL     1       2.979   0.637  -3.582  0.00  0.00    +0.143 C 
ATOM     15  C   UNL     1       2.426  -0.613  -2.891  0.00  0.00    +0.165 C 
ATOM     16  C   UNL     1       3.471  -1.674  -2.760  0.00  0.00    +0.009 A 
ATOM     17  C   UNL     1       4.686  -1.688  -2.109  0.00  0.00    +0.023 A 
ATOM     18  C   UNL     1       5.431  -2.860  -2.188  0.00  0.00    +0.018 A 
ATOM     19  C   UNL     1       4.972  -3.958  -2.887  0.00  0.00    +0.017 A 
ATOM     20  C   UNL     1       3.751  -3.951  -3.544  0.00  0.00    +0.025 A 
ATOM     21  C   UNL     1       2.994  -2.781  -3.473  0.00  0.00    +0.039 A 
ATOM     22  N   UNL     1       1.756  -2.501  -4.026  0.00  0.00    -0.283 N 
ATOM     23  C   UNL     1       1.344  -1.248  -3.735  0.00  0.00    +0.248 C 
ATOM     24  O   UNL     1       0.305  -0.731  -4.085  0.00  0.00    -0.273 OA
ATOM     25 BR   UNL     1       7.108  -2.951  -1.319  0.00  0.00    -0.050 Br
ATOM     26  H   UNL     1       1.246  -3.129  -4.560  0.00  0.00    +0.155 HD
ATOM     27  H   UNL     1       3.639  -0.215  -5.474  0.00  0.00    +0.160 HD
ENDROOT
BRANCH   1  29
ATOM     28  C   UNL     1      -0.377   1.493  -0.169  0.00  0.00    +0.017 C 
ATOM     29  C   UNL     1      -0.005   0.017  -0.009  0.00  0.00    +0.069 C 
ATOM     30  C   UNL     1      -1.260  -0.792   0.321  0.00  0.00    +0.017 C 
ENDBRANCH   1  29
TORSDOF 1
