REMARK  Name = ZINC63269433
REMARK  12 active torsions:
REMARK  status: ('A' for Active; 'I' for Inactive)
REMARK    1  A    between atoms: C_1  and  C_2
REMARK    2  A    between atoms: C_2  and  C_3
REMARK    3  A    between atoms: C_2  and  N_4
REMARK    4  A    between atoms: N_7  and  N_8
REMARK    5  A    between atoms: C_9  and  C_11
REMARK    6  A    between atoms: C_11  and  C_12
REMARK    7  A    between atoms: C_11  and  N_13
REMARK    8  A    between atoms: C_14  and  C_16
REMARK    9  A    between atoms: C_19  and  C_22
REMARK   10  A    between atoms: C_22  and  C_23
REMARK   11  A    between atoms: C_22  and  C_24
REMARK   12  A    between atoms: C_22  and  C_25
REMARK                            x       y       z     vdW  Elec       q    Type
REMARK                         _______ _______ _______ _____ _____    ______ ____
ROOT
ATOM      1  C   UNL     1      -6.316  -1.035   0.628  0.00  0.00    +0.158 C 
ATOM      2  C   UNL     1      -6.411   0.275  -0.157  0.00  0.00    +0.038 C 
ENDROOT
BRANCH   1   4
ATOM      3  N   UNL     1      -3.940  -1.414   0.052  0.00  0.00    -0.232 N 
ATOM      4  C   UNL     1      -5.205  -1.881   0.061  0.00  0.00    +0.249 C 
ATOM      5  O   UNL     1      -5.449  -2.981  -0.386  0.00  0.00    -0.272 OA
ATOM      6  H   UNL     1      -3.745  -0.534   0.409  0.00  0.00    +0.173 HD
BRANCH   3  10
ATOM      7  N   UNL     1      -1.372  -0.511   0.012  0.00  0.00    -0.296 N 
ATOM      8  C   UNL     1      -1.643  -1.734  -0.485  0.00  0.00    +0.316 C 
ATOM      9  O   UNL     1      -0.747  -2.417  -0.942  0.00  0.00    -0.251 OA
ATOM     10  N   UNL     1      -2.908  -2.201  -0.475  0.00  0.00    -0.218 N 
ATOM     11  H   UNL     1      -2.087   0.033   0.377  0.00  0.00    +0.151 HD
ATOM     12  H   UNL     1      -3.103  -3.081  -0.833  0.00  0.00    +0.174 HD
BRANCH   7  14
ATOM     13  C   UNL     1      -0.019   1.526   0.010  0.00  0.00    +0.027 C 
ATOM     14  C   UNL     1       0.002  -0.004   0.002  0.00  0.00    +0.068 C 
ATOM     15  C   UNL     1       0.742  -0.511   1.242  0.00  0.00    +0.027 C 
ENDBRANCH   7  14
ENDBRANCH   3  10
ENDBRANCH   1   4
BRANCH   1  16
ATOM     16  N   UNL     1      -7.584  -1.760   0.523  0.00  0.00    -0.300 N 
ATOM     17  C   UNL     1      -8.595  -1.477   1.369  0.00  0.00    +0.245 C 
ATOM     18  O   UNL     1      -8.453  -0.620   2.219  0.00  0.00    -0.270 OA
ATOM     19  H   UNL     1      -7.697  -2.445  -0.155  0.00  0.00    +0.150 HD
BRANCH  17  20
ATOM     20  C   UNL     1      -9.875  -2.209   1.263  0.00  0.00    +0.037 A 
ATOM     21  C   UNL     1     -10.038  -3.199   0.292  0.00  0.00    +0.013 A 
ATOM     22  C   UNL     1     -11.235  -3.878   0.199  0.00  0.00    +0.005 A 
ATOM     23  C   UNL     1     -12.272  -3.581   1.065  0.00  0.00    -0.042 A 
ATOM     24  C   UNL     1     -12.117  -2.601   2.029  0.00  0.00    +0.005 A 
ATOM     25  C   UNL     1     -10.923  -1.918   2.137  0.00  0.00    +0.013 A 
BRANCH  23  26
ATOM     26  C   UNL     1     -13.577  -4.327   0.957  0.00  0.00    -0.013 C 
ATOM     27  C   UNL     1     -13.329  -5.822   1.173  0.00  0.00    +0.015 C 
ATOM     28  C   UNL     1     -14.548  -3.813   2.021  0.00  0.00    +0.015 C 
ATOM     29  C   UNL     1     -14.178  -4.106  -0.433  0.00  0.00    +0.015 C 
ENDBRANCH  23  26
ENDBRANCH  17  20
ENDBRANCH   1  16
TORSDOF 6
