REMARK  Name = ZINC36313548
REMARK  11 active torsions:
REMARK  status: ('A' for Active; 'I' for Inactive)
REMARK    1  A    between atoms: C_1  and  O_2
REMARK    2  A    between atoms: O_2  and  C_3
REMARK    3  A    between atoms: C_6  and  O_9
REMARK    4  A    between atoms: O_9  and  C_10
REMARK    5  A    between atoms: C_10  and  C_11
REMARK    6  A    between atoms: C_11  and  C_13
REMARK    7  A    between atoms: C_11  and  O_38
REMARK    8  A    between atoms: C_13  and  N_14
REMARK    9  A    between atoms: N_14  and  C_15
REMARK   10  A    between atoms: N_14  and  C_32
REMARK   11  A    between atoms: C_15  and  C_16
REMARK                            x       y       z     vdW  Elec       q    Type
REMARK                         _______ _______ _______ _____ _____    ______ ____
ROOT
ATOM      1  N   UNL     1       3.682  -6.491   6.843  0.00  0.00    +0.388 N 
ATOM      2  H   UNL     1       4.452  -6.024   7.300  0.00  0.00    -0.081 HD
ENDROOT
BRANCH   1   3
ATOM      3  C   UNL     1       2.467  -6.340   7.653  0.00  0.00    -0.068 C 
ATOM      4  C   UNL     1       2.664  -7.034   9.002  0.00  0.00    -0.015 C 
ATOM      5  C   UNL     1       1.398  -6.877   9.847  0.00  0.00    -0.002 C 
ATOM      6  C   UNL     1       0.214  -7.512   9.114  0.00  0.00    -0.000 C 
ATOM      7  C   UNL     1       0.017  -6.817   7.765  0.00  0.00    -0.002 C 
ATOM      8  C   UNL     1       1.283  -6.974   6.921  0.00  0.00    -0.015 C 
ENDBRANCH   1   3
BRANCH   1   9
ATOM      9  C   UNL     1       3.465  -5.893   5.518  0.00  0.00    -0.043 C 
BRANCH   9  10
ATOM     10  C   UNL     1       3.265  -4.384   5.666  0.00  0.00    +0.135 C 
BRANCH  10  11
ATOM     11  O   UNL     1       4.429  -3.805   6.259  0.00  0.00    -0.390 OA
ATOM     12  H   UNL     1       5.238  -3.936   5.747  0.00  0.00    +0.210 HD
ENDBRANCH  10  11
BRANCH  10  13
ATOM     13  C   UNL     1       3.032  -3.762   4.287  0.00  0.00    +0.258 C 
BRANCH  13  14
ATOM     14  O   UNL     1       2.730  -2.373   4.436  0.00  0.00    -0.489 OA
BRANCH  14  18
ATOM     15  C   UNL     1       2.018  -0.231   0.980  0.00  0.00    +0.120 A 
ATOM     16  C   UNL     1       1.958   0.401   2.212  0.00  0.00    +0.049 A 
ATOM     17  C   UNL     1       2.196  -0.316   3.369  0.00  0.00    +0.049 A 
ATOM     18  C   UNL     1       2.495  -1.668   3.297  0.00  0.00    +0.121 A 
ATOM     19  C   UNL     1       2.555  -2.301   2.064  0.00  0.00    +0.049 A 
ATOM     20  C   UNL     1       2.312  -1.585   0.908  0.00  0.00    +0.049 A 
BRANCH  15  22
ATOM     21  C   UNL     1       1.487   1.865  -0.011  0.00  0.00    +0.277 C 
ATOM     22  O   UNL     1       1.784   0.474  -0.159  0.00  0.00    -0.495 OA
ENDBRANCH  15  22
ENDBRANCH  14  18
ENDBRANCH  13  14
ENDBRANCH  10  13
ENDBRANCH   9  10
ENDBRANCH   1   9
BRANCH   1  23
ATOM     23  C   UNL     1       3.995  -7.918   6.691  0.00  0.00    -0.003 C 
BRANCH  23  24
ATOM     24  C   UNL     1       4.798  -8.385   7.877  0.00  0.00    +0.094 A 
ATOM     25  N   UNL     1       5.078  -9.707   8.014  0.00  0.00    -0.312 N 
ATOM     26  H   UNL     1       4.758 -10.332   7.345  0.00  0.00    +0.170 HD
ATOM     27  C   UNL     1       5.792 -10.167   9.059  0.00  0.00    +0.260 A 
ATOM     28  O   UNL     1       6.035 -11.356   9.167  0.00  0.00    -0.267 OA
ATOM     29  C   UNL     1       6.261  -9.234  10.040  0.00  0.00    +0.075 A 
ATOM     30  C   UNL     1       7.047  -9.508  11.247  0.00  0.00    -0.023 A 
ATOM     31  C   UNL     1       7.362  -8.448  12.019  0.00  0.00    -0.004 A 
ATOM     32  S   UNL     1       6.653  -7.046  11.193  0.00  0.00    -0.073 S 
ATOM     33  C   UNL     1       5.924  -7.892   9.813  0.00  0.00    +0.116 A 
ATOM     34  N   UNL     1       5.218  -7.511   8.752  0.00  0.00    -0.229 NA
ATOM     35  C   UNL     1       8.132  -8.442  13.303  0.00  0.00    +0.043 C 
ATOM     36  C   UNL     1       9.422  -9.253  13.124  0.00  0.00    +0.005 C 
ATOM     37  C   UNL     1       9.130 -10.707  13.477  0.00  0.00    +0.001 C 
ATOM     38  C   UNL     1       7.693 -11.059  13.096  0.00  0.00    +0.005 C 
ATOM     39  C   UNL     1       7.490 -10.927  11.592  0.00  0.00    +0.037 C 
ENDBRANCH  23  24
ENDBRANCH   1  23
TORSDOF 10
