REMARK  Name = ZINC61514541
REMARK  5 active torsions:
REMARK  status: ('A' for Active; 'I' for Inactive)
REMARK    1  A    between atoms: C_1  and  C_2
REMARK    2  A    between atoms: C_2  and  C_16
REMARK    3  A    between atoms: C_4  and  N_6
REMARK    4  A    between atoms: C_9  and  O_14
REMARK    5  A    between atoms: O_14  and  C_15
REMARK                            x       y       z     vdW  Elec       q    Type
REMARK                         _______ _______ _______ _____ _____    ______ ____
ROOT
ATOM      1  N   UNL     1       1.415  -1.953   0.875  0.00  0.00    -0.310 N 
ATOM      2  C   UNL     1       2.455  -2.359   1.686  0.00  0.00    +0.222 A 
ATOM      3  N   UNL     1       3.107  -3.486   1.418  0.00  0.00    -0.161 NA
ATOM      4  C   UNL     1       4.107  -3.873   2.200  0.00  0.00    +0.323 A 
ATOM      5  N   UNL     1       4.454  -3.133   3.248  0.00  0.00    -0.164 NA
ATOM      6  C   UNL     1       3.805  -2.011   3.513  0.00  0.00    +0.230 A 
ATOM      7  N   UNL     1       2.811  -1.619   2.733  0.00  0.00    -0.184 NA
ATOM      8 CL   UNL     1       4.262  -1.048   4.883  0.00  0.00    -0.041 Cl
ATOM      9  H   UNL     1       1.156  -2.493   0.112  0.00  0.00    +0.149 HD
ENDROOT
BRANCH   1  13
ATOM     10  C   UNL     1      -0.019   1.526   0.010  0.00  0.00    +0.013 C 
ATOM     11  C   UNL     1       0.002  -0.004   0.002  0.00  0.00    -0.015 C 
ATOM     12  C   UNL     1      -0.825  -0.728   1.066  0.00  0.00    +0.031 C 
ATOM     13  C   UNL     1       0.701  -0.708   1.167  0.00  0.00    +0.079 C 
ATOM     14  C   UNL     1       0.102  -0.655  -1.379  0.00  0.00    +0.013 C 
ENDBRANCH   1  13
BRANCH   4  15
ATOM     15  O   UNL     1       4.772  -5.020   1.931  0.00  0.00    -0.466 OA
ATOM     16  C   UNL     1       5.837  -5.375   2.814  0.00  0.00    +0.280 C 
ENDBRANCH   4  15
TORSDOF 2
