REMARK  Name = ZINC14034073
REMARK  10 active torsions:
REMARK  status: ('A' for Active; 'I' for Inactive)
REMARK    1  A    between atoms: C_1  and  C_2
REMARK    2  A    between atoms: C_2  and  C_3
REMARK    3  A    between atoms: C_2  and  C_4
REMARK    4  A    between atoms: C_13  and  C_15
REMARK    5  A    between atoms: C_15  and  C_16
REMARK    6  A    between atoms: N_18  and  C_19
REMARK    7  A    between atoms: C_19  and  C_20
REMARK    8  A    between atoms: C_20  and  C_21
REMARK    9  A    between atoms: C_24  and  S_27
REMARK   10  A    between atoms: S_27  and  N_30
REMARK                            x       y       z     vdW  Elec       q    Type
REMARK                         _______ _______ _______ _____ _____    ______ ____
ROOT
ATOM      1  C   UNL     1      -0.004   1.204  -0.136  0.00  0.00    +0.215 C 
ATOM      2  O   UNL     1       0.025  -0.003  -0.251  0.00  0.00    -0.276 OA
ATOM      3  N   UNL     1      -1.186   1.852  -0.136  0.00  0.00    -0.315 N 
ATOM      4  H   UNL     1      -1.210   2.818  -0.044  0.00  0.00    +0.149 HD
ENDROOT
BRANCH   1   5
ATOM      5  C   UNL     1       1.280   1.980   0.001  0.00  0.00    +0.121 C 
BRANCH   5  15
ATOM      6  C   UNL     1       6.104   3.110  -0.049  0.00  0.00    +0.052 A 
ATOM      7  C   UNL     1       5.260   3.216  -1.117  0.00  0.00    +0.094 A 
ATOM      8  C   UNL     1       4.040   2.532  -1.099  0.00  0.00    +0.255 A 
ATOM      9  O   UNL     1       3.279   2.621  -2.048  0.00  0.00    -0.268 OA
ATOM     10  N   UNL     1       3.699   1.762  -0.018  0.00  0.00    -0.283 N 
ATOM     11  C   UNL     1       4.597   1.710   1.005  0.00  0.00    +0.172 A 
ATOM     12  N   UNL     1       5.744   2.356   0.985  0.00  0.00    -0.228 NA
ATOM     13  S   UNL     1       3.895   0.652   2.252  0.00  0.00    -0.086 S 
ATOM     14  C   UNL     1       2.319   0.224   1.425  0.00  0.00    +0.103 C 
ATOM     15  C   UNL     1       2.455   1.006   0.110  0.00  0.00    +0.112 C 
BRANCH   6  17
ATOM     16  C   UNL     1       7.469   4.803   1.143  0.00  0.00    +0.014 C 
ATOM     17  C   UNL     1       7.424   3.838  -0.043  0.00  0.00    +0.032 C 
ATOM     18  C   UNL     1       8.564   2.825   0.080  0.00  0.00    +0.014 C 
ENDBRANCH   6  17
ENDBRANCH   5  15
ENDBRANCH   1   5
BRANCH   3  19
ATOM     19  C   UNL     1      -2.435   1.099  -0.275  0.00  0.00    +0.109 C 
BRANCH  19  20
ATOM     20  C   UNL     1      -3.620   2.066  -0.245  0.00  0.00    +0.054 C 
BRANCH  20  21
ATOM     21  C   UNL     1      -4.905   1.291  -0.388  0.00  0.00    -0.046 A 
ATOM     22  C   UNL     1      -5.434   1.056  -1.643  0.00  0.00    +0.005 A 
ATOM     23  C   UNL     1      -6.609   0.340  -1.774  0.00  0.00    +0.029 A 
ATOM     24  C   UNL     1      -7.262  -0.130  -0.650  0.00  0.00    +0.105 A 
ATOM     25  C   UNL     1      -6.735   0.110   0.606  0.00  0.00    +0.029 A 
ATOM     26  C   UNL     1      -5.557   0.821   0.737  0.00  0.00    +0.005 A 
BRANCH  24  27
ATOM     27  S   UNL     1      -8.764  -1.035  -0.817  0.00  0.00    +0.056 S 
ATOM     28  O   UNL     1      -8.758  -1.594  -2.123  0.00  0.00    -0.153 OA
ATOM     29  O   UNL     1      -8.890  -1.833   0.353  0.00  0.00    -0.153 OA
BRANCH  27  30
ATOM     30  N   UNL     1     -10.004   0.062  -0.776  0.00  0.00    -0.204 NA
ATOM     31  H   UNL     1     -10.826  -0.117  -1.260  0.00  0.00    +0.144 HD
ATOM     32  H   UNL     1      -9.908   0.884  -0.270  0.00  0.00    +0.144 HD
ENDBRANCH  27  30
ENDBRANCH  24  27
ENDBRANCH  20  21
ENDBRANCH  19  20
ENDBRANCH   3  19
TORSDOF 8
