REMARK  Name = ZINC36629315
REMARK  8 active torsions:
REMARK  status: ('A' for Active; 'I' for Inactive)
REMARK    1  A    between atoms: C_1  and  C_2
REMARK    2  A    between atoms: C_2  and  C_3
REMARK    3  A    between atoms: C_3  and  N_4
REMARK    4  A    between atoms: C_10  and  N_15
REMARK    5  A    between atoms: C_11  and  C_12
REMARK    6  A    between atoms: C_16  and  C_18
REMARK    7  A    between atoms: C_22  and  N_25
REMARK    8  A    between atoms: C_23  and  C_24
REMARK                            x       y       z     vdW  Elec       q    Type
REMARK                         _______ _______ _______ _____ _____    ______ ____
ROOT
ATOM      1  N   UNL     1      -0.706  -1.407  -0.882  0.00  0.00    +0.383 N 
ATOM      2  C   UNL     1       0.150  -1.701  -2.039  0.00  0.00    -0.074 C 
ATOM      3  C   UNL     1       0.678  -3.138  -1.954  0.00  0.00    +0.018 C 
ATOM      4  C   UNL     1      -0.513  -4.061  -1.740  0.00  0.00    -0.027 A 
ATOM      5  C   UNL     1      -1.697  -3.558  -1.320  0.00  0.00    -0.021 A 
ATOM      6  S   UNL     1      -2.766  -4.960  -1.215  0.00  0.00    -0.079 S 
ATOM      7  C   UNL     1      -1.704  -6.168  -1.701  0.00  0.00    +0.085 A 
ATOM      8  C   UNL     1      -0.516  -5.495  -1.949  0.00  0.00    +0.068 A 
ATOM      9  C   UNL     1      -1.989  -2.121  -1.020  0.00  0.00    -0.035 C 
ATOM     10  H   UNL     1      -0.243  -1.708  -0.037  0.00  0.00    -0.081 HD
ENDROOT
BRANCH   8  11
ATOM     11  C   UNL     1       0.684  -6.204  -2.402  0.00  0.00    +0.244 C 
ATOM     12  O   UNL     1       1.475  -6.645  -1.588  0.00  0.00    -0.270 OA
ATOM     13  N   UNL     1       0.913  -6.368  -3.720  0.00  0.00    -0.325 N 
ATOM     14  H   UNL     1       0.283  -6.017  -4.369  0.00  0.00    +0.145 HD
ATOM     15  H   UNL     1       1.707  -6.838  -4.020  0.00  0.00    +0.145 HD
ENDBRANCH   8  11
BRANCH   7  16
ATOM     16  N   UNL     1      -1.956  -7.524  -1.825  0.00  0.00    -0.275 N 
ATOM     17  C   UNL     1      -3.180  -8.011  -1.539  0.00  0.00    +0.249 C 
ATOM     18  O   UNL     1      -4.063  -7.260  -1.173  0.00  0.00    -0.270 OA
ATOM     19  H   UNL     1      -1.252  -8.124  -2.117  0.00  0.00    +0.156 HD
BRANCH  17  20
ATOM     20  C   UNL     1      -3.449  -9.458  -1.672  0.00  0.00    +0.042 A 
ATOM     21  C   UNL     1      -2.482 -10.304  -2.218  0.00  0.00    +0.013 A 
ATOM     22  C   UNL     1      -2.740 -11.654  -2.339  0.00  0.00    +0.003 A 
ATOM     23  C   UNL     1      -3.953 -12.170  -1.919  0.00  0.00    +0.033 A 
ATOM     24  C   UNL     1      -4.916 -11.338  -1.377  0.00  0.00    +0.130 A 
ATOM     25  C   UNL     1      -4.669  -9.986  -1.245  0.00  0.00    -0.008 A 
ATOM     26  C   UNL     1      -5.716  -9.082  -0.649  0.00  0.00    +0.047 C 
BRANCH  24  27
ATOM     27  N   UNL     1      -6.211 -11.898  -0.931  0.00  0.00    +0.057 N 
ATOM     28  O   UNL     1      -6.380 -13.095  -0.920  0.00  0.00    -0.126 OA
ATOM     29  O   UNL     1      -7.101 -11.159  -0.579  0.00  0.00    -0.126 OA
ENDBRANCH  24  27
ENDBRANCH  17  20
ENDBRANCH   7  16
BRANCH   1  30
ATOM     30  C   UNL     1      -0.956   0.039  -0.814  0.00  0.00    -0.079 C 
BRANCH  30  32
ATOM     31  C   UNL     1      -2.000   1.867   0.532  0.00  0.00    +0.002 C 
ATOM     32  C   UNL     1      -1.739   0.361   0.461  0.00  0.00    -0.022 C 
ENDBRANCH  30  32
ENDBRANCH   1  30
TORSDOF 6
