REMARK  Name = ZINC04327242
REMARK  6 active torsions:
REMARK  status: ('A' for Active; 'I' for Inactive)
REMARK    1  A    between atoms: C_1  and  C_2
REMARK    2  A    between atoms: C_2  and  C_31
REMARK    3  A    between atoms: N_16  and  C_19
REMARK    4  A    between atoms: C_19  and  N_58
REMARK    5  A    between atoms: C_25  and  C_29
REMARK    6  A    between atoms: C_26  and  N_28
REMARK                            x       y       z     vdW  Elec       q    Type
REMARK                         _______ _______ _______ _____ _____    ______ ____
ROOT
ATOM      1  C   UNL     1      -5.499  -0.409   2.773  0.00  0.00    +0.012 C 
ATOM      2  C   UNL     1      -4.168  -0.797   3.419  0.00  0.00    -0.021 C 
ATOM      3  C   UNL     1      -3.344  -1.632   2.437  0.00  0.00    +0.081 C 
ATOM      4  C   UNL     1      -3.053  -0.819   1.197  0.00  0.00    +0.116 C 
ATOM      5  C   UNL     1      -2.920   0.519   1.270  0.00  0.00    +0.058 C 
ATOM      6  C   UNL     1      -3.054   1.203   2.493  0.00  0.00    +0.165 C 
ATOM      7  O   UNL     1      -2.906   2.408   2.522  0.00  0.00    -0.292 OA
ATOM      8  C   UNL     1      -3.375   0.468   3.766  0.00  0.00    +0.086 C 
ATOM      9  C   UNL     1      -2.622   1.323   0.030  0.00  0.00    +0.144 C 
ATOM     10  C   UNL     1      -1.197   1.780   0.017  0.00  0.00    -0.001 A 
ATOM     11  C   UNL     1      -0.013   1.076   0.008  0.00  0.00    +0.007 A 
ATOM     12  C   UNL     1       1.163   1.819   0.001  0.00  0.00    +0.000 A 
ATOM     13  C   UNL     1       1.141   3.199   0.009  0.00  0.00    +0.002 A 
ATOM     14  C   UNL     1      -0.046   3.914   0.025  0.00  0.00    +0.024 A 
ATOM     15  C   UNL     1      -1.234   3.180   0.032  0.00  0.00    +0.039 A 
ATOM     16  N   UNL     1      -2.543   3.627   0.047  0.00  0.00    -0.287 N 
ATOM     17  C   UNL     1      -3.426   2.607   0.047  0.00  0.00    +0.239 C 
ATOM     18  O   UNL     1      -4.635   2.700   0.059  0.00  0.00    -0.274 OA
ATOM     19  C   UNL     1      -2.942   0.531  -1.204  0.00  0.00    +0.110 C 
ATOM     20  C   UNL     1      -3.079  -0.816  -1.132  0.00  0.00    +0.199 C 
ATOM     21  O   UNL     1      -2.928  -1.473   0.028  0.00  0.00    -0.445 OA
ATOM     22  C   UNL     1      -4.430  -1.609   4.690  0.00  0.00    +0.012 C 
ENDROOT
BRANCH  20  23
ATOM     23  N   UNL     1      -3.379  -1.523  -2.271  0.00  0.00    -0.328 N 
ATOM     24  H   UNL     1      -3.490  -1.058  -3.115  0.00  0.00    +0.145 HD
ATOM     25  H   UNL     1      -3.480  -2.487  -2.231  0.00  0.00    +0.145 HD
ENDBRANCH  20  23
BRANCH  19  26
ATOM     26  C   UNL     1      -3.101   1.200  -2.460  0.00  0.00    +0.102 C 
ATOM     27  N   UNL     1      -3.228   1.730  -3.457  0.00  0.00    -0.191 NA
ENDBRANCH  19  26
BRANCH  16  28
ATOM     28  C   UNL     1      -2.925   5.041   0.061  0.00  0.00    +0.038 C 
BRANCH  28  34
ATOM     29  C   UNL     1      -1.755   5.865  -1.893  0.00  0.00    -0.048 C 
ATOM     30  C   UNL     1      -1.940   6.307  -3.347  0.00  0.00    +0.141 C 
ATOM     31  O   UNL     1      -2.854   7.406  -3.393  0.00  0.00    -0.383 OA
ATOM     32  C   UNL     1      -4.140   7.109  -2.843  0.00  0.00    +0.141 C 
ATOM     33  C   UNL     1      -3.977   6.676  -1.384  0.00  0.00    -0.048 C 
ATOM     34  N   UNL     1      -3.075   5.505  -1.335  0.00  0.00    +0.393 N 
ATOM     35  H   UNL     1      -3.480   4.748  -1.897  0.00  0.00    -0.079 HD
ENDBRANCH  28  34
ENDBRANCH  16  28
TORSDOF 4
