REMARK  Name = ZINC51630675
REMARK  4 active torsions:
REMARK  status: ('A' for Active; 'I' for Inactive)
REMARK    1  A    between atoms: C_9  and  N_12
REMARK    2  A    between atoms: N_12  and  C_13
REMARK    3  A    between atoms: C_13  and  C_14
REMARK    4  A    between atoms: C_19  and  O_20
REMARK                            x       y       z     vdW  Elec       q    Type
REMARK                         _______ _______ _______ _____ _____    ______ ____
ROOT
ATOM      1  N   UNL     1       4.872  -2.834  -0.260  0.00  0.00    -0.309 NA
ATOM      2  H   UNL     1       5.319  -2.529   0.592  0.00  0.00    +0.123 HD
ENDROOT
BRANCH   1  11
ATOM      3  C   UNL     1      -0.017   1.375   0.010  0.00  0.00    +0.000 A 
ATOM      4  C   UNL     1       1.174   2.078   0.002  0.00  0.00    +0.000 A 
ATOM      5  C   UNL     1       2.372   1.395  -0.010  0.00  0.00    +0.004 A 
ATOM      6  C   UNL     1       2.393   0.006  -0.017  0.00  0.00    -0.043 A 
ATOM      7  C   UNL     1       1.208  -0.694  -0.015  0.00  0.00    -0.044 A 
ATOM      8  C   UNL     1       0.002  -0.004   0.002  0.00  0.00    +0.004 A 
ATOM      9  C   UNL     1       1.155  -2.199  -0.038  0.00  0.00    +0.037 C 
ATOM     10  C   UNL     1       2.501  -2.790   0.375  0.00  0.00    +0.023 C 
ATOM     11  C   UNL     1       3.599  -2.130  -0.467  0.00  0.00    +0.059 C 
ATOM     12  C   UNL     1       3.737  -0.675  -0.023  0.00  0.00    +0.054 C 
ENDBRANCH   1  11
BRANCH   1  13
ATOM     13  C   UNL     1       5.763  -2.660  -1.414  0.00  0.00    +0.120 C 
BRANCH  13  14
ATOM     14  C   UNL     1       7.056  -3.394  -1.166  0.00  0.00    +0.011 A 
ATOM     15  C   UNL     1       8.172  -2.702  -0.735  0.00  0.00    +0.028 A 
ATOM     16  C   UNL     1       9.359  -3.375  -0.507  0.00  0.00    +0.043 A 
ATOM     17  C   UNL     1       9.432  -4.742  -0.710  0.00  0.00    +0.043 A 
ATOM     18  C   UNL     1       8.318  -5.438  -1.141  0.00  0.00    +0.084 A 
ATOM     19  C   UNL     1       7.124  -4.764  -1.364  0.00  0.00    +0.140 A 
ATOM     20 CL   UNL     1       8.409  -7.152  -1.396  0.00  0.00    -0.080 Cl
ATOM     21 CL   UNL     1      10.759  -2.503   0.034  0.00  0.00    -0.083 Cl
BRANCH  19  22
ATOM     22  O   UNL     1       6.025  -5.447  -1.782  0.00  0.00    -0.505 OA
ATOM     23  H   UNL     1       5.945  -5.511  -2.744  0.00  0.00    +0.292 HD
ENDBRANCH  19  22
ENDBRANCH  13  14
ENDBRANCH   1  13
TORSDOF 4
