REMARK  Name = ZINC39667541
REMARK  8 active torsions:
REMARK  status: ('A' for Active; 'I' for Inactive)
REMARK    1  A    between atoms: C_1  and  C_2
REMARK    2  A    between atoms: C_6  and  C_9
REMARK    3  A    between atoms: C_7  and  C_8
REMARK    4  A    between atoms: C_9  and  N_10
REMARK    5  A    between atoms: C_11  and  C_13
REMARK    6  A    between atoms: C_24  and  C_26
REMARK    7  A    between atoms: C_27  and  C_38
REMARK    8  A    between atoms: C_30  and  C_31
REMARK                            x       y       z     vdW  Elec       q    Type
REMARK                         _______ _______ _______ _____ _____    ______ ____
ROOT
ATOM      1  C   UNL     1      -2.927  -3.595   4.770  0.00  0.00    +0.100 C 
ATOM      2  C   UNL     1      -3.889  -4.262   3.761  0.00  0.00    +0.121 C 
ATOM      3  N   UNL     1      -3.932  -5.686   4.169  0.00  0.00    -0.296 N 
ATOM      4  C   UNL     1      -3.937  -5.644   5.651  0.00  0.00    +0.115 C 
ATOM      5  C   UNL     1      -2.965  -4.503   6.011  0.00  0.00    -0.004 C 
ATOM      6  C   UNL     1      -3.483  -3.728   7.218  0.00  0.00    -0.010 C 
ATOM      7  C   UNL     1      -3.456  -4.634   8.451  0.00  0.00    -0.082 C 
ATOM      8  N   UNL     1      -2.083  -5.095   8.693  0.00  0.00    +0.379 N 
ATOM      9  C   UNL     1      -1.626  -5.918   7.567  0.00  0.00    -0.082 C 
ATOM     10  C   UNL     1      -1.575  -5.065   6.296  0.00  0.00    -0.010 C 
ATOM     11  C   UNL     1      -3.960  -6.773   3.373  0.00  0.00    +0.252 C 
ATOM     12  O   UNL     1      -3.994  -7.885   3.864  0.00  0.00    -0.270 OA
ATOM     13  H   UNL     1      -1.475  -4.296   8.793  0.00  0.00    -0.086 HD
ATOM     14  H   UNL     1      -2.057  -5.642   9.540  0.00  0.00    -0.086 HD
ENDROOT
BRANCH  11  15
ATOM     15  C   UNL     1      -3.948  -6.614   1.909  0.00  0.00    +0.106 A 
ATOM     16  C   UNL     1      -2.848  -6.564   1.105  0.00  0.00    +0.147 A 
ATOM     17  O   UNL     1      -3.258  -6.413  -0.157  0.00  0.00    -0.359 OA
ATOM     18  N   UNL     1      -4.670  -6.362  -0.191  0.00  0.00    -0.077 NA
ATOM     19  C   UNL     1      -5.122  -6.485   1.032  0.00  0.00    +0.127 A 
ATOM     20  C   UNL     1      -1.415  -6.662   1.562  0.00  0.00    +0.090 C 
BRANCH  19  21
ATOM     21  C   UNL     1      -6.544  -6.490   1.452  0.00  0.00    +0.023 A 
ATOM     22  C   UNL     1      -6.875  -6.620   2.800  0.00  0.00    +0.011 A 
ATOM     23  C   UNL     1      -8.199  -6.624   3.185  0.00  0.00    +0.001 A 
ATOM     24  C   UNL     1      -9.199  -6.499   2.237  0.00  0.00    +0.001 A 
ATOM     25  C   UNL     1      -8.878  -6.369   0.898  0.00  0.00    +0.020 A 
ATOM     26  C   UNL     1      -7.555  -6.357   0.501  0.00  0.00    +0.050 A 
ATOM     27 CL   UNL     1      -7.153  -6.186  -1.179  0.00  0.00    -0.083 Cl
ENDBRANCH  19  21
ENDBRANCH  11  15
BRANCH   1  29
ATOM     28  N   UNL     1      -0.668  -2.596   4.638  0.00  0.00    -0.311 N 
ATOM     29  C   UNL     1      -1.531  -3.536   4.205  0.00  0.00    +0.218 C 
ATOM     30  O   UNL     1      -1.185  -4.335   3.360  0.00  0.00    -0.275 OA
ATOM     31  H   UNL     1      -0.945  -1.958   5.313  0.00  0.00    +0.149 HD
BRANCH  28  32
ATOM     32  C   UNL     1       0.689  -2.539   4.088  0.00  0.00    +0.139 C 
BRANCH  32  38
ATOM     33  C   UNL     1       3.292  -0.716   7.954  0.00  0.00    +0.044 C 
ATOM     34  C   UNL     1       2.690  -0.535   6.584  0.00  0.00    -0.047 A 
ATOM     35  C   UNL     1       2.832   0.669   5.920  0.00  0.00    +0.003 A 
ATOM     36  C   UNL     1       2.280   0.835   4.664  0.00  0.00    +0.001 A 
ATOM     37  C   UNL     1       1.587  -0.203   4.071  0.00  0.00    +0.005 A 
ATOM     38  C   UNL     1       1.445  -1.408   4.734  0.00  0.00    -0.027 A 
ATOM     39  C   UNL     1       2.001  -1.575   5.989  0.00  0.00    -0.043 A 
ATOM     40  C   UNL     1       1.852  -2.890   6.710  0.00  0.00    +0.044 C 
ENDBRANCH  32  38
ENDBRANCH  28  32
ENDBRANCH   1  29
TORSDOF 5
