REMARK  Name = ZINC09476826
REMARK  6 active torsions:
REMARK  status: ('A' for Active; 'I' for Inactive)
REMARK    1  A    between atoms: C_3  and  C_6
REMARK    2  A    between atoms: N_10  and  C_14
REMARK    3  A    between atoms: C_14  and  C_15
REMARK    4  A    between atoms: C_15  and  C_16
REMARK    5  A    between atoms: C_16  and  C_17
REMARK    6  A    between atoms: N_19  and  C_20
REMARK                            x       y       z     vdW  Elec       q    Type
REMARK                         _______ _______ _______ _____ _____    ______ ____
ROOT
ATOM      1  C   UNL     1      -0.744  -2.332   0.114  0.00  0.00    +0.029 C 
ENDROOT
BRANCH   1   2
ATOM      2  C   UNL     1      -1.998  -3.200   0.240  0.00  0.00    +0.115 C 
BRANCH   2   7
ATOM      3  C   UNL     1      -0.630  -7.522   2.262  0.00  0.00    +0.066 C 
ATOM      4  C   UNL     1      -0.964  -6.649   1.269  0.00  0.00    +0.080 C 
ATOM      5  C   UNL     1      -1.341  -5.228   1.357  0.00  0.00    +0.258 C 
ATOM      6  O   UNL     1      -1.395  -4.646   2.425  0.00  0.00    -0.269 OA
ATOM      7  N   UNL     1      -1.617  -4.615   0.218  0.00  0.00    -0.255 N 
ATOM      8  C   UNL     1      -1.560  -5.264  -0.963  0.00  0.00    +0.121 C 
ATOM      9  S   UNL     1      -1.885  -4.654  -2.529  0.00  0.00    -0.027 S 
ATOM     10  S   UNL     1      -1.062  -6.914  -0.496  0.00  0.00    -0.061 S 
BRANCH   3  13
ATOM     11  C   UNL     1       0.297 -11.004   2.092  0.00  0.00    +0.042 A 
ATOM     12  C   UNL     1       0.061  -9.843   2.845  0.00  0.00    +0.049 A 
ATOM     13  C   UNL     1      -0.299  -8.859   1.945  0.00  0.00    +0.129 A 
ATOM     14  O   UNL     1      -0.271  -9.401   0.710  0.00  0.00    -0.463 OA
ATOM     15  C   UNL     1       0.086 -10.690   0.795  0.00  0.00    +0.195 A 
ENDBRANCH   3  13
ENDBRANCH   2   7
ENDBRANCH   1   2
BRANCH   1  16
ATOM     16  C   UNL     1      -1.143  -0.855   0.137  0.00  0.00    +0.097 C 
BRANCH  16  17
ATOM     17  C   UNL     1       0.092   0.000   0.012  0.00  0.00    +0.217 C 
ATOM     18  O   UNL     1       1.183  -0.521  -0.085  0.00  0.00    -0.275 OA
ATOM     19  N   UNL     1      -0.016   1.344   0.009  0.00  0.00    -0.285 N 
ATOM     20  H   UNL     1      -0.892   1.760   0.017  0.00  0.00    +0.155 HD
BRANCH  19  21
ATOM     21  C   UNL     1       1.134   2.137  -0.010  0.00  0.00    +0.036 A 
ATOM     22  C   UNL     1       2.259   1.710  -0.726  0.00  0.00    +0.025 A 
ATOM     23  C   UNL     1       3.391   2.461  -0.762  0.00  0.00    +0.032 A 
ATOM     24  C   UNL     1       3.442   3.687  -0.073  0.00  0.00    +0.089 A 
ATOM     25  C   UNL     1       2.306   4.127   0.655  0.00  0.00    +0.091 A 
ATOM     26  C   UNL     1       1.148   3.334   0.671  0.00  0.00    +0.053 A 
ATOM     27  N   UNL     1       2.353   5.292   1.310  0.00  0.00    -0.252 NA
ATOM     28  C   UNL     1       3.449   6.016   1.274  0.00  0.00    +0.131 A 
ATOM     29  C   UNL     1       4.566   5.582   0.558  0.00  0.00    +0.131 A 
ATOM     30  N   UNL     1       4.544   4.442  -0.094  0.00  0.00    -0.252 NA
ENDBRANCH  19  21
ENDBRANCH  16  17
ENDBRANCH   1  16
TORSDOF 6
