REMARK  Name = ZINC04599053
REMARK  4 active torsions:
REMARK  status: ('A' for Active; 'I' for Inactive)
REMARK    1  A    between atoms: C_4  and  N_7
REMARK    2  A    between atoms: C_11  and  C_12
REMARK    3  A    between atoms: C_15  and  C_17
REMARK    4  A    between atoms: C_20  and  C_23
REMARK                            x       y       z     vdW  Elec       q    Type
REMARK                         _______ _______ _______ _____ _____    ______ ____
ROOT
ATOM      1  N   UNL     1       3.621  -0.650  -0.036  0.00  0.00    -0.184 N 
ATOM      2  C   UNL     1       3.752  -1.990  -0.050  0.00  0.00    +0.272 C 
ATOM      3  O   UNL     1       2.849  -2.807  -0.051  0.00  0.00    -0.268 OA
ATOM      4  C   UNL     1       5.196  -2.279  -0.064  0.00  0.00    +0.105 C 
ATOM      5  C   UNL     1       5.807  -3.525  -0.081  0.00  0.00    +0.064 C 
ATOM      6  C   UNL     1       5.852  -0.960  -0.056  0.00  0.00    +0.266 C 
ATOM      7  O   UNL     1       7.050  -0.747  -0.064  0.00  0.00    -0.268 OA
ATOM      8  N   UNL     1       4.873  -0.036  -0.046  0.00  0.00    -0.223 N 
ATOM      9  H   UNL     1       5.019   0.923  -0.043  0.00  0.00    +0.174 HD
ENDROOT
BRANCH   1  13
ATOM     10  C   UNL     1      -0.017   1.379   0.010  0.00  0.00    +0.000 A 
ATOM     11  C   UNL     1       1.170   2.089   0.002  0.00  0.00    +0.002 A 
ATOM     12  C   UNL     1       2.377   1.420  -0.013  0.00  0.00    +0.025 A 
ATOM     13  C   UNL     1       2.400   0.031  -0.021  0.00  0.00    +0.056 A 
ATOM     14  C   UNL     1       1.206  -0.680  -0.013  0.00  0.00    +0.025 A 
ATOM     15  C   UNL     1       0.002  -0.004   0.002  0.00  0.00    +0.002 A 
ENDBRANCH   1  13
BRANCH   5  16
ATOM     16  C   UNL     1       7.209  -3.620  -0.092  0.00  0.00    +0.129 A 
ATOM     17  C   UNL     1       7.944  -4.797  -0.115  0.00  0.00    +0.050 A 
ATOM     18  C   UNL     1       9.290  -4.430  -0.119  0.00  0.00    +0.050 A 
ATOM     19  C   UNL     1       9.332  -3.052  -0.099  0.00  0.00    +0.136 A 
ATOM     20  O   UNL     1       8.073  -2.583  -0.089  0.00  0.00    -0.455 OA
BRANCH  19  21
ATOM     21  C   UNL     1      10.556  -2.229  -0.096  0.00  0.00    +0.017 A 
ATOM     22  C   UNL     1      11.813  -2.844  -0.120  0.00  0.00    +0.012 A 
ATOM     23  C   UNL     1      12.950  -2.079  -0.118  0.00  0.00    +0.016 A 
ATOM     24  C   UNL     1      12.855  -0.684  -0.091  0.00  0.00    +0.063 A 
ATOM     25  C   UNL     1      11.599  -0.069  -0.068  0.00  0.00    +0.016 A 
ATOM     26  C   UNL     1      10.461  -0.834  -0.075  0.00  0.00    +0.012 A 
BRANCH  24  27
ATOM     27  C   UNL     1      14.079   0.139  -0.088  0.00  0.00    +0.387 C 
ATOM     28  O   UNL     1      15.177  -0.399  -0.109  0.00  0.00    -0.241 OA
ATOM     29  O   UNL     1      13.995   1.359  -0.065  0.00  0.00    -0.241 OA
ENDBRANCH  24  27
ENDBRANCH  19  21
ENDBRANCH   5  16
TORSDOF 4
