REMARK  Name = ZINC20263614
REMARK  10 active torsions:
REMARK  status: ('A' for Active; 'I' for Inactive)
REMARK    1  A    between atoms: C_1  and  C_2
REMARK    2  A    between atoms: C_16  and  O_17
REMARK    3  A    between atoms: C_24  and  O_25
REMARK    4  A    between atoms: N_26  and  C_27
REMARK    5  A    between atoms: C_27  and  C_28
REMARK    6  A    between atoms: C_28  and  C_29
REMARK    7  A    between atoms: C_29  and  N_30
REMARK    8  A    between atoms: N_30  and  C_31
REMARK    9  A    between atoms: N_30  and  C_32
REMARK   10  A    between atoms: C_32  and  C_33
REMARK                            x       y       z     vdW  Elec       q    Type
REMARK                         _______ _______ _______ _____ _____    ______ ____
ROOT
ATOM      1  C   UNL     1      -2.427  -0.541   0.025  0.00  0.00    +0.046 C 
ATOM      2  C   UNL     1      -2.426   0.965   0.062  0.00  0.00    -0.021 A 
ATOM      3  C   UNL     1      -3.623   1.658   0.105  0.00  0.00    +0.005 A 
ATOM      4  C   UNL     1      -3.624   3.040   0.140  0.00  0.00    +0.004 A 
ATOM      5  C   UNL     1      -2.430   3.738   0.130  0.00  0.00    +0.048 A 
ATOM      6  C   UNL     1      -1.226   3.053   0.087  0.00  0.00    +0.154 A 
ATOM      7  C   UNL     1      -1.226   1.659   0.046  0.00  0.00    +0.110 A 
ATOM      8  N   UNL     1      -0.011   0.966   0.008  0.00  0.00    -0.240 NA
ATOM      9  C   UNL     1       1.174   1.686   0.000  0.00  0.00    +0.118 A 
ATOM     10  C   UNL     1       1.135   3.092   0.036  0.00  0.00    +0.156 A 
ATOM     11  O   UNL     1      -0.055   3.740   0.078  0.00  0.00    -0.452 OA
ATOM     12  C   UNL     1       2.309   3.818   0.028  0.00  0.00    +0.074 A 
ATOM     13  C   UNL     1       3.543   3.170  -0.015  0.00  0.00    +0.050 A 
ATOM     14  C   UNL     1       3.601   1.771  -0.051  0.00  0.00    +0.053 A 
ATOM     15  C   UNL     1       2.400   1.021  -0.042  0.00  0.00    +0.059 A 
ATOM     16  C   UNL     1       2.450  -0.447  -0.080  0.00  0.00    +0.135 A 
ATOM     17  C   UNL     1       3.755  -1.137  -0.125  0.00  0.00    +0.028 A 
ATOM     18  C   UNL     1       3.813  -2.529  -0.160  0.00  0.00    +0.012 A 
ATOM     19  C   UNL     1       5.039  -3.166  -0.201  0.00  0.00    +0.001 A 
ATOM     20  C   UNL     1       6.212  -2.431  -0.208  0.00  0.00    +0.001 A 
ATOM     21  C   UNL     1       6.173  -1.050  -0.174  0.00  0.00    +0.012 A 
ATOM     22  C   UNL     1       4.947  -0.391  -0.132  0.00  0.00    +0.028 A 
ATOM     23  C   UNL     1       4.895   1.085  -0.097  0.00  0.00    +0.134 A 
ATOM     24  N   UNL     1       4.714   3.911  -0.023  0.00  0.00    -0.384 N 
ATOM     25  H   UNL     1       5.687   3.403   0.048  0.00  0.00    +0.160 HD
ENDROOT
BRANCH  16  26
ATOM     26  O   UNL     1       1.419  -1.092  -0.073  0.00  0.00    -0.505 OA
ATOM     27  H   UNL     1       1.458  -2.191  -0.101  0.00  0.00    +0.292 HD
ENDBRANCH  16  26
BRANCH  23  28
ATOM     28  O   UNL     1       5.927   1.731  -0.104  0.00  0.00    -0.505 OA
ATOM     29  H   UNL     1       6.898   1.216  -0.138  0.00  0.00    +0.292 HD
ENDBRANCH  23  28
BRANCH  24  30
ATOM     30  C   UNL     1       4.656   5.372  -0.126  0.00  0.00    +0.111 C 
BRANCH  30  31
ATOM     31  C   UNL     1       6.076   5.941  -0.112  0.00  0.00    +0.002 C 
BRANCH  31  32
ATOM     32  C   UNL     1       6.015   7.466  -0.220  0.00  0.00    -0.077 C 
BRANCH  32  33
ATOM     33  N   UNL     1       7.379   8.012  -0.207  0.00  0.00    +0.381 N 
ATOM     34  C   UNL     1       8.120   7.606  -1.409  0.00  0.00    -0.096 C 
ATOM     35  H   UNL     1       7.901   7.598   0.668  0.00  0.00    -0.082 HD
BRANCH  33  36
ATOM     36  C   UNL     1       7.359   9.475  -0.070  0.00  0.00    -0.043 C 
BRANCH  36  37
ATOM     37  C   UNL     1       8.757   9.975   0.186  0.00  0.00    -0.064 A 
ATOM     38  C   UNL     1       9.222  10.096   1.482  0.00  0.00    +0.002 A 
ATOM     39  C   UNL     1      10.506  10.550   1.716  0.00  0.00    +0.000 A 
ATOM     40  C   UNL     1      11.323  10.892   0.654  0.00  0.00    +0.000 A 
ATOM     41  C   UNL     1      10.856  10.776  -0.642  0.00  0.00    +0.000 A 
ATOM     42  C   UNL     1       9.573  10.317  -0.876  0.00  0.00    +0.002 A 
ENDBRANCH  36  37
ENDBRANCH  33  36
ENDBRANCH  32  33
ENDBRANCH  31  32
ENDBRANCH  30  31
ENDBRANCH  24  30
TORSDOF 8
