REMARK  Name = ZINC57434100
REMARK  8 active torsions:
REMARK  status: ('A' for Active; 'I' for Inactive)
REMARK    1  A    between atoms: C_1  and  C_2
REMARK    2  A    between atoms: C_2  and  C_3
REMARK    3  A    between atoms: C_3  and  C_4
REMARK    4  A    between atoms: C_4  and  N_5
REMARK    5  A    between atoms: N_8  and  C_9
REMARK    6  A    between atoms: C_9  and  C_15
REMARK    7  A    between atoms: C_20  and  C_23
REMARK    8  A    between atoms: C_23  and  C_24
REMARK                            x       y       z     vdW  Elec       q    Type
REMARK                         _______ _______ _______ _____ _____    ______ ____
ROOT
ATOM      1  C   UNL     1       2.513  -5.672  -3.937  0.00  0.00    +0.112 C 
ATOM      2  C   UNL     1       1.320  -6.568  -4.277  0.00  0.00    +0.035 C 
ATOM      3  C   UNL     1       0.509  -5.929  -5.407  0.00  0.00    +0.003 C 
ATOM      4  C   UNL     1       1.396  -5.768  -6.643  0.00  0.00    +0.000 C 
ATOM      5  C   UNL     1       2.589  -4.873  -6.303  0.00  0.00    +0.003 C 
ATOM      6  C   UNL     1       3.400  -5.511  -5.173  0.00  0.00    +0.035 C 
ENDROOT
BRANCH   1   7
ATOM      7  C   UNL     1       3.311  -6.301  -2.824  0.00  0.00    +0.239 C 
ATOM      8  O   UNL     1       3.127  -7.463  -2.527  0.00  0.00    -0.273 OA
ATOM      9  N   UNL     1       4.230  -5.573  -2.159  0.00  0.00    -0.300 N 
ATOM     10  C   UNL     1       4.399  -4.141  -2.442  0.00  0.00    +0.108 C 
ATOM     11  C   UNL     1       5.872  -3.872  -2.763  0.00  0.00    +0.023 C 
ATOM     12  C   UNL     1       6.743  -4.393  -1.617  0.00  0.00    +0.001 C 
ATOM     13  C   UNL     1       6.548  -5.904  -1.473  0.00  0.00    +0.023 C 
ATOM     14  C   UNL     1       5.079  -6.195  -1.134  0.00  0.00    +0.108 C 
BRANCH  12  15
ATOM     15  C   UNL     1       8.213  -4.095  -1.918  0.00  0.00    +0.099 C 
BRANCH  15  16
ATOM     16  C   UNL     1       9.059  -4.496  -0.738  0.00  0.00    +0.211 C 
ATOM     17  O   UNL     1       8.537  -4.973   0.248  0.00  0.00    -0.276 OA
ATOM     18  N   UNL     1      10.395  -4.324  -0.776  0.00  0.00    -0.329 N 
ATOM     19  H   UNL     1      10.812  -3.942  -1.564  0.00  0.00    +0.145 HD
ATOM     20  H   UNL     1      10.940  -4.582  -0.016  0.00  0.00    +0.145 HD
ENDBRANCH  15  16
ENDBRANCH  12  15
ENDBRANCH   1   7
BRANCH   1  24
ATOM     21  N   UNL     1       0.699  -3.057  -2.098  0.00  0.00    -0.299 N 
ATOM     22  C   UNL     1       1.215  -4.254  -2.439  0.00  0.00    +0.300 C 
ATOM     23  O   UNL     1       0.946  -5.242  -1.782  0.00  0.00    -0.253 OA
ATOM     24  N   UNL     1       2.030  -4.357  -3.508  0.00  0.00    -0.285 N 
ATOM     25  H   UNL     1       0.854  -2.284  -2.662  0.00  0.00    +0.150 HD
ATOM     26  H   UNL     1       2.296  -3.561  -3.993  0.00  0.00    +0.151 HD
BRANCH  21  27
ATOM     27  C   UNL     1      -0.096  -2.924  -0.875  0.00  0.00    +0.106 C 
BRANCH  27  28
ATOM     28  C   UNL     1      -0.454  -1.452  -0.657  0.00  0.00    +0.018 C 
BRANCH  28  30
ATOM     29  C   UNL     1      -1.643   0.158   0.839  0.00  0.00    +0.004 C 
ATOM     30  C   UNL     1      -1.285  -1.313   0.621  0.00  0.00    -0.002 C 
ENDBRANCH  28  30
ENDBRANCH  27  28
ENDBRANCH  21  27
ENDBRANCH   1  24
TORSDOF 7
