REMARK  Name = ZINC37859257
REMARK  3 active torsions:
REMARK  status: ('A' for Active; 'I' for Inactive)
REMARK    1  A    between atoms: C_1  and  C_2
REMARK    2  A    between atoms: C_3  and  S_9
REMARK    3  A    between atoms: S_9  and  N_12
REMARK                            x       y       z     vdW  Elec       q    Type
REMARK                         _______ _______ _______ _____ _____    ______ ____
ROOT
ATOM      1  S   UNL     1      -2.797  -0.150   0.016  0.00  0.00    +0.069 S 
ATOM      2  O   UNL     1      -2.603  -1.394   0.675  0.00  0.00    -0.152 OA
ATOM      3  O   UNL     1      -3.590   0.890   0.571  0.00  0.00    -0.152 OA
ENDROOT
BRANCH   1   4
ATOM      4  N   UNL     1      -3.443  -0.496  -1.469  0.00  0.00    -0.173 NA
ATOM      5  C   UNL     1      -3.449   0.511  -2.540  0.00  0.00    +0.110 C 
ATOM      6  C   UNL     1      -4.878   0.662  -3.070  0.00  0.00    +0.017 C 
ATOM      7  C   UNL     1      -5.417  -0.708  -3.487  0.00  0.00    +0.006 C 
ATOM      8  C   UNL     1      -5.450  -1.632  -2.263  0.00  0.00    +0.008 C 
ATOM      9  C   UNL     1      -4.016  -1.818  -1.748  0.00  0.00    +0.083 C 
ATOM     10  C   UNL     1      -4.011  -2.671  -0.484  0.00  0.00    +0.021 C 
ATOM     11  C   UNL     1      -4.873  -2.012   0.594  0.00  0.00    +0.002 C 
ATOM     12  C   UNL     1      -6.307  -1.873   0.075  0.00  0.00    +0.000 C 
ATOM     13  C   UNL     1      -6.325  -0.989  -1.184  0.00  0.00    +0.005 C 
ENDBRANCH   1   4
BRANCH   1  16
ATOM     14  C   UNL     1      -1.695   2.862   0.422  0.00  0.00    +0.066 C 
ATOM     15  C   UNL     1      -0.770   1.784  -0.079  0.00  0.00    +0.050 A 
ATOM     16  C   UNL     1      -1.195   0.529  -0.258  0.00  0.00    +0.166 A 
ATOM     17  S   UNL     1       0.283  -0.277  -0.845  0.00  0.00    -0.007 S 
ATOM     18  C   UNL     1       1.322   1.044  -0.816  0.00  0.00    +0.290 A 
ATOM     19  O   UNL     1       2.500   1.087  -1.124  0.00  0.00    -0.260 OA
ATOM     20  N   UNL     1       0.535   2.047  -0.376  0.00  0.00    -0.318 N 
ATOM     21  H   UNL     1       0.893   2.942  -0.268  0.00  0.00    +0.169 HD
ENDBRANCH   1  16
TORSDOF 2
