REMARK  Name = ZINC05294930
REMARK  4 active torsions:
REMARK  status: ('A' for Active; 'I' for Inactive)
REMARK    1  A    between atoms: C_4  and  C_7
REMARK    2  A    between atoms: C_7  and  O_27
REMARK    3  A    between atoms: C_8  and  C_24
REMARK    4  A    between atoms: C_24  and  C_25
REMARK                            x       y       z     vdW  Elec       q    Type
REMARK                         _______ _______ _______ _____ _____    ______ ____
ROOT
ATOM      1  C   UNL     1      -0.913   2.441  -0.039  0.00  0.00    +0.185 C 
ATOM      2  C   UNL     1      -0.196   3.799  -0.092  0.00  0.00    +0.123 C 
ATOM      3  S   UNL     1       1.554   3.279   0.049  0.00  0.00    -0.079 S 
ATOM      4  C   UNL     1       1.325   1.520   0.154  0.00  0.00    +0.173 A 
ATOM      5  N   UNL     1      -0.018   1.291   0.090  0.00  0.00    -0.284 N 
ATOM      6  C   UNL     1      -0.140  -0.085   0.179  0.00  0.00    +0.082 A 
ATOM      7  C   UNL     1       1.118  -0.616   0.286  0.00  0.00    +0.105 A 
ATOM      8  N   UNL     1       1.982   0.387   0.269  0.00  0.00    -0.223 NA
ATOM      9  C   UNL     1       1.321  -2.107   0.394  0.00  0.00    +0.286 C 
ATOM     10  O   UNL     1       0.153  -2.698   0.969  0.00  0.00    -0.485 OA
ATOM     11  C   UNL     1      -1.083  -2.307   0.572  0.00  0.00    +0.130 A 
ATOM     12  C   UNL     1      -1.314  -0.972   0.180  0.00  0.00    +0.042 A 
ATOM     13  C   UNL     1      -2.583  -0.552  -0.180  0.00  0.00    +0.013 A 
ATOM     14  C   UNL     1      -3.630  -1.456  -0.166  0.00  0.00    +0.001 A 
ATOM     15  C   UNL     1      -3.406  -2.770   0.204  0.00  0.00    +0.004 A 
ATOM     16  C   UNL     1      -2.143  -3.196   0.572  0.00  0.00    +0.046 A 
ENDROOT
BRANCH   1  20
ATOM     17  C   UNL     1      -3.207   1.983  -3.613  0.00  0.00    +0.000 A 
ATOM     18  C   UNL     1      -3.786   2.536  -2.486  0.00  0.00    +0.000 A 
ATOM     19  C   UNL     1      -3.044   2.684  -1.330  0.00  0.00    +0.008 A 
ATOM     20  C   UNL     1      -1.722   2.279  -1.300  0.00  0.00    +0.006 A 
ATOM     21  C   UNL     1      -1.142   1.731  -2.428  0.00  0.00    +0.008 A 
ATOM     22  C   UNL     1      -1.885   1.579  -3.583  0.00  0.00    +0.000 A 
ENDBRANCH   1  20
BRANCH   1  23
ATOM     23  O   UNL     1      -1.811   2.444   1.073  0.00  0.00    -0.365 OA
ATOM     24  H   UNL     1      -2.376   1.660   1.124  0.00  0.00    +0.213 HD
ENDBRANCH   1  23
BRANCH   2  25
ATOM     25  C   UNL     1      -0.454   4.511  -1.421  0.00  0.00    +0.144 C 
BRANCH  25  26
ATOM     26  C   UNL     1       0.307   5.811  -1.450  0.00  0.00    +0.357 C 
ATOM     27  O   UNL     1       0.986   6.135  -0.505  0.00  0.00    -0.246 OA
ATOM     28  O   UNL     1       0.230   6.609  -2.527  0.00  0.00    -0.246 OA
ENDBRANCH  25  26
ENDBRANCH   2  25
TORSDOF 4
