REMARK  Name = ZINC63694167
REMARK  8 active torsions:
REMARK  status: ('A' for Active; 'I' for Inactive)
REMARK    1  A    between atoms: C_1  and  C_2
REMARK    2  A    between atoms: C_2  and  C_3
REMARK    3  A    between atoms: C_2  and  N_4
REMARK    4  A    between atoms: C_8  and  C_10
REMARK    5  A    between atoms: C_10  and  N_11
REMARK    6  A    between atoms: C_12  and  C_14
REMARK    7  A    between atoms: C_14  and  N_15
REMARK    8  A    between atoms: N_24  and  C_27
REMARK                            x       y       z     vdW  Elec       q    Type
REMARK                         _______ _______ _______ _____ _____    ______ ____
ROOT
ATOM      1  N   UNL     1      -5.557  -0.094  -2.392  0.00  0.00    -0.314 N 
ATOM      2  C   UNL     1      -6.459   0.206  -3.348  0.00  0.00    +0.231 C 
ATOM      3  O   UNL     1      -6.123   0.854  -4.316  0.00  0.00    -0.274 OA
ATOM      4  H   UNL     1      -5.825  -0.613  -1.617  0.00  0.00    +0.149 HD
ENDROOT
BRANCH   1   5
ATOM      5  C   UNL     1      -4.171   0.362  -2.524  0.00  0.00    +0.106 C 
BRANCH   5  10
ATOM      6  N   UNL     1      -1.166   0.013  -0.234  0.00  0.00    +0.381 N 
ATOM      7  C   UNL     1      -1.028  -1.448  -0.266  0.00  0.00    -0.078 C 
ATOM      8  C   UNL     1      -2.409  -2.097  -0.146  0.00  0.00    -0.018 C 
ATOM      9  C   UNL     1      -3.285  -1.639  -1.315  0.00  0.00    +0.001 C 
ATOM     10  C   UNL     1      -3.361  -0.110  -1.315  0.00  0.00    -0.011 C 
ATOM     11  C   UNL     1      -1.946   0.466  -1.392  0.00  0.00    -0.074 C 
ATOM     12  H   UNL     1      -1.638   0.285   0.616  0.00  0.00    -0.081 HD
BRANCH   6  14
ATOM     13  C   UNL     1       0.025   2.153  -0.227  0.00  0.00    -0.014 C 
ATOM     14  C   UNL     1       0.167   0.630  -0.271  0.00  0.00    -0.075 C 
ATOM     15  C   UNL     1       0.981   0.159   0.936  0.00  0.00    -0.014 C 
ENDBRANCH   6  14
ENDBRANCH   5  10
ENDBRANCH   1   5
BRANCH   2  16
ATOM     16  C   UNL     1      -7.885  -0.264  -3.212  0.00  0.00    +0.213 C 
BRANCH  16  17
ATOM     17  N   UNL     1      -8.660   0.188  -4.370  0.00  0.00    -0.215 N 
ATOM     18  C   UNL     1      -9.315   1.366  -4.431  0.00  0.00    +0.247 C 
ATOM     19  O   UNL     1      -9.373   2.219  -3.572  0.00  0.00    -0.273 OA
ATOM     20  C   UNL     1      -9.962   1.397  -5.797  0.00  0.00    +0.115 C 
ATOM     21  C   UNL     1      -9.428   2.570  -6.611  0.00  0.00    +0.035 C 
ATOM     22  C   UNL     1     -10.072   2.566  -8.000  0.00  0.00    +0.003 C 
ATOM     23  C   UNL     1     -11.591   2.673  -7.856  0.00  0.00    +0.000 C 
ATOM     24  C   UNL     1     -12.115   1.478  -7.058  0.00  0.00    +0.003 C 
ATOM     25  C   UNL     1     -11.479   1.478  -5.665  0.00  0.00    +0.035 C 
ATOM     26  N   UNL     1      -9.565   0.123  -6.409  0.00  0.00    -0.274 N 
ATOM     27  C   UNL     1      -8.801  -0.514  -5.501  0.00  0.00    +0.312 C 
ATOM     28  O   UNL     1      -8.299  -1.605  -5.686  0.00  0.00    -0.252 OA
ATOM     29  C   UNL     1      -9.925  -0.359  -7.745  0.00  0.00    +0.134 C 
ENDBRANCH  16  17
ENDBRANCH   2  16
TORSDOF 5
