REMARK  Name = ZINC30508343
REMARK  7 active torsions:
REMARK  status: ('A' for Active; 'I' for Inactive)
REMARK    1  A    between atoms: C_1  and  C_2
REMARK    2  A    between atoms: C_7  and  S_26
REMARK    3  A    between atoms: C_12  and  C_14
REMARK    4  A    between atoms: C_14  and  O_15
REMARK    5  A    between atoms: O_15  and  C_16
REMARK    6  A    between atoms: C_19  and  N_23
REMARK    7  A    between atoms: S_26  and  N_29
REMARK                            x       y       z     vdW  Elec       q    Type
REMARK                         _______ _______ _______ _____ _____    ______ ____
ROOT
ATOM      1  C   UNL     1      -4.840   5.652  -1.199  0.00  0.00    +0.029 C 
ATOM      2  C   UNL     1      -4.047   6.028   0.054  0.00  0.00    +0.083 C 
ATOM      3  C   UNL     1      -3.740   7.534   0.061  0.00  0.00    +0.059 C 
ATOM      4  C   UNL     1      -2.230   7.615   0.054  0.00  0.00    -0.022 A 
ATOM      5  C   UNL     1      -1.380   8.705   0.056  0.00  0.00    +0.034 A 
ATOM      6  C   UNL     1      -0.011   8.518   0.048  0.00  0.00    +0.105 A 
ATOM      7  C   UNL     1       0.508   7.236   0.039  0.00  0.00    +0.030 A 
ATOM      8  C   UNL     1      -0.335   6.146   0.036  0.00  0.00    +0.026 A 
ATOM      9  C   UNL     1      -1.719   6.327   0.051  0.00  0.00    +0.040 A 
ATOM     10  N   UNL     1      -2.738   5.369   0.044  0.00  0.00    -0.265 N 
ATOM     11  C   UNL     1      -2.545   4.035   0.036  0.00  0.00    +0.258 C 
ATOM     12  O   UNL     1      -3.498   3.284   0.036  0.00  0.00    -0.272 OA
ENDROOT
BRANCH   6  13
ATOM     13  S   UNL     1       1.071   9.909   0.051  0.00  0.00    +0.056 S 
ATOM     14  O   UNL     1       2.300   9.469  -0.508  0.00  0.00    -0.153 OA
ATOM     15  O   UNL     1       0.334  10.997  -0.490  0.00  0.00    -0.153 OA
BRANCH  13  16
ATOM     16  N   UNL     1       1.379  10.286   1.634  0.00  0.00    -0.204 NA
ATOM     17  H   UNL     1       2.053  11.154   1.679  0.00  0.00    +0.144 HD
ATOM     18  H   UNL     1       1.853   9.427   2.130  0.00  0.00    +0.144 HD
ENDBRANCH  13  16
ENDBRANCH   6  13
BRANCH  11  19
ATOM     19  C   UNL     1      -1.145   3.477   0.026  0.00  0.00    +0.325 C 
BRANCH  19  20
ATOM     20  O   UNL     1      -1.202   2.049   0.019  0.00  0.00    -0.481 OA
BRANCH  20  21
ATOM     21  C   UNL     1      -0.017   1.384   0.010  0.00  0.00    +0.140 A 
ATOM     22  C   UNL     1       1.176   2.091   0.002  0.00  0.00    +0.049 A 
ATOM     23  C   UNL     1       2.380   1.413  -0.013  0.00  0.00    +0.036 A 
ATOM     24  C   UNL     1       2.397   0.031  -0.021  0.00  0.00    +0.128 A 
ATOM     25  C   UNL     1       1.210  -0.677  -0.013  0.00  0.00    +0.056 A 
ATOM     26  C   UNL     1       0.002  -0.004   0.002  0.00  0.00    +0.085 A 
ATOM     27 CL   UNL     1      -1.489  -0.893   0.011  0.00  0.00    -0.080 Cl
BRANCH  24  28
ATOM     28  N   UNL     1       3.688  -0.692  -0.037  0.00  0.00    +0.056 N 
ATOM     29  O   UNL     1       3.704  -1.910  -0.044  0.00  0.00    -0.126 OA
ATOM     30  O   UNL     1       4.735  -0.069  -0.044  0.00  0.00    -0.126 OA
ENDBRANCH  24  28
ENDBRANCH  20  21
ENDBRANCH  19  20
ENDBRANCH  11  19
TORSDOF 6
