REMARK  Name = ZINC09541972
REMARK  6 active torsions:
REMARK  status: ('A' for Active; 'I' for Inactive)
REMARK    1  A    between atoms: C_1  and  S_2
REMARK    2  A    between atoms: S_2  and  C_3
REMARK    3  A    between atoms: C_6  and  C_9
REMARK    4  A    between atoms: C_11  and  C_23
REMARK    5  A    between atoms: C_14  and  C_16
REMARK    6  A    between atoms: C_28  and  O_29
REMARK                            x       y       z     vdW  Elec       q    Type
REMARK                         _______ _______ _______ _____ _____    ______ ____
ROOT
ATOM      1  C   UNL     1      -0.774   1.527  -1.133  0.00  0.00    +0.081 C 
ATOM      2  C   UNL     1       1.356   1.551  -0.003  0.00  0.00    -0.028 C 
ATOM      3  C   UNL     1       1.273   3.054   0.281  0.00  0.00    +0.044 C 
ATOM      4  C   UNL     1       0.207   3.669  -0.583  0.00  0.00    +0.040 C 
ATOM      5  N   UNL     1      -0.684   2.980  -1.191  0.00  0.00    -0.299 NA
ATOM      6  N   UNL     1      -0.013   1.002   0.011  0.00  0.00    +0.401 N 
ATOM      7  H   UNL     1       0.030  -0.022  -0.050  0.00  0.00    -0.081 HD
ATOM      8  H   UNL     1      -0.480   1.273   0.884  0.00  0.00    -0.081 HD
ENDROOT
BRANCH   4   9
ATOM      9  C   UNL     1       0.188   5.137  -0.739  0.00  0.00    -0.003 A 
ATOM     10  C   UNL     1      -0.786   5.746  -1.533  0.00  0.00    +0.010 A 
ATOM     11  C   UNL     1      -0.798   7.118  -1.674  0.00  0.00    +0.002 A 
ATOM     12  C   UNL     1       0.151   7.891  -1.030  0.00  0.00    +0.015 A 
ATOM     13  C   UNL     1       1.119   7.295  -0.241  0.00  0.00    +0.018 A 
ATOM     14  C   UNL     1       1.140   5.923  -0.088  0.00  0.00    +0.025 A 
ATOM     15 BR   UNL     1       2.411   8.363   0.634  0.00  0.00    -0.050 Br
ENDBRANCH   4   9
BRANCH   1  19
ATOM     16  C   UNL     1      -4.873   0.387  -0.725  0.00  0.00    +0.008 A 
ATOM     17  C   UNL     1      -4.541   1.568  -1.378  0.00  0.00    +0.015 A 
ATOM     18  C   UNL     1      -3.215   1.933  -1.507  0.00  0.00    +0.005 A 
ATOM     19  C   UNL     1      -2.220   1.125  -0.989  0.00  0.00    -0.040 A 
ATOM     20  C   UNL     1      -2.547  -0.054  -0.344  0.00  0.00    +0.005 A 
ATOM     21  C   UNL     1      -3.870  -0.423  -0.206  0.00  0.00    +0.015 A 
BRANCH  16  23
ATOM     22  C   UNL     1      -6.494  -1.657   0.342  0.00  0.00    +0.090 C 
ATOM     23  S   UNL     1      -6.563  -0.084  -0.558  0.00  0.00    -0.129 S 
ENDBRANCH  16  23
ENDBRANCH   1  19
BRANCH   2  24
ATOM     24  C   UNL     1       2.181   0.877   1.063  0.00  0.00    -0.019 A 
ATOM     25  C   UNL     1       1.559   0.231   2.114  0.00  0.00    +0.005 A 
ATOM     26  C   UNL     1       2.315  -0.388   3.092  0.00  0.00    +0.000 A 
ATOM     27  C   UNL     1       3.696  -0.362   3.021  0.00  0.00    +0.004 A 
ATOM     28  C   UNL     1       4.323   0.281   1.972  0.00  0.00    +0.045 A 
ATOM     29  C   UNL     1       3.566   0.899   0.987  0.00  0.00    +0.118 A 
BRANCH  29  30
ATOM     30  O   UNL     1       4.181   1.529  -0.049  0.00  0.00    -0.507 OA
ATOM     31  H   UNL     1       4.372   2.462   0.116  0.00  0.00    +0.292 HD
ENDBRANCH  29  30
ENDBRANCH   2  24
TORSDOF 5
