REMARK  Name = ZINC39685949
REMARK  7 active torsions:
REMARK  status: ('A' for Active; 'I' for Inactive)
REMARK    1  A    between atoms: C_1  and  C_2
REMARK    2  A    between atoms: C_2  and  C_3
REMARK    3  A    between atoms: C_2  and  C_4
REMARK    4  A    between atoms: C_9  and  N_12
REMARK    5  A    between atoms: C_13  and  C_15
REMARK    6  A    between atoms: C_26  and  C_28
REMARK    7  A    between atoms: C_34  and  C_36
REMARK                            x       y       z     vdW  Elec       q    Type
REMARK                         _______ _______ _______ _____ _____    ______ ____
ROOT
ATOM      1  C   UNL     1       0.245   3.237   7.930  0.00  0.00    +0.100 C 
ATOM      2  C   UNL     1      -0.918   4.243   7.791  0.00  0.00    +0.121 C 
ATOM      3  N   UNL     1      -1.808   3.948   8.938  0.00  0.00    -0.299 N 
ATOM      4  C   UNL     1      -0.881   3.668  10.061  0.00  0.00    +0.115 C 
ATOM      5  C   UNL     1       0.269   2.864   9.422  0.00  0.00    -0.004 C 
ATOM      6  C   UNL     1       1.603   3.264  10.045  0.00  0.00    -0.010 C 
ATOM      7  C   UNL     1       1.625   2.831  11.514  0.00  0.00    -0.082 C 
ATOM      8  N   UNL     1       1.438   1.378  11.600  0.00  0.00    +0.379 N 
ATOM      9  C   UNL     1       0.114   1.012  11.084  0.00  0.00    -0.082 C 
ATOM     10  C   UNL     1       0.027   1.368   9.597  0.00  0.00    -0.010 C 
ATOM     11  C   UNL     1      -3.155   3.938   8.958  0.00  0.00    +0.236 C 
ATOM     12  O   UNL     1      -3.745   3.675   9.985  0.00  0.00    -0.274 OA
ATOM     13  H   UNL     1       2.150   0.915  11.055  0.00  0.00    -0.086 HD
ATOM     14  H   UNL     1       1.514   1.087  12.563  0.00  0.00    -0.086 HD
ENDROOT
BRANCH  11  15
ATOM     15  C   UNL     1      -3.930   4.253   7.704  0.00  0.00    +0.162 C 
ATOM     16  C   UNL     1      -3.995   5.780   7.497  0.00  0.00    +0.033 C 
ATOM     17  C   UNL     1      -5.434   5.996   6.958  0.00  0.00    +0.021 C 
ATOM     18  C   UNL     1      -6.226   4.923   7.746  0.00  0.00    +0.109 C 
ATOM     19  N   UNL     1      -5.311   3.766   7.834  0.00  0.00    -0.283 N 
ATOM     20  C   UNL     1      -5.679   2.481   8.005  0.00  0.00    +0.320 C 
ATOM     21  O   UNL     1      -4.835   1.612   8.062  0.00  0.00    -0.266 OA
BRANCH  20  22
ATOM     22  C   UNL     1      -7.138   2.124   8.123  0.00  0.00    +0.470 C 
ATOM     23  F   UNL     1      -7.268   0.742   8.293  0.00  0.00    -0.162 F 
ATOM     24  F   UNL     1      -7.691   2.783   9.227  0.00  0.00    -0.162 F 
ATOM     25  F   UNL     1      -7.810   2.517   6.961  0.00  0.00    -0.162 F 
ENDBRANCH  20  22
ENDBRANCH  11  15
BRANCH   1  27
ATOM     26  N   UNL     1       1.018   1.308   6.588  0.00  0.00    -0.312 N 
ATOM     27  C   UNL     1      -0.015   2.014   7.088  0.00  0.00    +0.218 C 
ATOM     28  O   UNL     1      -1.154   1.666   6.860  0.00  0.00    -0.275 OA
ATOM     29  H   UNL     1       1.929   1.586   6.770  0.00  0.00    +0.149 HD
BRANCH  26  35
ATOM     30  C   UNL     1       2.005  -3.655   4.723  0.00  0.00    +0.218 C 
ATOM     31  O   UNL     1       1.656  -4.615   5.376  0.00  0.00    -0.275 OA
ATOM     32  N   UNL     1       1.341  -2.487   4.834  0.00  0.00    -0.301 N 
ATOM     33  C   UNL     1       1.677  -1.350   3.967  0.00  0.00    +0.109 C 
ATOM     34  C   UNL     1       1.960  -0.127   4.845  0.00  0.00    +0.041 C 
ATOM     35  C   UNL     1       0.765   0.119   5.770  0.00  0.00    +0.076 C 
ATOM     36  C   UNL     1       0.565  -1.094   6.681  0.00  0.00    +0.041 C 
ATOM     37  C   UNL     1       0.263  -2.330   5.820  0.00  0.00    +0.109 C 
BRANCH  30  39
ATOM     38  C   UNL     1       4.439  -3.245   4.486  0.00  0.00    +0.017 C 
ATOM     39  C   UNL     1       3.181  -3.767   3.788  0.00  0.00    +0.069 C 
ATOM     40  C   UNL     1       3.385  -5.232   3.398  0.00  0.00    +0.017 C 
ENDBRANCH  30  39
ENDBRANCH  26  35
ENDBRANCH   1  27
TORSDOF 5
