REMARK  Name = ZINC54642874
REMARK  12 active torsions:
REMARK  status: ('A' for Active; 'I' for Inactive)
REMARK    1  A    between atoms: C_1  and  C_2
REMARK    2  A    between atoms: C_2  and  C_3
REMARK    3  A    between atoms: C_3  and  O_4
REMARK    4  A    between atoms: O_4  and  C_5
REMARK    5  A    between atoms: C_8  and  C_11
REMARK    6  A    between atoms: C_13  and  C_30
REMARK    7  A    between atoms: C_14  and  C_29
REMARK    8  A    between atoms: C_19  and  S_21
REMARK    9  A    between atoms: S_21  and  C_22
REMARK   10  A    between atoms: C_22  and  C_23
REMARK   11  A    between atoms: N_32  and  C_33
REMARK   12  A    between atoms: C_38  and  C_39
REMARK                            x       y       z     vdW  Elec       q    Type
REMARK                         _______ _______ _______ _____ _____    ______ ____
ROOT
ATOM      1  C   UNL     1       3.306  -4.426  -5.754  0.00  0.00    +0.177 C 
ATOM      2  C   UNL     1       4.423  -5.264  -5.192  0.00  0.00    +0.060 C 
ATOM      3  C   UNL     1       4.382  -6.604  -5.148  0.00  0.00    +0.018 C 
ATOM      4  N   UNL     1       3.312  -7.320  -5.626  0.00  0.00    -0.287 N 
ATOM      5  C   UNL     1       2.382  -6.638  -6.399  0.00  0.00    +0.219 A 
ATOM      6  N   UNL     1       2.368  -5.285  -6.474  0.00  0.00    -0.220 N 
ATOM      7  N   UNL     1       1.325  -4.942  -7.333  0.00  0.00    -0.141 NA
ATOM      8  C   UNL     1       0.769  -6.069  -7.722  0.00  0.00    +0.211 A 
ATOM      9  N   UNL     1       1.415  -7.096  -7.149  0.00  0.00    -0.187 NA
ATOM     10  C   UNL     1       5.549  -7.349  -4.553  0.00  0.00    +0.061 C 
ATOM     11  H   UNL     1       3.210  -8.264  -5.431  0.00  0.00    +0.155 HD
ENDROOT
BRANCH   1  15
ATOM     12  C   UNL     1       1.264  -2.450  -2.563  0.00  0.00    +0.121 A 
ATOM     13  C   UNL     1       1.873  -1.707  -3.563  0.00  0.00    +0.046 A 
ATOM     14  C   UNL     1       2.533  -2.348  -4.594  0.00  0.00    +0.009 A 
ATOM     15  C   UNL     1       2.586  -3.729  -4.628  0.00  0.00    -0.018 A 
ATOM     16  C   UNL     1       1.979  -4.472  -3.633  0.00  0.00    +0.009 A 
ATOM     17  C   UNL     1       1.323  -3.835  -2.597  0.00  0.00    +0.046 A 
BRANCH  12  18
ATOM     18  O   UNL     1       0.615  -1.821  -1.548  0.00  0.00    -0.492 OA
BRANCH  18  19
ATOM     19  C   UNL     1       0.594  -0.392  -1.577  0.00  0.00    +0.229 C 
BRANCH  19  21
ATOM     20  C   UNL     1      -0.198   1.661  -0.395  0.00  0.00    +0.007 C 
ATOM     21  C   UNL     1      -0.176   0.132  -0.363  0.00  0.00    +0.038 C 
ENDBRANCH  19  21
ENDBRANCH  18  19
ENDBRANCH  12  18
ENDBRANCH   1  15
BRANCH   2  22
ATOM     22  C   UNL     1       5.570  -4.608  -4.688  0.00  0.00    +0.248 C 
ATOM     23  O   UNL     1       6.428  -4.206  -5.454  0.00  0.00    -0.270 OA
ATOM     24  N   UNL     1       5.714  -4.427  -3.360  0.00  0.00    -0.281 N 
ATOM     25  H   UNL     1       5.064  -4.803  -2.746  0.00  0.00    +0.155 HD
BRANCH  24  26
ATOM     26  C   UNL     1       6.801  -3.698  -2.868  0.00  0.00    +0.037 A 
ATOM     27  C   UNL     1       8.032  -3.765  -3.508  0.00  0.00    +0.023 A 
ATOM     28  C   UNL     1       9.103  -3.043  -3.019  0.00  0.00    +0.002 A 
ATOM     29  C   UNL     1       8.951  -2.254  -1.893  0.00  0.00    +0.000 A 
ATOM     30  C   UNL     1       7.727  -2.185  -1.254  0.00  0.00    +0.005 A 
ATOM     31  C   UNL     1       6.650  -2.900  -1.741  0.00  0.00    -0.029 A 
ATOM     32  C   UNL     1       5.314  -2.819  -1.047  0.00  0.00    +0.045 C 
ENDBRANCH  24  26
ENDBRANCH   2  22
BRANCH   8  33
ATOM     33  S   UNL     1      -0.603  -6.208  -8.818  0.00  0.00    -0.080 S 
BRANCH  33  34
ATOM     34  C   UNL     1      -0.880  -7.996  -8.950  0.00  0.00    +0.112 C 
BRANCH  34  35
ATOM     35  C   UNL     1      -2.043  -8.258  -9.872  0.00  0.00    -0.037 A 
ATOM     36  C   UNL     1      -3.327  -8.324  -9.363  0.00  0.00    +0.004 A 
ATOM     37  C   UNL     1      -4.394  -8.564 -10.209  0.00  0.00    +0.000 A 
ATOM     38  C   UNL     1      -4.177  -8.737 -11.563  0.00  0.00    +0.000 A 
ATOM     39  C   UNL     1      -2.894  -8.669 -12.072  0.00  0.00    +0.000 A 
ATOM     40  C   UNL     1      -1.827  -8.425 -11.227  0.00  0.00    +0.004 A 
ENDBRANCH  34  35
ENDBRANCH  33  34
ENDBRANCH   8  33
TORSDOF 9
