REMARK  Name = ZINC31632891
REMARK  5 active torsions:
REMARK  status: ('A' for Active; 'I' for Inactive)
REMARK    1  A    between atoms: C_1  and  C_2
REMARK    2  A    between atoms: C_9  and  C_13
REMARK    3  A    between atoms: C_13  and  N_14
REMARK    4  A    between atoms: C_17  and  C_21
REMARK    5  A    between atoms: C_17  and  C_22
REMARK                            x       y       z     vdW  Elec       q    Type
REMARK                         _______ _______ _______ _____ _____    ______ ____
ROOT
ATOM      1  N   UNL     1       4.701   5.221   1.196  0.00  0.00    -0.218 N 
ATOM      2  C   UNL     1       4.390   6.167   2.105  0.00  0.00    +0.251 C 
ATOM      3  O   UNL     1       3.684   7.139   1.938  0.00  0.00    -0.272 OA
ATOM      4  C   UNL     1       5.104   5.761   3.379  0.00  0.00    +0.136 C 
ATOM      5  N   UNL     1       5.806   4.522   3.003  0.00  0.00    -0.281 N 
ATOM      6  C   UNL     1       5.510   4.289   1.712  0.00  0.00    +0.310 C 
ATOM      7  O   UNL     1       5.930   3.337   1.084  0.00  0.00    -0.252 OA
ATOM      8  C   UNL     1       6.104   6.841   3.798  0.00  0.00    +0.047 C 
ATOM      9  H   UNL     1       6.423   3.993   3.744  0.00  0.00    +0.152 HD
ENDROOT
BRANCH   4  10
ATOM     10  C   UNL     1       4.118   5.497   4.487  0.00  0.00    -0.008 A 
ATOM     11  C   UNL     1       4.018   4.253   5.031  0.00  0.00    +0.007 A 
ATOM     12  C   UNL     1       3.111   3.989   6.056  0.00  0.00    +0.001 A 
ATOM     13  C   UNL     1       2.300   4.967   6.544  0.00  0.00    +0.008 A 
ATOM     14  C   UNL     1       2.375   6.264   6.008  0.00  0.00    -0.018 A 
ATOM     15  C   UNL     1       3.301   6.534   4.968  0.00  0.00    -0.012 A 
ATOM     16  C   UNL     1       3.371   7.829   4.428  0.00  0.00    +0.009 A 
ATOM     17  C   UNL     1       2.560   8.807   4.915  0.00  0.00    +0.001 A 
ATOM     18  C   UNL     1       1.654   8.543   5.941  0.00  0.00    +0.001 A 
ATOM     19  C   UNL     1       1.554   7.300   6.484  0.00  0.00    +0.008 A 
ENDBRANCH   4  10
BRANCH   1  20
ATOM     20  C   UNL     1       4.218   5.219  -0.187  0.00  0.00    +0.173 C 
BRANCH  20  29
ATOM     21  C   UNL     1       3.084   0.401   0.590  0.00  0.00    +0.047 C 
ATOM     22  C   UNL     1       1.791   1.080   0.220  0.00  0.00    -0.008 A 
ATOM     23  C   UNL     1       0.633   0.364   0.158  0.00  0.00    +0.008 A 
ATOM     24  C   UNL     1      -0.561   1.010  -0.194  0.00  0.00    +0.019 A 
ATOM     25  C   UNL     1      -0.564   2.336  -0.459  0.00  0.00    +0.096 A 
ATOM     26  N   UNL     1       0.588   3.060  -0.399  0.00  0.00    -0.268 N 
ATOM     27  C   UNL     1       1.769   2.458  -0.064  0.00  0.00    +0.143 A 
ATOM     28  N   UNL     1       2.900   3.158  -0.004  0.00  0.00    -0.232 NA
ATOM     29  C   UNL     1       2.921   4.456  -0.264  0.00  0.00    +0.067 A 
ATOM     30  C   UNL     1       1.754   5.112  -0.607  0.00  0.00    +0.095 A 
ATOM     31  C   UNL     1       0.562   4.382  -0.672  0.00  0.00    +0.259 A 
ATOM     32  O   UNL     1      -0.486   4.932  -0.972  0.00  0.00    -0.267 OA
ENDBRANCH  20  29
ENDBRANCH   1  20
TORSDOF 3
