REMARK  Name = ZINC09428682
REMARK  7 active torsions:
REMARK  status: ('A' for Active; 'I' for Inactive)
REMARK    1  A    between atoms: C_3  and  C_10
REMARK    2  A    between atoms: C_5  and  N_7
REMARK    3  A    between atoms: C_10  and  C_12
REMARK    4  A    between atoms: N_16  and  C_26
REMARK    5  A    between atoms: C_17  and  C_19
REMARK    6  A    between atoms: C_22  and  O_25
REMARK    7  A    between atoms: C_26  and  C_27
REMARK                            x       y       z     vdW  Elec       q    Type
REMARK                         _______ _______ _______ _____ _____    ______ ____
ROOT
ATOM      1  C   UNL     1      -3.889   6.092   0.000  0.00  0.00    +0.076 C 
ATOM      2  C   UNL     1      -4.144   7.420  -0.068  0.00  0.00    +0.249 C 
ATOM      3  C   UNL     1      -5.607   7.631  -0.110  0.00  0.00    +0.288 C 
ATOM      4  O   UNL     1      -6.154   8.714  -0.176  0.00  0.00    -0.266 OA
ATOM      5  N   UNL     1      -6.244   6.447  -0.057  0.00  0.00    -0.276 N 
ATOM      6  C   UNL     1      -5.227   5.391   0.016  0.00  0.00    +0.145 C 
ATOM      7  O   UNL     1      -3.210   8.397  -0.098  0.00  0.00    -0.282 OA
ENDROOT
BRANCH   6   8
ATOM      8  C   UNL     1      -5.346   4.474  -1.175  0.00  0.00    -0.022 A 
ATOM      9  C   UNL     1      -5.561   5.004  -2.434  0.00  0.00    +0.009 A 
ATOM     10  C   UNL     1      -5.664   4.166  -3.528  0.00  0.00    +0.046 A 
ATOM     11  C   UNL     1      -5.563   2.793  -3.361  0.00  0.00    +0.117 A 
ATOM     12  C   UNL     1      -5.353   2.264  -2.096  0.00  0.00    +0.046 A 
ATOM     13  C   UNL     1      -5.245   3.106  -1.006  0.00  0.00    +0.009 A 
BRANCH  11  14
ATOM     14  O   UNL     1      -5.669   1.967  -4.435  0.00  0.00    -0.507 OA
ATOM     15  H   UNL     1      -5.589   0.878  -4.301  0.00  0.00    +0.292 HD
ENDBRANCH  11  14
ENDBRANCH   6   8
BRANCH   1  16
ATOM     16  C   UNL     1      -2.569   5.457   0.056  0.00  0.00    +0.195 C 
ATOM     17  O   UNL     1      -1.816   5.535  -0.897  0.00  0.00    -0.287 OA
BRANCH  16  20
ATOM     18  C   UNL     1      -2.585   4.010   3.522  0.00  0.00    +0.003 A 
ATOM     19  C   UNL     1      -2.981   4.697   2.393  0.00  0.00    +0.012 A 
ATOM     20  C   UNL     1      -2.151   4.724   1.270  0.00  0.00    +0.024 A 
ATOM     21  C   UNL     1      -0.923   4.059   1.300  0.00  0.00    +0.044 A 
ATOM     22  C   UNL     1      -0.543   3.372   2.433  0.00  0.00    +0.127 A 
ATOM     23  C   UNL     1      -1.370   3.349   3.543  0.00  0.00    +0.033 A 
BRANCH  22  24
ATOM     24  N   UNL     1       0.756   2.662   2.466  0.00  0.00    +0.056 N 
ATOM     25  O   UNL     1       1.095   2.058   3.467  0.00  0.00    -0.126 OA
ATOM     26  O   UNL     1       1.482   2.677   1.488  0.00  0.00    -0.126 OA
ENDBRANCH  22  24
ENDBRANCH  16  20
ENDBRANCH   1  16
BRANCH   5  27
ATOM     27  C   UNL     1      -7.695   6.247  -0.070  0.00  0.00    +0.183 C 
BRANCH  27  28
ATOM     28  C   UNL     1      -8.216   6.253   1.344  0.00  0.00    +0.122 A 
ATOM     29  C   UNL     1      -8.631   7.337   2.024  0.00  0.00    +0.046 A 
ATOM     30  C   UNL     1      -9.035   6.888   3.302  0.00  0.00    +0.041 A 
ATOM     31  C   UNL     1      -8.835   5.558   3.330  0.00  0.00    +0.195 A 
ATOM     32  O   UNL     1      -8.339   5.179   2.141  0.00  0.00    -0.466 OA
ENDBRANCH  27  28
ENDBRANCH   5  27
TORSDOF 7
