REMARK  Name = ZINC46583471
REMARK  8 active torsions:
REMARK  status: ('A' for Active; 'I' for Inactive)
REMARK    1  A    between atoms: C_1  and  C_2
REMARK    2  A    between atoms: C_2  and  C_4
REMARK    3  A    between atoms: C_2  and  N_11
REMARK    4  A    between atoms: N_11  and  C_12
REMARK    5  A    between atoms: N_11  and  C_13
REMARK    6  A    between atoms: C_13  and  C_14
REMARK    7  A    between atoms: C_23  and  S_25
REMARK    8  A    between atoms: S_25  and  N_28
REMARK                            x       y       z     vdW  Elec       q    Type
REMARK                         _______ _______ _______ _____ _____    ______ ____
ROOT
ATOM      1  C   UNL     1       2.782  -0.379   2.461  0.00  0.00    +0.203 C 
ATOM      2  O   UNL     1       2.186  -1.021   3.299  0.00  0.00    -0.277 OA
ATOM      3  N   UNL     1       4.063  -0.019   2.674  0.00  0.00    -0.272 N 
ATOM      4  C   UNL     1       4.883   0.761   1.742  0.00  0.00    +0.118 C 
ATOM      5  C   UNL     1       6.249   0.906   2.432  0.00  0.00    +0.056 C 
ATOM      6  C   UNL     1       6.093   0.174   3.745  0.00  0.00    -0.023 A 
ATOM      7  C   UNL     1       4.803  -0.329   3.819  0.00  0.00    +0.040 A 
ATOM      8  C   UNL     1       4.419  -1.046   4.953  0.00  0.00    +0.026 A 
ATOM      9  C   UNL     1       5.312  -1.244   5.986  0.00  0.00    +0.030 A 
ATOM     10  C   UNL     1       6.594  -0.735   5.904  0.00  0.00    +0.105 A 
ATOM     11  C   UNL     1       6.985  -0.031   4.780  0.00  0.00    +0.034 A 
ENDROOT
BRANCH  10  12
ATOM     12  S   UNL     1       7.731  -0.990   7.226  0.00  0.00    +0.056 S 
ATOM     13  O   UNL     1       8.693   0.054   7.142  0.00  0.00    -0.153 OA
ATOM     14  O   UNL     1       6.954  -1.216   8.393  0.00  0.00    -0.153 OA
BRANCH  12  15
ATOM     15  N   UNL     1       8.537  -2.402   6.913  0.00  0.00    -0.204 NA
ATOM     16  H   UNL     1       8.332  -2.910   6.112  0.00  0.00    +0.144 HD
ATOM     17  H   UNL     1       9.214  -2.721   7.530  0.00  0.00    +0.144 HD
ENDBRANCH  12  15
ENDBRANCH  10  12
BRANCH   1  18
ATOM     18  C   UNL     1       2.091   0.018   1.182  0.00  0.00    +0.020 C 
BRANCH  18  19
ATOM     19  N   UNL     1       0.713  -0.491   1.192  0.00  0.00    +0.388 N 
ATOM     20  C   UNL     1       0.733  -1.960   1.184  0.00  0.00    -0.095 C 
ATOM     21  H   UNL     1       0.240  -0.165   2.022  0.00  0.00    -0.081 HD
BRANCH  19  23
ATOM     22  C   UNL     1      -0.019   1.526   0.010  0.00  0.00    -0.008 C 
ATOM     23  C   UNL     1       0.002  -0.004   0.002  0.00  0.00    -0.041 C 
BRANCH  23  24
ATOM     24  C   UNL     1      -1.412  -0.526   0.013  0.00  0.00    -0.061 A 
ATOM     25  C   UNL     1      -2.123  -0.571   1.198  0.00  0.00    +0.003 A 
ATOM     26  C   UNL     1      -3.419  -1.049   1.208  0.00  0.00    +0.020 A 
ATOM     27  C   UNL     1      -4.006  -1.483   0.032  0.00  0.00    +0.041 A 
ATOM     28  C   UNL     1      -3.294  -1.437  -1.153  0.00  0.00    +0.020 A 
ATOM     29  C   UNL     1      -1.999  -0.954  -1.163  0.00  0.00    +0.003 A 
ATOM     30 CL   UNL     1      -5.634  -2.084   0.045  0.00  0.00    -0.084 Cl
ENDBRANCH  23  24
ENDBRANCH  19  23
ENDBRANCH  18  19
ENDBRANCH   1  18
TORSDOF 6
