REMARK  Name = ZINC63830595
REMARK  8 active torsions:
REMARK  status: ('A' for Active; 'I' for Inactive)
REMARK    1  A    between atoms: C_7  and  C_10
REMARK    2  A    between atoms: C_10  and  C_11
REMARK    3  A    between atoms: C_11  and  N_12
REMARK    4  A    between atoms: C_13  and  C_15
REMARK    5  A    between atoms: C_15  and  S_16
REMARK    6  A    between atoms: S_16  and  C_17
REMARK    7  A    between atoms: N_27  and  C_28
REMARK    8  A    between atoms: C_28  and  C_29
REMARK                            x       y       z     vdW  Elec       q    Type
REMARK                         _______ _______ _______ _____ _____    ______ ____
ROOT
ATOM      1  S   UNL     1      -2.029  -7.112  -4.326  0.00  0.00    -0.078 S 
ENDROOT
BRANCH   1   2
ATOM      2  C   UNL     1      -3.134  -8.474  -4.157  0.00  0.00    +0.173 A 
ATOM      3  N   UNL     1      -3.529  -8.812  -2.954  0.00  0.00    -0.223 NA
ATOM      4  C   UNL     1      -4.377  -9.848  -2.753  0.00  0.00    +0.080 A 
ATOM      5  C   UNL     1      -4.799 -10.210  -1.471  0.00  0.00    +0.048 A 
ATOM      6  C   UNL     1      -5.664 -11.271  -1.315  0.00  0.00    +0.043 A 
ATOM      7  C   UNL     1      -6.121 -11.985  -2.417  0.00  0.00    +0.021 A 
ATOM      8  C   UNL     1      -5.722 -11.650  -3.681  0.00  0.00    +0.017 A 
ATOM      9  C   UNL     1      -4.847 -10.580  -3.867  0.00  0.00    +0.065 A 
ATOM     10  C   UNL     1      -4.388 -10.178  -5.204  0.00  0.00    +0.262 A 
ATOM     11  O   UNL     1      -4.758 -10.769  -6.202  0.00  0.00    -0.267 OA
ATOM     12  N   UNL     1      -3.544  -9.124  -5.286  0.00  0.00    -0.285 N 
ATOM     13 CL   UNL     1      -6.189 -11.723   0.277  0.00  0.00    -0.083 Cl
BRANCH  12  14
ATOM     14  C   UNL     1      -3.062  -8.680  -6.596  0.00  0.00    +0.159 C 
BRANCH  14  15
ATOM     15  C   UNL     1      -1.770  -9.423  -6.942  0.00  0.00    +0.138 C 
ATOM     16  C   UNL     1      -1.189  -8.876  -8.264  0.00  0.00    +0.035 C 
ATOM     17  C   UNL     1      -0.674 -10.166  -8.957  0.00  0.00    +0.031 C 
ATOM     18  C   UNL     1      -1.730 -11.197  -8.483  0.00  0.00    +0.160 C 
ATOM     19  O   UNL     1      -2.047 -10.816  -7.133  0.00  0.00    -0.375 OA
ENDBRANCH  14  15
ENDBRANCH  12  14
ENDBRANCH   1   2
BRANCH   1  20
ATOM     20  C   UNL     1      -1.752  -6.557  -2.622  0.00  0.00    +0.173 C 
BRANCH  20  22
ATOM     21  N   UNL     1      -0.458  -4.798  -1.460  0.00  0.00    -0.314 N 
ATOM     22  C   UNL     1      -0.811  -5.380  -2.623  0.00  0.00    +0.223 C 
ATOM     23  O   UNL     1      -0.371  -4.957  -3.671  0.00  0.00    -0.275 OA
ATOM     24  H   UNL     1      -0.810  -5.136  -0.622  0.00  0.00    +0.149 HD
BRANCH  21  25
ATOM     25  C   UNL     1       0.457  -3.653  -1.462  0.00  0.00    +0.108 C 
BRANCH  25  26
ATOM     26  C   UNL     1       0.691  -3.186  -0.024  0.00  0.00    +0.052 C 
BRANCH  26  33
ATOM     27  C   UNL     1      -0.016   1.348   0.009  0.00  0.00    +0.001 A 
ATOM     28  C   UNL     1       1.166   2.101   0.002  0.00  0.00    +0.002 A 
ATOM     29  C   UNL     1       2.391   1.535  -0.013  0.00  0.00    +0.026 A 
ATOM     30  C   UNL     1       2.529   0.120  -0.022  0.00  0.00    +0.043 A 
ATOM     31  N   UNL     1       3.587  -0.654  -0.037  0.00  0.00    -0.380 N 
ATOM     32  C   UNL     1       3.143  -2.053  -0.041  0.00  0.00    +0.144 C 
ATOM     33  C   UNL     1       1.631  -2.008  -0.025  0.00  0.00    -0.040 C 
ATOM     34  C   UNL     1       1.295  -0.698  -0.014  0.00  0.00    -0.001 A 
ATOM     35  C   UNL     1       0.002  -0.004   0.002  0.00  0.00    +0.010 A 
ATOM     36  H   UNL     1       4.509  -0.353  -0.045  0.00  0.00    +0.160 HD
ENDBRANCH  26  33
ENDBRANCH  25  26
ENDBRANCH  21  25
ENDBRANCH  20  22
ENDBRANCH   1  20
TORSDOF 8
