REMARK  Name = ZINC36013916
REMARK  16 active torsions:
REMARK  status: ('A' for Active; 'I' for Inactive)
REMARK    1  A    between atoms: C_1  and  C_2
REMARK    2  A    between atoms: C_2  and  O_3
REMARK    3  A    between atoms: O_3  and  C_4
REMARK    4  A    between atoms: C_4  and  C_6
REMARK    5  A    between atoms: C_7  and  C_25
REMARK    6  A    between atoms: N_8  and  C_24
REMARK    7  A    between atoms: C_12  and  C_14
REMARK    8  A    between atoms: C_18  and  O_22
REMARK    9  A    between atoms: C_19  and  O_20
REMARK   10  A    between atoms: O_20  and  C_21
REMARK   11  A    between atoms: O_22  and  C_23
REMARK   12  A    between atoms: C_25  and  N_26
REMARK   13  A    between atoms: C_30  and  C_33
REMARK   14  A    between atoms: N_36  and  C_37
REMARK   15  A    between atoms: C_37  and  C_38
REMARK   16  A    between atoms: C_37  and  C_39
REMARK                            x       y       z     vdW  Elec       q    Type
REMARK                         _______ _______ _______ _____ _____    ______ ____
ROOT
ATOM      1  C   UNL     1      -2.878  -2.179  -0.003  0.00  0.00    +0.080 C 
ATOM      2  C   UNL     1      -3.083  -3.513  -0.050  0.00  0.00    +0.041 C 
ATOM      3  N   UNL     1      -4.344  -4.031  -0.118  0.00  0.00    -0.260 N 
ATOM      4  C   UNL     1      -5.454  -3.283  -0.145  0.00  0.00    +0.307 C 
ATOM      5  O   UNL     1      -6.535  -3.835  -0.207  0.00  0.00    -0.252 OA
ATOM      6  N   UNL     1      -5.412  -1.936  -0.106  0.00  0.00    -0.288 N 
ATOM      7  C   UNL     1      -4.097  -1.278  -0.024  0.00  0.00    +0.147 C 
ATOM      8  C   UNL     1      -4.492  -5.488  -0.166  0.00  0.00    +0.139 C 
ATOM      9  H   UNL     1      -6.228  -1.413  -0.127  0.00  0.00    +0.151 HD
ENDROOT
BRANCH   7  10
ATOM     10  C   UNL     1      -3.971  -0.354  -1.208  0.00  0.00    +0.023 A 
ATOM     11  C   UNL     1      -3.131  -0.684  -2.256  0.00  0.00    +0.009 A 
ATOM     12  C   UNL     1      -3.014   0.161  -3.344  0.00  0.00    +0.004 A 
ATOM     13  C   UNL     1      -3.734   1.341  -3.388  0.00  0.00    +0.049 A 
ATOM     14  C   UNL     1      -4.577   1.677  -2.341  0.00  0.00    +0.162 A 
ATOM     15  C   UNL     1      -4.700   0.823  -1.249  0.00  0.00    +0.167 A 
BRANCH  15  16
ATOM     16  O   UNL     1      -5.530   1.146  -0.221  0.00  0.00    -0.491 OA
ATOM     17  C   UNL     1      -5.004   2.004   0.792  0.00  0.00    +0.277 C 
ENDBRANCH  15  16
BRANCH  14  18
ATOM     18  O   UNL     1      -5.286   2.836  -2.383  0.00  0.00    -0.491 OA
ATOM     19  C   UNL     1      -5.114   3.661  -3.537  0.00  0.00    +0.277 C 
ENDBRANCH  14  18
ENDBRANCH   7  10
BRANCH   1  20
ATOM     20  C   UNL     1      -1.572  -1.641   0.069  0.00  0.00    +0.339 C 
ATOM     21  O   UNL     1      -1.164  -1.173   1.115  0.00  0.00    -0.245 OA
BRANCH  20  22
ATOM     22  O   UNL     1      -0.779  -1.647  -1.023  0.00  0.00    -0.462 OA
BRANCH  22  24
ATOM     23  C   UNL     1       1.267  -1.153  -2.210  0.00  0.00    +0.048 C 
ATOM     24  C   UNL     1       0.564  -1.190  -0.852  0.00  0.00    +0.229 C 
ENDBRANCH  22  24
ENDBRANCH  20  22
ENDBRANCH   1  20
BRANCH   2  25
ATOM     25  C   UNL     1      -1.899  -4.445  -0.025  0.00  0.00    +0.136 C 
BRANCH  25  26
ATOM     26  N   UNL     1      -1.936  -5.253   1.201  0.00  0.00    -0.294 NA
ATOM     27  C   UNL     1      -1.752  -4.412   2.391  0.00  0.00    +0.104 C 
ATOM     28  C   UNL     1      -1.977  -5.256   3.650  0.00  0.00    +0.125 C 
ATOM     29  N   UNL     1      -1.104  -6.438   3.582  0.00  0.00    -0.280 N 
ATOM     30  C   UNL     1      -1.132  -7.255   2.359  0.00  0.00    +0.088 C 
ATOM     31  C   UNL     1      -0.940  -6.332   1.152  0.00  0.00    +0.107 C 
ATOM     32  C   UNL     1      -0.005  -8.289   2.406  0.00  0.00    +0.029 C 
ATOM     33  C   UNL     1      -0.299  -6.763   4.613  0.00  0.00    +0.303 C 
ATOM     34  O   UNL     1       0.485  -7.686   4.504  0.00  0.00    -0.253 OA
ATOM     35  N   UNL     1      -0.362  -6.064   5.764  0.00  0.00    -0.297 N 
ATOM     36  H   UNL     1      -1.038  -5.377   5.877  0.00  0.00    +0.150 HD
BRANCH  35  37
ATOM     37  C   UNL     1       0.588  -6.343   6.843  0.00  0.00    +0.068 C 
ATOM     38  C   UNL     1       1.876  -5.553   6.606  0.00  0.00    +0.027 C 
ATOM     39  C   UNL     1      -0.025  -5.929   8.182  0.00  0.00    +0.027 C 
ENDBRANCH  35  37
ENDBRANCH  25  26
ENDBRANCH   2  25
TORSDOF 9
