REMARK  Name = ZINC35576415
REMARK  5 active torsions:
REMARK  status: ('A' for Active; 'I' for Inactive)
REMARK    1  A    between atoms: C_1  and  O_2
REMARK    2  A    between atoms: O_2  and  C_3
REMARK    3  A    between atoms: C_6  and  C_10
REMARK    4  A    between atoms: C_12  and  N_31
REMARK    5  A    between atoms: N_13  and  C_24
REMARK                            x       y       z     vdW  Elec       q    Type
REMARK                         _______ _______ _______ _____ _____    ______ ____
ROOT
ATOM      1  C   UNL     1       2.287  -2.516  -4.472  0.00  0.00    +0.091 A 
ATOM      2  C   UNL     1       2.552  -3.905  -4.461  0.00  0.00    +0.086 A 
ATOM      3  C   UNL     1       2.309  -4.957  -3.587  0.00  0.00    +0.131 A 
ATOM      4  N   UNL     1       2.814  -6.074  -4.147  0.00  0.00    -0.216 N 
ATOM      5  N   UNL     1       3.389  -5.768  -5.386  0.00  0.00    -0.144 NA
ATOM      6  C   UNL     1       3.258  -4.481  -5.620  0.00  0.00    +0.189 A 
ATOM      7  N   UNL     1       3.608  -3.649  -6.620  0.00  0.00    -0.193 NA
ATOM      8  C   UNL     1       3.322  -2.365  -6.549  0.00  0.00    +0.220 A 
ATOM      9  N   UNL     1       2.682  -1.810  -5.525  0.00  0.00    -0.213 NA
ATOM     10  N   UNL     1       3.703  -1.551  -7.601  0.00  0.00    -0.300 N 
ATOM     11  C   UNL     1       3.473  -0.101  -7.689  0.00  0.00    +0.108 C 
ATOM     12  C   UNL     1       4.042   0.371  -9.043  0.00  0.00    +0.020 C 
ATOM     13  C   UNL     1       4.054  -0.930  -9.889  0.00  0.00    +0.020 C 
ATOM     14  C   UNL     1       4.411  -1.992  -8.816  0.00  0.00    +0.108 C 
ENDROOT
BRANCH   1  18
ATOM     15  C   UNL     1       0.264  -0.655  -1.231  0.00  0.00    +0.123 A 
ATOM     16  C   UNL     1       1.442  -1.357  -1.003  0.00  0.00    +0.046 A 
ATOM     17  C   UNL     1       2.100  -1.961  -2.051  0.00  0.00    +0.016 A 
ATOM     18  C   UNL     1       1.583  -1.869  -3.345  0.00  0.00    +0.037 A 
ATOM     19  C   UNL     1       0.398  -1.163  -3.571  0.00  0.00    +0.136 A 
ATOM     20  C   UNL     1      -0.259  -0.565  -2.514  0.00  0.00    +0.084 A 
ATOM     21  F   UNL     1      -0.107  -1.070  -4.821  0.00  0.00    -0.205 F 
BRANCH  15  23
ATOM     22  C   UNL     1       0.211  -0.193   1.100  0.00  0.00    +0.277 C 
ATOM     23  O   UNL     1      -0.381  -0.061  -0.194  0.00  0.00    -0.495 OA
ENDBRANCH  15  23
ENDBRANCH   1  18
BRANCH   4  24
ATOM     24  C   UNL     1       2.770  -7.351  -3.574  0.00  0.00    +0.070 A 
ATOM     25  C   UNL     1       2.876  -7.500  -2.197  0.00  0.00    +0.028 A 
ATOM     26  C   UNL     1       2.832  -8.761  -1.634  0.00  0.00    +0.005 A 
ATOM     27  C   UNL     1       2.683  -9.875  -2.439  0.00  0.00    +0.038 A 
ATOM     28  C   UNL     1       2.579  -9.731  -3.813  0.00  0.00    +0.125 A 
ATOM     29  C   UNL     1       2.616  -8.470  -4.381  0.00  0.00    +0.066 A 
ATOM     30  F   UNL     1       2.434 -10.821  -4.597  0.00  0.00    -0.205 F 
ENDBRANCH   4  24
BRANCH   3  31
ATOM     31  N   UNL     1       1.668  -4.873  -2.365  0.00  0.00    -0.342 N 
ATOM     32  H   UNL     1       1.343  -4.017  -2.046  0.00  0.00    +0.144 HD
ATOM     33  H   UNL     1       1.542  -5.671  -1.828  0.00  0.00    +0.144 HD
ENDBRANCH   3  31
TORSDOF 4
