REMARK  Name = ZINC66826861
REMARK  8 active torsions:
REMARK  status: ('A' for Active; 'I' for Inactive)
REMARK    1  A    between atoms: C_1  and  C_2
REMARK    2  A    between atoms: C_3  and  C_16
REMARK    3  A    between atoms: C_8  and  C_10
REMARK    4  A    between atoms: C_10  and  C_12
REMARK    5  A    between atoms: C_10  and  C_13
REMARK    6  A    between atoms: C_13  and  S_14
REMARK    7  A    between atoms: S_14  and  C_15
REMARK    8  A    between atoms: N_21  and  C_22
REMARK                            x       y       z     vdW  Elec       q    Type
REMARK                         _______ _______ _______ _____ _____    ______ ____
ROOT
ATOM      1  C   UNL     1       0.787   1.518  -0.086  0.00  0.00    +0.067 C 
ATOM      2  C   UNL     1       0.822   0.012  -0.096  0.00  0.00    +0.058 A 
ATOM      3  C   UNL     1       0.570  -0.708  -1.238  0.00  0.00    +0.081 A 
ATOM      4  S   UNL     1       0.755  -2.375  -0.625  0.00  0.00    -0.049 S 
ATOM      5  C   UNL     1       1.122  -1.997   0.973  0.00  0.00    +0.165 A 
ATOM      6  N   UNL     1       1.100  -0.680   0.988  0.00  0.00    -0.229 NA
ATOM      7  N   UNL     1       1.390  -2.865   2.023  0.00  0.00    -0.264 N 
ATOM      8  C   UNL     1       1.667  -2.375   3.248  0.00  0.00    +0.222 C 
ATOM      9  O   UNL     1       1.683  -1.177   3.433  0.00  0.00    -0.275 OA
ATOM     10  H   UNL     1       1.378  -3.823   1.875  0.00  0.00    +0.157 HD
ENDROOT
BRANCH   3  11
ATOM     11  C   UNL     1       0.239  -0.236  -2.591  0.00  0.00    +0.174 A 
ATOM     12  N   UNL     1       0.123   1.016  -2.977  0.00  0.00    -0.128 NA
ATOM     13  N   UNL     1      -0.175   1.065  -4.226  0.00  0.00    -0.121 NA
ATOM     14  C   UNL     1      -0.268  -0.149  -4.717  0.00  0.00    +0.203 A 
ATOM     15  S   UNL     1      -0.655  -0.576  -6.382  0.00  0.00    -0.009 SA
ATOM     16  N   UNL     1      -0.003  -1.021  -3.696  0.00  0.00    -0.298 N 
BRANCH  16  17
ATOM     17  C   UNL     1       0.017  -2.485  -3.765  0.00  0.00    +0.091 C 
ATOM     18  C   UNL     1       0.105  -3.126  -5.151  0.00  0.00    +0.027 C 
ATOM     19  C   UNL     1      -1.206  -3.181  -4.364  0.00  0.00    +0.027 C 
ENDBRANCH  16  17
ENDBRANCH   3  11
BRANCH   8  20
ATOM     20  C   UNL     1       1.958  -3.317   4.388  0.00  0.00    +0.082 C 
ATOM     21  C   UNL     1       3.182  -4.170   4.045  0.00  0.00    +0.018 C 
BRANCH  20  22
ATOM     22  C   UNL     1       2.238  -2.511   5.657  0.00  0.00    +0.081 C 
BRANCH  22  23
ATOM     23  S   UNL     1       2.442  -3.643   7.060  0.00  0.00    -0.163 S 
ATOM     24  C   UNL     1       2.764  -2.544   8.467  0.00  0.00    +0.084 C 
ENDBRANCH  22  23
ENDBRANCH  20  22
ENDBRANCH   8  20
TORSDOF 5
