REMARK  Name = ZINC13145060
REMARK  15 active torsions:
REMARK  status: ('A' for Active; 'I' for Inactive)
REMARK    1  A    between atoms: C_1  and  C_2
REMARK    2  A    between atoms: C_2  and  C_3
REMARK    3  A    between atoms: C_3  and  C_4
REMARK    4  A    between atoms: C_4  and  C_5
REMARK    5  A    between atoms: C_5  and  N_6
REMARK    6  A    between atoms: N_6  and  C_7
REMARK    7  A    between atoms: C_8  and  N_20
REMARK    8  A    between atoms: N_9  and  C_16
REMARK    9  A    between atoms: C_16  and  C_17
REMARK   10  A    between atoms: C_17  and  C_18
REMARK   11  A    between atoms: C_18  and  C_19
REMARK   12  A    between atoms: C_21  and  C_23
REMARK   13  A    between atoms: C_23  and  N_24
REMARK   14  A    between atoms: C_27  and  C_30
REMARK   15  A    between atoms: C_30  and  C_31
REMARK                            x       y       z     vdW  Elec       q    Type
REMARK                         _______ _______ _______ _____ _____    ______ ____
ROOT
ATOM      1  N   UNL     1       1.478  -3.979  -2.535  0.00  0.00    -0.266 N 
ATOM      2  C   UNL     1       2.599  -4.559  -2.057  0.00  0.00    +0.203 C 
ATOM      3  O   UNL     1       2.736  -5.762  -2.123  0.00  0.00    -0.277 OA
ENDROOT
BRANCH   1   4
ATOM      4  C   UNL     1       0.417  -4.780  -3.008  0.00  0.00    +0.140 A 
ATOM      5  C   UNL     1       0.065  -4.761  -4.342  0.00  0.00    +0.127 A 
ATOM      6  N   UNL     1      -0.974  -5.553  -4.774  0.00  0.00    -0.280 N 
ATOM      7  C   UNL     1      -1.639  -6.336  -3.905  0.00  0.00    +0.331 A 
ATOM      8  O   UNL     1      -2.555  -7.028  -4.306  0.00  0.00    -0.246 OA
ATOM      9  N   UNL     1      -1.310  -6.367  -2.602  0.00  0.00    -0.273 N 
ATOM     10  H   UNL     1      -1.805  -6.941  -1.996  0.00  0.00    +0.173 HD
ATOM     11  C   UNL     1      -0.296  -5.616  -2.129  0.00  0.00    +0.277 A 
ATOM     12  O   UNL     1      -0.003  -5.655  -0.946  0.00  0.00    -0.266 OA
BRANCH   5  13
ATOM     13  N   UNL     1       0.744  -3.961  -5.229  0.00  0.00    -0.343 N 
ATOM     14  H   UNL     1       1.427  -3.352  -4.908  0.00  0.00    +0.144 HD
ATOM     15  H   UNL     1       0.540  -4.005  -6.177  0.00  0.00    +0.144 HD
ENDBRANCH   5  13
BRANCH   6  16
ATOM     16  C   UNL     1      -1.358  -5.543  -6.187  0.00  0.00    +0.128 C 
BRANCH  16  17
ATOM     17  C   UNL     1      -0.566  -6.614  -6.939  0.00  0.00    +0.021 C 
BRANCH  17  18
ATOM     18  C   UNL     1      -0.967  -6.604  -8.415  0.00  0.00    -0.002 C 
ATOM     19  C   UNL     1      -0.174  -7.675  -9.167  0.00  0.00    +0.004 C 
ENDBRANCH  17  18
ENDBRANCH  16  17
ENDBRANCH   6  16
ENDBRANCH   1   4
BRANCH   1  20
ATOM     20  C   UNL     1       1.363  -2.519  -2.562  0.00  0.00    +0.114 C 
BRANCH  20  21
ATOM     21  C   UNL     1       0.642  -2.041  -1.301  0.00  0.00    +0.019 C 
BRANCH  21  22
ATOM     22  C   UNL     1       0.521  -0.516  -1.329  0.00  0.00    +0.001 C 
BRANCH  22  24
ATOM     23  C   UNL     1      -0.321   1.488  -0.096  0.00  0.00    +0.004 C 
ATOM     24  C   UNL     1      -0.200  -0.037  -0.068  0.00  0.00    -0.003 C 
ENDBRANCH  22  24
ENDBRANCH  21  22
ENDBRANCH  20  21
ENDBRANCH   1  20
BRANCH   2  25
ATOM     25  C   UNL     1       3.682  -3.710  -1.441  0.00  0.00    +0.019 C 
BRANCH  25  26
ATOM     26  N   UNL     1       4.788  -4.571  -1.001  0.00  0.00    +0.385 N 
ATOM     27  C   UNL     1       4.320  -5.457   0.071  0.00  0.00    -0.078 C 
ATOM     28  C   UNL     1       5.445  -6.411   0.478  0.00  0.00    -0.015 C 
ATOM     29  C   UNL     1       6.644  -5.597   0.973  0.00  0.00    -0.010 C 
ATOM     30  C   UNL     1       7.077  -4.624  -0.128  0.00  0.00    -0.015 C 
ATOM     31  C   UNL     1       5.892  -3.736  -0.512  0.00  0.00    -0.078 C 
ATOM     32  H   UNL     1       5.109  -5.128  -1.779  0.00  0.00    -0.081 HD
BRANCH  29  33
ATOM     33  C   UNL     1       7.801  -6.541   1.306  0.00  0.00    +0.038 C 
BRANCH  33  34
ATOM     34  C   UNL     1       8.935  -5.752   1.907  0.00  0.00    -0.047 A 
ATOM     35  C   UNL     1       9.910  -5.210   1.090  0.00  0.00    +0.003 A 
ATOM     36  C   UNL     1      10.951  -4.487   1.642  0.00  0.00    +0.000 A 
ATOM     37  C   UNL     1      11.016  -4.305   3.011  0.00  0.00    +0.000 A 
ATOM     38  C   UNL     1      10.041  -4.846   3.828  0.00  0.00    +0.000 A 
ATOM     39  C   UNL     1       8.998  -5.566   3.276  0.00  0.00    +0.003 A 
ENDBRANCH  33  34
ENDBRANCH  29  33
ENDBRANCH  25  26
ENDBRANCH   2  25
TORSDOF 13
