REMARK  Name = ZINC67000375
REMARK  4 active torsions:
REMARK  status: ('A' for Active; 'I' for Inactive)
REMARK    1  A    between atoms: C_10  and  C_11
REMARK    2  A    between atoms: C_10  and  O_27
REMARK    3  A    between atoms: C_11  and  N_12
REMARK    4  A    between atoms: C_13  and  C_15
REMARK                            x       y       z     vdW  Elec       q    Type
REMARK                         _______ _______ _______ _____ _____    ______ ____
ROOT
ATOM      1  N   UNL     1       4.733   1.477  -0.622  0.00  0.00    -0.305 N 
ATOM      2  C   UNL     1       5.418   2.343  -1.394  0.00  0.00    +0.299 C 
ATOM      3  O   UNL     1       5.984   1.948  -2.393  0.00  0.00    -0.265 OA
ATOM      4  H   UNL     1       4.281   1.792   0.177  0.00  0.00    +0.149 HD
ENDROOT
BRANCH   2   5
ATOM      5  C   UNL     1       5.482   3.788  -1.022  0.00  0.00    +0.305 C 
ATOM      6  O   UNL     1       4.916   4.182  -0.023  0.00  0.00    -0.265 OA
ATOM      7  N   UNL     1       6.167   4.654  -1.794  0.00  0.00    -0.257 N 
ATOM      8  C   UNL     1       6.226   5.992  -1.449  0.00  0.00    +0.166 A 
ATOM      9  N   UNL     1       5.690   6.600  -0.416  0.00  0.00    -0.225 NA
ATOM     10  C   UNL     1       5.830   7.926  -0.202  0.00  0.00    +0.080 A 
ATOM     11  C   UNL     1       5.309   8.698   0.863  0.00  0.00    +0.029 A 
ATOM     12  C   UNL     1       5.546  10.046   0.931  0.00  0.00    +0.002 A 
ATOM     13  C   UNL     1       6.301  10.699  -0.033  0.00  0.00    +0.001 A 
ATOM     14  C   UNL     1       6.827   9.976  -1.087  0.00  0.00    +0.017 A 
ATOM     15  C   UNL     1       6.594   8.625  -1.164  0.00  0.00    +0.041 A 
ATOM     16  S   UNL     1       7.056   7.332  -2.292  0.00  0.00    -0.052 S 
ATOM     17  H   UNL     1       6.619   4.338  -2.593  0.00  0.00    +0.157 HD
ENDBRANCH   2   5
BRANCH   1  18
ATOM     18  C   UNL     1       4.671   0.060  -0.987  0.00  0.00    +0.144 C 
BRANCH  18  28
ATOM     19  C   UNL     1       3.635  -4.797  -1.159  0.00  0.00    +0.000 A 
ATOM     20  C   UNL     1       3.604  -3.797  -2.113  0.00  0.00    +0.000 A 
ATOM     21  C   UNL     1       3.643  -2.475  -1.720  0.00  0.00    +0.007 A 
ATOM     22  C   UNL     1       3.714  -2.140  -0.374  0.00  0.00    -0.011 A 
ATOM     23  C   UNL     1       3.749  -3.136   0.575  0.00  0.00    -0.041 A 
ATOM     24  C   UNL     1       3.706  -4.467   0.178  0.00  0.00    +0.004 A 
ATOM     25  C   UNL     1       3.843  -2.847   2.051  0.00  0.00    +0.035 C 
ATOM     26  C   UNL     1       3.451  -1.399   2.340  0.00  0.00    +0.008 C 
ATOM     27  C   UNL     1       4.257  -0.485   1.410  0.00  0.00    +0.041 C 
ATOM     28  C   UNL     1       3.746  -0.677  -0.016  0.00  0.00    +0.107 C 
BRANCH  28  29
ATOM     29  O   UNL     1       2.427  -0.138  -0.121  0.00  0.00    -0.382 OA
ATOM     30  H   UNL     1       2.042  -0.209  -1.006  0.00  0.00    +0.211 HD
ENDBRANCH  28  29
ENDBRANCH  18  28
ENDBRANCH   1  18
TORSDOF 4
