REMARK  Name = ZINC14119782
REMARK  4 active torsions:
REMARK  status: ('A' for Active; 'I' for Inactive)
REMARK    1  A    between atoms: C_4  and  N_7
REMARK    2  A    between atoms: N_15  and  C_18
REMARK    3  A    between atoms: C_18  and  C_19
REMARK    4  A    between atoms: C_18  and  C_26
REMARK                            x       y       z     vdW  Elec       q    Type
REMARK                         _______ _______ _______ _____ _____    ______ ____
ROOT
ATOM      1  N   UNL     1       4.755  -0.863   1.022  0.00  0.00    -0.181 N 
ATOM      2  C   UNL     1       3.989  -1.890   0.579  0.00  0.00    +0.242 A 
ATOM      3  N   UNL     1       4.119  -1.933  -0.729  0.00  0.00    -0.092 NA
ATOM      4  N   UNL     1       4.911  -1.006  -1.133  0.00  0.00    -0.021 NA
ATOM      5  N   UNL     1       5.334  -0.310  -0.134  0.00  0.00    -0.038 NA
ATOM      6  N   UNL     1       3.217  -2.735   1.357  0.00  0.00    -0.296 N 
ATOM      7  C   UNL     1       1.778  -2.491   1.536  0.00  0.00    +0.123 C 
ATOM      8  C   UNL     1       1.022  -3.785   1.215  0.00  0.00    +0.104 C 
ATOM      9  N   UNL     1       1.571  -4.882   2.023  0.00  0.00    -0.285 NA
ATOM     10  C   UNL     1       2.978  -5.138   1.687  0.00  0.00    +0.104 C 
ATOM     11  C   UNL     1       3.813  -3.904   2.022  0.00  0.00    +0.123 C 
ENDROOT
BRANCH   1  15
ATOM     12  C   UNL     1       5.267   0.401   4.962  0.00  0.00    +0.000 A 
ATOM     13  C   UNL     1       6.354   0.343   4.109  0.00  0.00    +0.002 A 
ATOM     14  C   UNL     1       6.188  -0.075   2.803  0.00  0.00    +0.028 A 
ATOM     15  C   UNL     1       4.928  -0.438   2.347  0.00  0.00    +0.071 A 
ATOM     16  C   UNL     1       3.838  -0.378   3.206  0.00  0.00    +0.028 A 
ATOM     17  C   UNL     1       4.011   0.041   4.510  0.00  0.00    +0.002 A 
ENDBRANCH   1  15
BRANCH   9  18
ATOM     18  C   UNL     1       0.764  -6.101   1.874  0.00  0.00    +0.174 C 
BRANCH  18  19
ATOM     19  C   UNL     1       1.357  -7.202   2.715  0.00  0.00    -0.021 A 
ATOM     20  C   UNL     1       1.847  -6.920   3.976  0.00  0.00    +0.007 A 
ATOM     21  C   UNL     1       2.391  -7.929   4.748  0.00  0.00    +0.020 A 
ATOM     22  C   UNL     1       2.444  -9.222   4.258  0.00  0.00    +0.041 A 
ATOM     23  C   UNL     1       1.954  -9.504   2.996  0.00  0.00    +0.020 A 
ATOM     24  C   UNL     1       1.405  -8.494   2.227  0.00  0.00    +0.007 A 
ATOM     25 CL   UNL     1       3.127 -10.490   5.227  0.00  0.00    -0.084 Cl
ENDBRANCH  18  19
BRANCH  18  26
ATOM     26  C   UNL     1      -0.647  -5.827   2.326  0.00  0.00    +0.232 C 
ATOM     27  O   UNL     1      -0.951  -4.726   2.733  0.00  0.00    -0.274 OA
ATOM     28  N   UNL     1      -1.572  -6.807   2.279  0.00  0.00    -0.328 N 
ATOM     29  H   UNL     1      -1.329  -7.688   1.954  0.00  0.00    +0.145 HD
ATOM     30  H   UNL     1      -2.480  -6.631   2.570  0.00  0.00    +0.145 HD
ENDBRANCH  18  26
ENDBRANCH   9  18
TORSDOF 4
