REMARK  Name = ZINC39664684
REMARK  9 active torsions:
REMARK  status: ('A' for Active; 'I' for Inactive)
REMARK    1  A    between atoms: C_1  and  C_2
REMARK    2  A    between atoms: C_2  and  C_3
REMARK    3  A    between atoms: C_7  and  C_16
REMARK    4  A    between atoms: N_18  and  C_19
REMARK    5  A    between atoms: C_19  and  C_21
REMARK    6  A    between atoms: C_19  and  C_25
REMARK    7  A    between atoms: C_21  and  N_22
REMARK    8  A    between atoms: N_22  and  C_23
REMARK    9  A    between atoms: N_22  and  C_24
REMARK                            x       y       z     vdW  Elec       q    Type
REMARK                         _______ _______ _______ _____ _____    ______ ____
ROOT
ATOM      1  C   UNL     1      -0.756  -1.853   0.423  0.00  0.00    +0.215 C 
ATOM      2  O   UNL     1      -0.603  -1.041   1.310  0.00  0.00    -0.276 OA
ATOM      3  N   UNL     1      -0.372  -3.131   0.606  0.00  0.00    -0.300 N 
ATOM      4  C   UNL     1      -0.469  -4.255  -0.355  0.00  0.00    +0.121 C 
ATOM      5  C   UNL     1       0.842  -5.049  -0.162  0.00  0.00    +0.100 C 
ATOM      6  C   UNL     1       1.304  -4.702   1.263  0.00  0.00    -0.004 C 
ATOM      7  C   UNL     1       0.250  -3.730   1.811  0.00  0.00    +0.115 C 
ATOM      8  C   UNL     1       2.670  -4.024   1.225  0.00  0.00    -0.010 C 
ATOM      9  C   UNL     1       3.134  -3.740   2.657  0.00  0.00    -0.082 C 
ATOM     10  N   UNL     1       3.212  -5.000   3.406  0.00  0.00    +0.379 N 
ATOM     11  C   UNL     1       1.877  -5.600   3.518  0.00  0.00    -0.082 C 
ATOM     12  C   UNL     1       1.359  -5.962   2.122  0.00  0.00    -0.010 C 
ATOM     13  H   UNL     1       3.827  -5.639   2.925  0.00  0.00    -0.086 HD
ATOM     14  H   UNL     1       3.575  -4.819   4.330  0.00  0.00    -0.086 HD
ENDROOT
BRANCH   5  15
ATOM     15  C   UNL     1       1.873  -4.613  -1.171  0.00  0.00    +0.219 C 
ATOM     16  O   UNL     1       2.495  -5.443  -1.800  0.00  0.00    -0.275 OA
ATOM     17  N   UNL     1       2.103  -3.301  -1.375  0.00  0.00    -0.310 N 
ATOM     18  H   UNL     1       1.652  -2.639  -0.829  0.00  0.00    +0.149 HD
BRANCH  17  19
ATOM     19  C   UNL     1       3.036  -2.875  -2.421  0.00  0.00    +0.087 C 
BRANCH  19  20
ATOM     20  C   UNL     1       3.558  -1.498  -2.099  0.00  0.00    -0.029 A 
ATOM     21  C   UNL     1       2.708  -0.542  -1.575  0.00  0.00    +0.005 A 
ATOM     22  C   UNL     1       3.186   0.720  -1.280  0.00  0.00    +0.000 A 
ATOM     23  C   UNL     1       4.514   1.027  -1.508  0.00  0.00    +0.000 A 
ATOM     24  C   UNL     1       5.364   0.071  -2.032  0.00  0.00    +0.000 A 
ATOM     25  C   UNL     1       4.887  -1.193  -2.324  0.00  0.00    +0.005 A 
ENDBRANCH  19  20
BRANCH  19  26
ATOM     26  C   UNL     1       2.311  -2.844  -3.768  0.00  0.00    -0.052 C 
BRANCH  26  27
ATOM     27  N   UNL     1       3.279  -2.571  -4.839  0.00  0.00    +0.377 N 
ATOM     28  C   UNL     1       4.234  -3.683  -4.931  0.00  0.00    -0.097 C 
ATOM     29  C   UNL     1       2.569  -2.429  -6.117  0.00  0.00    -0.097 C 
ATOM     30  H   UNL     1       3.776  -1.717  -4.634  0.00  0.00    -0.083 HD
ENDBRANCH  26  27
ENDBRANCH  19  26
ENDBRANCH  17  19
ENDBRANCH   5  15
BRANCH   1  32
ATOM     31  C   UNL     1      -1.717   0.059  -0.831  0.00  0.00    +0.013 C 
ATOM     32  C   UNL     1      -1.375  -1.431  -0.885  0.00  0.00    +0.092 C 
ENDBRANCH   1  32
TORSDOF 6
