REMARK  Name = ZINC12797523
REMARK  8 active torsions:
REMARK  status: ('A' for Active; 'I' for Inactive)
REMARK    1  A    between atoms: C_1  and  C_2
REMARK    2  A    between atoms: C_2  and  C_4
REMARK    3  A    between atoms: C_2  and  N_69
REMARK    4  A    between atoms: N_9  and  S_12
REMARK    5  A    between atoms: S_12  and  C_15
REMARK    6  A    between atoms: C_23  and  C_26
REMARK    7  A    between atoms: N_28  and  C_29
REMARK    8  A    between atoms: C_29  and  C_30
REMARK                            x       y       z     vdW  Elec       q    Type
REMARK                         _______ _______ _______ _____ _____    ______ ____
ROOT
ATOM      1  C   UNL     1       2.203  -1.873   5.465  0.00  0.00    -0.004 C 
ATOM      2  C   UNL     1       1.392  -0.812   6.211  0.00  0.00    +0.016 C 
ENDROOT
BRANCH   2   3
ATOM      3  C   UNL     1       0.234  -0.370   5.354  0.00  0.00    +0.202 C 
ATOM      4  O   UNL     1      -0.860  -0.871   5.507  0.00  0.00    -0.277 OA
ATOM      5  N   UNL     1       0.414   0.582   4.418  0.00  0.00    -0.300 N 
ATOM      6  C   UNL     1      -0.679   0.951   3.506  0.00  0.00    +0.125 C 
ATOM      7  C   UNL     1      -0.184   0.799   2.062  0.00  0.00    +0.128 C 
ATOM      8  N   UNL     1       1.108   1.488   1.934  0.00  0.00    -0.174 NA
ATOM      9  C   UNL     1       2.202   1.115   2.841  0.00  0.00    +0.128 C 
ATOM     10  C   UNL     1       1.706   1.270   4.289  0.00  0.00    +0.125 C 
BRANCH   8  11
ATOM     11  S   UNL     1       1.329   2.657   0.782  0.00  0.00    +0.061 S 
ATOM     12  O   UNL     1       0.378   2.402  -0.243  0.00  0.00    -0.153 OA
ATOM     13  O   UNL     1       2.726   2.717   0.528  0.00  0.00    -0.153 OA
BRANCH  11  14
ATOM     14  C   UNL     1       0.883   4.197   1.512  0.00  0.00    +0.105 A 
ATOM     15  C   UNL     1      -0.419   4.653   1.422  0.00  0.00    +0.028 A 
ATOM     16  C   UNL     1      -0.771   5.859   1.999  0.00  0.00    +0.002 A 
ATOM     17  C   UNL     1       0.183   6.615   2.656  0.00  0.00    +0.000 A 
ATOM     18  C   UNL     1       1.486   6.162   2.740  0.00  0.00    +0.002 A 
ATOM     19  C   UNL     1       1.836   4.953   2.168  0.00  0.00    +0.028 A 
ENDBRANCH  11  14
ENDBRANCH   8  11
ENDBRANCH   2   3
BRANCH   2  25
ATOM     20  C   UNL     1       0.169  -0.363   8.252  0.00  0.00    -0.077 C 
ATOM     21  C   UNL     1      -0.469  -1.019   9.478  0.00  0.00    -0.006 C 
ATOM     22  C   UNL     1       0.624  -1.672  10.329  0.00  0.00    +0.071 C 
ATOM     23  C   UNL     1       1.383  -2.691   9.475  0.00  0.00    -0.006 C 
ATOM     24  C   UNL     1       1.968  -1.986   8.248  0.00  0.00    -0.077 C 
ATOM     25  N   UNL     1       0.864  -1.400   7.460  0.00  0.00    +0.387 N 
ATOM     26  H   UNL     1       0.194  -2.141   7.222  0.00  0.00    -0.081 HD
BRANCH  22  27
ATOM     27  C   UNL     1      -0.005  -2.371  11.506  0.00  0.00    +0.216 C 
ATOM     28  O   UNL     1       0.139  -3.567  11.650  0.00  0.00    -0.276 OA
ATOM     29  N   UNL     1      -0.728  -1.668  12.400  0.00  0.00    -0.311 N 
ATOM     30  H   UNL     1      -0.843  -0.712  12.286  0.00  0.00    +0.149 HD
BRANCH  29  31
ATOM     31  C   UNL     1      -1.339  -2.348  13.545  0.00  0.00    +0.139 C 
BRANCH  31  32
ATOM     32  C   UNL     1      -2.086  -1.344  14.385  0.00  0.00    -0.030 A 
ATOM     33  C   UNL     1      -1.442  -0.691  15.419  0.00  0.00    +0.005 A 
ATOM     34  C   UNL     1      -2.125   0.234  16.186  0.00  0.00    +0.000 A 
ATOM     35  C   UNL     1      -3.457   0.497  15.926  0.00  0.00    +0.000 A 
ATOM     36  C   UNL     1      -4.104  -0.160  14.896  0.00  0.00    +0.000 A 
ATOM     37  C   UNL     1      -3.418  -1.080  14.125  0.00  0.00    +0.005 A 
ENDBRANCH  31  32
ENDBRANCH  29  31
ENDBRANCH  22  27
ENDBRANCH   2  25
TORSDOF 7
