REMARK  Name = ZINC05021138
REMARK  7 active torsions:
REMARK  status: ('A' for Active; 'I' for Inactive)
REMARK    1  A    between atoms: C_1  and  C_2
REMARK    2  A    between atoms: C_9  and  N_15
REMARK    3  A    between atoms: C_10  and  C_11
REMARK    4  A    between atoms: C_11  and  O_13
REMARK    5  A    between atoms: O_13  and  C_14
REMARK    6  A    between atoms: C_16  and  C_18
REMARK    7  A    between atoms: C_24  and  C_26
REMARK                            x       y       z     vdW  Elec       q    Type
REMARK                         _______ _______ _______ _____ _____    ______ ____
ROOT
ATOM      1  C   UNL     1       7.747  -2.294   0.007  0.00  0.00    +0.008 C 
ATOM      2  C   UNL     1       6.732  -1.190   0.310  0.00  0.00    -0.009 C 
ATOM      3  C   UNL     1       7.061   0.053  -0.523  0.00  0.00    +0.008 C 
ATOM      4  C   UNL     1       6.213   1.235  -0.052  0.00  0.00    +0.037 C 
ATOM      5  C   UNL     1       4.748   0.813  -0.040  0.00  0.00    -0.021 A 
ATOM      6  C   UNL     1       4.400  -0.492  -0.043  0.00  0.00    -0.004 A 
ATOM      7  S   UNL     1       2.630  -0.489  -0.026  0.00  0.00    -0.077 S 
ATOM      8  C   UNL     1       2.353   1.222  -0.014  0.00  0.00    +0.086 A 
ATOM      9  C   UNL     1       3.637   1.750  -0.029  0.00  0.00    +0.091 A 
ATOM     10  C   UNL     1       5.322  -1.672  -0.058  0.00  0.00    +0.046 C 
ENDROOT
BRANCH   8  11
ATOM     11  N   UNL     1       1.143   1.898   0.001  0.00  0.00    -0.279 N 
ATOM     12  C   UNL     1      -0.014   1.209   0.009  0.00  0.00    +0.222 C 
ATOM     13  O   UNL     1       0.002  -0.004   0.002  0.00  0.00    -0.275 OA
ATOM     14  H   UNL     1       1.130   2.868   0.007  0.00  0.00    +0.155 HD
BRANCH  12  15
ATOM     15  C   UNL     1      -1.330   1.944   0.019  0.00  0.00    +0.093 C 
ATOM     16  C   UNL     1      -1.433   2.831  -1.224  0.00  0.00    +0.040 C 
ATOM     17  C   UNL     1      -2.829   3.361  -1.366  0.00  0.00    -0.030 C 
ATOM     18  C   UNL     1      -3.859   2.866  -0.758  0.00  0.00    -0.030 C 
ATOM     19  C   UNL     1      -3.798   1.698   0.183  0.00  0.00    +0.042 C 
ATOM     20  C   UNL     1      -2.485   0.935  -0.008  0.00  0.00    +0.118 C 
BRANCH  20  21
ATOM     21  C   UNL     1      -2.312  -0.062   1.108  0.00  0.00    +0.360 C 
ATOM     22  O   UNL     1      -1.363   0.021   1.851  0.00  0.00    -0.246 OA
ATOM     23  O   UNL     1      -3.212  -1.044   1.277  0.00  0.00    -0.246 OA
ENDBRANCH  20  21
ENDBRANCH  12  15
ENDBRANCH   8  11
BRANCH   9  24
ATOM     24  C   UNL     1       3.864   3.197  -0.030  0.00  0.00    +0.342 C 
ATOM     25  O   UNL     1       3.971   3.796   1.023  0.00  0.00    -0.245 OA
BRANCH  24  26
ATOM     26  O   UNL     1       3.953   3.865  -1.198  0.00  0.00    -0.464 OA
ATOM     27  C   UNL     1       4.178   5.297  -1.123  0.00  0.00    +0.280 C 
ENDBRANCH  24  26
ENDBRANCH   9  24
TORSDOF 5
