REMARK  Name = ZINC05577363
REMARK  7 active torsions:
REMARK  status: ('A' for Active; 'I' for Inactive)
REMARK    1  A    between atoms: C_1  and  C_2
REMARK    2  A    between atoms: C_2  and  C_4
REMARK    3  A    between atoms: C_2  and  N_20
REMARK    4  A    between atoms: N_6  and  N_7
REMARK    5  A    between atoms: C_8  and  C_9
REMARK    6  A    between atoms: C_18  and  O_19
REMARK    7  A    between atoms: C_21  and  C_23
REMARK                            x       y       z     vdW  Elec       q    Type
REMARK                         _______ _______ _______ _____ _____    ______ ____
ROOT
ATOM      1  C   UNL     1      -3.311   7.750  -1.751  0.00  0.00    +0.252 C 
ATOM      2  O   UNL     1      -4.060   6.954  -2.277  0.00  0.00    -0.272 OA
ATOM      3  N   UNL     1      -3.531   9.073  -1.883  0.00  0.00    -0.205 N 
ATOM      4  H   UNL     1      -2.932   9.709  -1.462  0.00  0.00    +0.177 HD
ENDROOT
BRANCH   1   6
ATOM      5  C   UNL     1      -0.838   7.790  -1.569  0.00  0.00    +0.038 C 
ATOM      6  C   UNL     1      -2.132   7.259  -0.950  0.00  0.00    +0.157 C 
BRANCH   6   7
ATOM      7  N   UNL     1      -2.112   5.794  -0.958  0.00  0.00    -0.304 N 
ATOM      8  C   UNL     1      -1.510   5.123   0.044  0.00  0.00    +0.220 C 
ATOM      9  O   UNL     1      -0.985   5.731   0.952  0.00  0.00    -0.275 OA
ATOM     10  H   UNL     1      -2.533   5.307  -1.684  0.00  0.00    +0.149 HD
BRANCH   8  11
ATOM     11  C   UNL     1      -1.490   3.616   0.036  0.00  0.00    +0.048 C 
ATOM     12  C   UNL     1      -0.773   3.123  -1.223  0.00  0.00    +0.019 C 
ATOM     13  C   UNL     1      -0.753   1.593  -1.232  0.00  0.00    -0.009 C 
ATOM     14  C   UNL     1      -0.013   1.086   0.008  0.00  0.00    +0.007 C 
ATOM     15  C   UNL     1      -0.729   1.579   1.267  0.00  0.00    -0.009 C 
ATOM     16  C   UNL     1      -0.750   3.109   1.275  0.00  0.00    +0.019 C 
ATOM     17  C   UNL     1      -2.164   1.050   1.278  0.00  0.00    +0.007 C 
ATOM     18  C   UNL     1      -2.904   1.556   0.038  0.00  0.00    -0.009 C 
ATOM     19  C   UNL     1      -2.188   1.063  -1.221  0.00  0.00    +0.007 C 
ATOM     20  C   UNL     1      -2.925   3.086   0.047  0.00  0.00    +0.019 C 
ENDBRANCH   8  11
ENDBRANCH   6   7
ENDBRANCH   1   6
BRANCH   3  21
ATOM     21  N   UNL     1      -4.627   9.529  -2.627  0.00  0.00    -0.188 NA
ATOM     22  C   UNL     1      -4.840  10.805  -2.755  0.00  0.00    +0.142 C 
BRANCH  22  23
ATOM     23  C   UNL     1      -5.989  11.283  -3.536  0.00  0.00    +0.044 A 
ATOM     24  C   UNL     1      -6.244  12.715  -3.689  0.00  0.00    -0.006 A 
ATOM     25  C   UNL     1      -5.408  13.672  -3.102  0.00  0.00    +0.009 A 
ATOM     26  C   UNL     1      -5.680  14.997  -3.270  0.00  0.00    +0.001 A 
ATOM     27  C   UNL     1      -6.779  15.413  -4.018  0.00  0.00    +0.001 A 
ATOM     28  C   UNL     1      -7.612  14.508  -4.603  0.00  0.00    +0.008 A 
ATOM     29  C   UNL     1      -7.362  13.133  -4.451  0.00  0.00    -0.017 A 
ATOM     30  C   UNL     1      -8.200  12.170  -5.040  0.00  0.00    +0.012 A 
ATOM     31  C   UNL     1      -7.948  10.843  -4.888  0.00  0.00    +0.046 A 
ATOM     32  C   UNL     1      -6.857  10.382  -4.152  0.00  0.00    +0.126 A 
BRANCH  32  33
ATOM     33  O   UNL     1      -6.641   9.047  -4.030  0.00  0.00    -0.506 OA
ATOM     34  H   UNL     1      -7.080   8.646  -3.267  0.00  0.00    +0.292 HD
ENDBRANCH  32  33
ENDBRANCH  22  23
ENDBRANCH   3  21
TORSDOF 6
