REMARK  Name = ZINC11244759
REMARK  6 active torsions:
REMARK  status: ('A' for Active; 'I' for Inactive)
REMARK    1  A    between atoms: C_6  and  C_7
REMARK    2  A    between atoms: C_7  and  O_8
REMARK    3  A    between atoms: O_8  and  C_9
REMARK    4  A    between atoms: C_9  and  C_11
REMARK    5  A    between atoms: N_14  and  S_17
REMARK    6  A    between atoms: S_17  and  C_20
REMARK                            x       y       z     vdW  Elec       q    Type
REMARK                         _______ _______ _______ _____ _____    ______ ____
ROOT
ATOM      1  C   UNL     1       1.183   4.065   4.412  0.00  0.00    +0.100 C 
ATOM      2  C   UNL     1       2.431   3.736   3.589  0.00  0.00    +0.032 C 
ATOM      3  C   UNL     1       2.421   4.564   2.301  0.00  0.00    +0.110 C 
ATOM      4  N   UNL     1       1.153   4.329   1.596  0.00  0.00    -0.177 NA
ATOM      5  C   UNL     1      -0.107   4.534   2.323  0.00  0.00    +0.110 C 
ATOM      6  C   UNL     1      -0.069   3.700   3.612  0.00  0.00    +0.032 C 
ENDROOT
BRANCH   4   7
ATOM      7  S   UNL     1       1.145   3.848   0.012  0.00  0.00    +0.061 S 
ATOM      8  O   UNL     1       2.379   4.275  -0.549  0.00  0.00    -0.153 OA
ATOM      9  O   UNL     1      -0.111   4.239  -0.525  0.00  0.00    -0.153 OA
BRANCH   7  10
ATOM     10  C   UNL     1       1.171   2.086   0.002  0.00  0.00    +0.106 A 
ATOM     11  C   UNL     1      -0.017   1.378   0.010  0.00  0.00    +0.031 A 
ATOM     12  C   UNL     1       0.002  -0.004   0.002  0.00  0.00    +0.040 A 
ATOM     13  C   UNL     1       1.211  -0.679  -0.013  0.00  0.00    +0.124 A 
ATOM     14  C   UNL     1       2.399   0.031  -0.021  0.00  0.00    +0.040 A 
ATOM     15  C   UNL     1       2.378   1.413  -0.013  0.00  0.00    +0.031 A 
ATOM     16  F   UNL     1       1.230  -2.030  -0.020  0.00  0.00    -0.205 F 
ENDBRANCH   7  10
ENDBRANCH   4   7
BRANCH   1  17
ATOM     17  C   UNL     1       1.207   3.277   5.697  0.00  0.00    +0.311 C 
ATOM     18  O   UNL     1       2.126   2.529   5.929  0.00  0.00    -0.251 OA
BRANCH  17  19
ATOM     19  O   UNL     1       0.206   3.406   6.582  0.00  0.00    -0.460 OA
BRANCH  19  20
ATOM     20  C   UNL     1       0.295   2.616   7.797  0.00  0.00    +0.267 C 
BRANCH  20  26
ATOM     21  C   UNL     1      -0.867   3.905   9.601  0.00  0.00    +0.008 A 
ATOM     22  C   UNL     1      -1.971   4.160  10.392  0.00  0.00    +0.015 A 
ATOM     23  C   UNL     1      -3.114   3.393  10.253  0.00  0.00    +0.018 A 
ATOM     24  C   UNL     1      -3.152   2.375   9.318  0.00  0.00    +0.015 A 
ATOM     25  C   UNL     1      -2.049   2.124   8.523  0.00  0.00    +0.008 A 
ATOM     26  C   UNL     1      -0.908   2.891   8.663  0.00  0.00    -0.010 A 
ATOM     27 BR   UNL     1      -4.622   3.737  11.339  0.00  0.00    -0.050 Br
ENDBRANCH  20  26
ENDBRANCH  19  20
ENDBRANCH  17  19
ENDBRANCH   1  17
TORSDOF 6
