REMARK  Name = ZINC14307755
REMARK  3 active torsions:
REMARK  status: ('A' for Active; 'I' for Inactive)
REMARK    1  A    between atoms: C_4  and  C_7
REMARK    2  A    between atoms: N_12  and  C_13
REMARK    3  A    between atoms: C_13  and  N_14
REMARK                            x       y       z     vdW  Elec       q    Type
REMARK                         _______ _______ _______ _____ _____    ______ ____
ROOT
ATOM      1  C   UNL     1       4.103  -1.605  -2.260  0.00  0.00    +0.205 C 
ENDROOT
BRANCH   1   2
ATOM      2  N   UNL     1       3.484  -2.531  -3.212  0.00  0.00    -0.211 N 
ATOM      3  C   UNL     1       4.007  -3.728  -3.556  0.00  0.00    +0.248 C 
ATOM      4  O   UNL     1       5.038  -4.223  -3.154  0.00  0.00    -0.273 OA
ATOM      5  C   UNL     1       3.035  -4.317  -4.546  0.00  0.00    +0.113 C 
ATOM      6  C   UNL     1       2.472  -5.651  -4.040  0.00  0.00    +0.035 C 
ATOM      7  C   UNL     1       2.304  -6.500  -5.327  0.00  0.00    +0.003 C 
ATOM      8  C   UNL     1       3.539  -6.095  -6.171  0.00  0.00    +0.003 C 
ATOM      9  C   UNL     1       3.708  -4.584  -5.894  0.00  0.00    +0.035 C 
ATOM     10  N   UNL     1       1.979  -3.309  -4.667  0.00  0.00    -0.285 N 
ATOM     11  C   UNL     1       2.326  -2.300  -3.843  0.00  0.00    +0.310 C 
ATOM     12  O   UNL     1       1.664  -1.292  -3.693  0.00  0.00    -0.252 OA
ATOM     13  H   UNL     1       1.188  -3.359  -5.226  0.00  0.00    +0.151 HD
ENDBRANCH   1   2
BRANCH   1  18
ATOM     14  C   UNL     1       3.711  -0.707  -0.038  0.00  0.00    +0.088 C 
ATOM     15  C   UNL     1       4.038  -1.262   1.371  0.00  0.00    +0.025 C 
ATOM     16  C   UNL     1       4.990  -2.439   1.032  0.00  0.00    +0.017 C 
ATOM     17  C   UNL     1       4.407  -2.988  -0.287  0.00  0.00    +0.086 C 
ATOM     18  N   UNL     1       3.621  -1.901  -0.904  0.00  0.00    -0.279 NA
BRANCH  14  22
ATOM     19  C   UNL     1      -0.017   1.378   0.010  0.00  0.00    +0.000 A 
ATOM     20  C   UNL     1       1.171   2.086   0.002  0.00  0.00    +0.000 A 
ATOM     21  C   UNL     1       2.377   1.411  -0.013  0.00  0.00    +0.005 A 
ATOM     22  C   UNL     1       2.396   0.029  -0.020  0.00  0.00    -0.030 A 
ATOM     23  C   UNL     1       1.208  -0.679  -0.012  0.00  0.00    +0.005 A 
ATOM     24  C   UNL     1       0.002  -0.004   0.002  0.00  0.00    +0.000 A 
ENDBRANCH  14  22
ENDBRANCH   1  18
TORSDOF 3
