REMARK  Name = ZINC39709126
REMARK  4 active torsions:
REMARK  status: ('A' for Active; 'I' for Inactive)
REMARK    1  A    between atoms: C_6  and  N_7
REMARK    2  A    between atoms: C_8  and  C_10
REMARK    3  A    between atoms: C_10  and  S_11
REMARK    4  A    between atoms: S_11  and  C_12
REMARK                            x       y       z     vdW  Elec       q    Type
REMARK                         _______ _______ _______ _____ _____    ______ ____
ROOT
ATOM      1  C   UNL     1      -3.719  -5.347  -0.450  0.00  0.00    +0.208 C 
ATOM      2  N   UNL     1      -4.770  -4.563  -0.426  0.00  0.00    -0.227 NA
ATOM      3  C   UNL     1      -6.083  -5.181  -0.599  0.00  0.00    +0.252 C 
ATOM      4  C   UNL     1      -5.960  -6.603  -0.070  0.00  0.00    +0.117 C 
ATOM      5  C   UNL     1      -7.023  -6.776   0.763  0.00  0.00    +0.026 A 
ATOM      6  C   UNL     1      -7.510  -7.907   1.462  0.00  0.00    +0.032 A 
ATOM      7  C   UNL     1      -8.613  -7.735   2.241  0.00  0.00    +0.042 A 
ATOM      8  C   UNL     1      -9.289  -6.518   2.391  0.00  0.00    +0.022 A 
ATOM      9  C   UNL     1      -8.915  -5.372   1.763  0.00  0.00    +0.027 A 
ATOM     10  C   UNL     1      -7.732  -5.464   0.891  0.00  0.00    +0.046 A 
ATOM     11  N   UNL     1      -7.159  -4.559   0.159  0.00  0.00    -0.358 N 
ATOM     12 CL   UNL     1      -9.221  -9.114   3.104  0.00  0.00    -0.084 Cl
ATOM     13  N   UNL     1      -4.887  -7.352  -0.340  0.00  0.00    -0.147 NA
ATOM     14  N   UNL     1      -3.787  -6.696  -0.562  0.00  0.00    -0.122 NA
ATOM     15  H   UNL     1      -7.406  -3.622   0.123  0.00  0.00    +0.162 HD
ENDROOT
BRANCH   1  16
ATOM     16  S   UNL     1      -2.126  -4.602  -0.337  0.00  0.00    -0.075 S 
BRANCH  16  17
ATOM     17  C   UNL     1      -2.479  -2.828  -0.204  0.00  0.00    +0.173 C 
BRANCH  17  19
ATOM     18  N   UNL     1      -1.200  -0.722   0.010  0.00  0.00    -0.285 N 
ATOM     19  C   UNL     1      -1.183  -2.065  -0.099  0.00  0.00    +0.227 C 
ATOM     20  O   UNL     1      -0.126  -2.659  -0.113  0.00  0.00    -0.275 OA
ATOM     21  H   UNL     1      -2.044  -0.252   0.098  0.00  0.00    +0.155 HD
BRANCH  18  27
ATOM     22  C   UNL     1       1.072  -0.453  -0.766  0.00  0.00    +0.025 A 
ATOM     23  C   UNL     1       2.256   0.257  -0.778  0.00  0.00    +0.022 A 
ATOM     24  C   UNL     1       2.377   1.416  -0.032  0.00  0.00    +0.041 A 
ATOM     25  C   UNL     1       1.312   1.866   0.729  0.00  0.00    +0.022 A 
ATOM     26  C   UNL     1       0.126   1.159   0.745  0.00  0.00    +0.025 A 
ATOM     27  C   UNL     1       0.002  -0.004  -0.004  0.00  0.00    +0.033 A 
ATOM     28 CL   UNL     1       3.867   2.306  -0.048  0.00  0.00    -0.084 Cl
ENDBRANCH  18  27
ENDBRANCH  17  19
ENDBRANCH  16  17
ENDBRANCH   1  16
TORSDOF 4
