REMARK  Name = ZINC33727778
REMARK  8 active torsions:
REMARK  status: ('A' for Active; 'I' for Inactive)
REMARK    1  A    between atoms: C_1  and  C_2
REMARK    2  A    between atoms: C_2  and  C_3
REMARK    3  A    between atoms: C_2  and  O_4
REMARK    4  A    between atoms: O_4  and  C_5
REMARK    5  A    between atoms: C_6  and  O_20
REMARK    6  A    between atoms: C_8  and  C_12
REMARK    7  A    between atoms: N_13  and  N_14
REMARK    8  A    between atoms: O_20  and  C_21
REMARK                            x       y       z     vdW  Elec       q    Type
REMARK                         _______ _______ _______ _____ _____    ______ ____
ROOT
ATOM      1  C   UNL     1       2.038  -2.848  -5.403  0.00  0.00    +0.175 A 
ATOM      2  C   UNL     1       1.763  -1.565  -5.872  0.00  0.00    +0.163 A 
ATOM      3  C   UNL     1       0.463  -1.200  -6.166  0.00  0.00    +0.059 A 
ATOM      4  C   UNL     1      -0.574  -2.121  -5.992  0.00  0.00    -0.001 A 
ATOM      5  C   UNL     1      -0.291  -3.406  -5.521  0.00  0.00    +0.027 A 
ATOM      6  C   UNL     1       1.009  -3.764  -5.235  0.00  0.00    +0.059 A 
ATOM      7  I   UNL     1       1.432  -5.694  -4.537  0.00  0.00    -0.040 I 
ENDROOT
BRANCH   4   8
ATOM      8  C   UNL     1      -1.962  -1.737  -6.304  0.00  0.00    +0.143 C 
ATOM      9  N   UNL     1      -2.942  -2.525  -5.979  0.00  0.00    -0.152 NA
BRANCH   9  10
ATOM     10  N   UNL     1      -2.731  -3.566  -5.066  0.00  0.00    -0.095 N 
ATOM     11  C   UNL     1      -3.054  -4.881  -5.220  0.00  0.00    +0.255 A 
ATOM     12  N   UNL     1      -2.677  -5.499  -4.121  0.00  0.00    -0.091 NA
ATOM     13  N   UNL     1      -2.145  -4.670  -3.297  0.00  0.00    -0.020 NA
ATOM     14  N   UNL     1      -2.134  -3.482  -3.796  0.00  0.00    -0.020 NA
ATOM     15  N   UNL     1      -3.662  -5.457  -6.321  0.00  0.00    -0.325 N 
ATOM     16  H   UNL     1      -3.874  -6.537  -6.331  0.00  0.00    +0.145 HD
ATOM     17  H   UNL     1      -3.933  -4.836  -7.188  0.00  0.00    +0.145 HD
ENDBRANCH   9  10
ENDBRANCH   4   8
BRANCH   2  18
ATOM     18  O   UNL     1       2.775  -0.671  -6.041  0.00  0.00    -0.491 OA
ATOM     19  C   UNL     1       2.421   0.625  -6.525  0.00  0.00    +0.277 C 
ENDBRANCH   2  18
BRANCH   1  20
ATOM     20  O   UNL     1       3.317  -3.205  -5.114  0.00  0.00    -0.485 OA
BRANCH  20  22
ATOM     21  C   UNL     1       4.386  -1.573  -3.688  0.00  0.00    +0.051 C 
ATOM     22  C   UNL     1       3.771  -2.971  -3.780  0.00  0.00    +0.168 C 
ATOM     23  C   UNL     1       4.824  -4.016  -3.408  0.00  0.00    +0.051 C 
ENDBRANCH  20  22
ENDBRANCH   1  20
TORSDOF 5
