REMARK  Name = ZINC12377847
REMARK  4 active torsions:
REMARK  status: ('A' for Active; 'I' for Inactive)
REMARK    1  A    between atoms: C_1  and  C_2
REMARK    2  A    between atoms: C_2  and  C_5
REMARK    3  A    between atoms: N_3  and  O_4
REMARK    4  A    between atoms: N_15  and  C_18
REMARK                            x       y       z     vdW  Elec       q    Type
REMARK                         _______ _______ _______ _____ _____    ______ ____
ROOT
ATOM      1  C   UNL     1      -0.000  -0.735  -1.280  0.00  0.00    +0.001 A 
ATOM      2  C   UNL     1      -0.015  -0.026  -2.487  0.00  0.00    +0.010 A 
ATOM      3  C   UNL     1      -0.018  -0.695  -3.676  0.00  0.00    +0.011 A 
ATOM      4  C   UNL     1      -0.005  -2.089  -3.695  0.00  0.00    +0.008 A 
ATOM      5  C   UNL     1      -0.003  -3.085  -4.782  0.00  0.00    +0.008 A 
ATOM      6  C   UNL     1      -0.014  -2.986  -6.171  0.00  0.00    +0.010 A 
ATOM      7  C   UNL     1      -0.009  -4.130  -6.939  0.00  0.00    +0.001 A 
ATOM      8  C   UNL     1       0.007  -5.378  -6.333  0.00  0.00    +0.002 A 
ATOM      9  C   UNL     1       0.018  -5.490  -4.960  0.00  0.00    +0.026 A 
ATOM     10  C   UNL     1       0.014  -4.346  -4.167  0.00  0.00    +0.050 A 
ATOM     11  N   UNL     1       0.022  -4.164  -2.796  0.00  0.00    -0.343 N 
ATOM     12  C   UNL     1       0.011  -2.813  -2.492  0.00  0.00    +0.050 A 
ATOM     13  C   UNL     1       0.019  -2.128  -1.284  0.00  0.00    +0.036 A 
ATOM     14  C   UNL     1       0.039  -5.245  -1.807  0.00  0.00    +0.149 C 
ENDROOT
BRANCH   1  16
ATOM     15  C   UNL     1      -0.018   1.503   0.010  0.00  0.00    +0.069 C 
ATOM     16  C   UNL     1       0.002  -0.004   0.002  0.00  0.00    +0.084 C 
ATOM     17  N   UNL     1       0.021  -0.657   1.119  0.00  0.00    -0.092 NA
BRANCH  17  18
ATOM     18  O   UNL     1       0.024   0.044   2.349  0.00  0.00    -0.409 OA
ATOM     19  H   UNL     1       0.039  -0.528   3.128  0.00  0.00    +0.328 HD
ENDBRANCH  17  18
ENDBRANCH   1  16
TORSDOF 2
