REMARK  Name = ZINC35894857
REMARK  5 active torsions:
REMARK  status: ('A' for Active; 'I' for Inactive)
REMARK    1  A    between atoms: C_6  and  N_7
REMARK    2  A    between atoms: C_11  and  C_25
REMARK    3  A    between atoms: N_18  and  C_20
REMARK    4  A    between atoms: N_27  and  C_28
REMARK    5  A    between atoms: C_28  and  C_29
REMARK                            x       y       z     vdW  Elec       q    Type
REMARK                         _______ _______ _______ _____ _____    ______ ____
ROOT
ATOM      1  C   UNL     1      -0.017   1.378   0.010  0.00  0.00    +0.034 A 
ATOM      2  C   UNL     1       1.169   2.085   0.002  0.00  0.00    +0.025 A 
ATOM      3  C   UNL     1       2.384   1.405  -0.015  0.00  0.00    +0.033 A 
ATOM      4  C   UNL     1       2.399   0.021  -0.025  0.00  0.00    -0.023 A 
ATOM      5  C   UNL     1       1.207  -0.681  -0.015  0.00  0.00    +0.038 A 
ATOM      6  C   UNL     1       0.002  -0.004   0.002  0.00  0.00    +0.127 A 
ATOM      7  C   UNL     1       3.700  -0.737  -0.053  0.00  0.00    +0.051 C 
ATOM      8  C   UNL     1       4.784   0.135  -0.685  0.00  0.00    +0.098 C 
ATOM      9  C   UNL     1       4.859   1.475   0.054  0.00  0.00    +0.069 C 
ATOM     10  N   UNL     1       3.573   2.152  -0.018  0.00  0.00    -0.329 N 
ATOM     11  C   UNL     1       3.453   3.611  -0.064  0.00  0.00    +0.087 C 
ATOM     12  C   UNL     1       4.638   4.224  -0.807  0.00  0.00    -0.059 C 
ATOM     13  N   UNL     1       5.878   3.713  -0.205  0.00  0.00    +0.384 N 
ATOM     14  C   UNL     1       6.006   2.291  -0.520  0.00  0.00    -0.055 C 
ATOM     15  H   UNL     1       5.843   3.835   0.796  0.00  0.00    -0.081 HD
ENDROOT
BRANCH  13  16
ATOM     16  C   UNL     1       7.028   4.443  -0.753  0.00  0.00    -0.068 C 
ATOM     17  C   UNL     1       8.329   3.965  -0.077  0.00  0.00    -0.015 C 
ATOM     18  C   UNL     1       9.181   5.251   0.062  0.00  0.00    -0.002 C 
ATOM     19  C   UNL     1       8.123   6.325   0.415  0.00  0.00    -0.002 C 
ATOM     20  C   UNL     1       6.897   5.944  -0.441  0.00  0.00    -0.015 C 
ENDBRANCH  13  16
BRANCH   8  21
ATOM     21  C   UNL     1       4.451   0.379  -2.135  0.00  0.00    +0.218 C 
ATOM     22  O   UNL     1       4.288   1.511  -2.537  0.00  0.00    -0.275 OA
ATOM     23  N   UNL     1       4.334  -0.661  -2.984  0.00  0.00    -0.313 N 
ATOM     24  H   UNL     1       4.464  -1.567  -2.662  0.00  0.00    +0.149 HD
BRANCH  23  25
ATOM     25  C   UNL     1       4.010  -0.424  -4.393  0.00  0.00    +0.135 C 
BRANCH  25  26
ATOM     26  C   UNL     1       3.936  -1.762  -5.131  0.00  0.00    +0.135 C 
ATOM     27  C   UNL     1       3.715  -1.516  -6.639  0.00  0.00    +0.035 C 
ATOM     28  C   UNL     1       2.721  -2.648  -7.016  0.00  0.00    +0.031 C 
ATOM     29  C   UNL     1       1.886  -2.751  -5.714  0.00  0.00    +0.160 C 
ATOM     30  O   UNL     1       2.824  -2.524  -4.647  0.00  0.00    -0.375 OA
ENDBRANCH  25  26
ENDBRANCH  23  25
ENDBRANCH   8  21
BRANCH   6  31
ATOM     31  N   UNL     1      -1.270  -0.760   0.012  0.00  0.00    +0.056 N 
ATOM     32  O   UNL     1      -2.325  -0.169   0.027  0.00  0.00    -0.126 OA
ATOM     33  O   UNL     1      -1.255  -1.969   0.005  0.00  0.00    -0.126 OA
ENDBRANCH   6  31
TORSDOF 5
