REMARK  Name = ZINC13639852
REMARK  5 active torsions:
REMARK  status: ('A' for Active; 'I' for Inactive)
REMARK    1  A    between atoms: C_3  and  C_9
REMARK    2  A    between atoms: C_4  and  O_8
REMARK    3  A    between atoms: C_6  and  O_7
REMARK    4  A    between atoms: C_20  and  S_25
REMARK    5  A    between atoms: S_25  and  N_28
REMARK                            x       y       z     vdW  Elec       q    Type
REMARK                         _______ _______ _______ _____ _____    ______ ____
ROOT
ATOM      1  C   UNL     1       2.629  -4.253  -2.648  0.00  0.00    +0.108 C 
ATOM      2  C   UNL     1       2.619  -2.793  -3.062  0.00  0.00    +0.029 C 
ATOM      3  C   UNL     1       3.394  -2.446  -4.336  0.00  0.00    +0.033 C 
ATOM      4  C   UNL     1       2.619  -1.220  -4.822  0.00  0.00    -0.030 C 
ATOM      5  C   UNL     1       1.366  -1.272  -4.385  0.00  0.00    -0.023 C 
ATOM      6  C   UNL     1       1.186  -2.527  -3.612  0.00  0.00    +0.049 C 
ATOM      7  C   UNL     1       0.239  -2.622  -2.481  0.00  0.00    -0.018 A 
ATOM      8  C   UNL     1      -0.891  -1.838  -2.393  0.00  0.00    +0.034 A 
ATOM      9  C   UNL     1      -1.763  -1.986  -1.330  0.00  0.00    +0.106 A 
ATOM     10  C   UNL     1      -1.508  -2.933  -0.354  0.00  0.00    +0.030 A 
ATOM     11  C   UNL     1      -0.379  -3.721  -0.432  0.00  0.00    +0.025 A 
ATOM     12  C   UNL     1       0.511  -3.571  -1.489  0.00  0.00    +0.031 A 
ATOM     13  N   UNL     1       1.668  -4.359  -1.528  0.00  0.00    -0.336 N 
ATOM     14  H   UNL     1       1.843  -4.984  -0.808  0.00  0.00    +0.147 HD
ENDROOT
BRANCH   1  17
ATOM     15  C   UNL     1       0.457  -6.309  -4.952  0.00  0.00    +0.046 A 
ATOM     16  C   UNL     1       0.867  -5.516  -3.896  0.00  0.00    +0.012 A 
ATOM     17  C   UNL     1       2.187  -5.123  -3.796  0.00  0.00    +0.015 A 
ATOM     18  C   UNL     1       3.109  -5.534  -4.749  0.00  0.00    +0.125 A 
ATOM     19  C   UNL     1       2.702  -6.335  -5.805  0.00  0.00    +0.091 A 
ATOM     20  C   UNL     1       1.375  -6.723  -5.907  0.00  0.00    +0.120 A 
BRANCH  20  21
ATOM     21  O   UNL     1       0.973  -7.507  -6.941  0.00  0.00    -0.507 OA
ATOM     22  H   UNL     1       1.030  -8.455  -6.762  0.00  0.00    +0.292 HD
ENDBRANCH  20  21
BRANCH  18  23
ATOM     23  O   UNL     1       4.409  -5.152  -4.647  0.00  0.00    -0.506 OA
ATOM     24  H   UNL     1       4.960  -5.763  -4.138  0.00  0.00    +0.292 HD
ENDBRANCH  18  23
ENDBRANCH   1  17
BRANCH   9  25
ATOM     25  S   UNL     1      -3.201  -0.974  -1.222  0.00  0.00    +0.061 S 
ATOM     26  O   UNL     1      -4.139  -1.686  -0.427  0.00  0.00    -0.153 OA
ATOM     27  O   UNL     1      -3.495  -0.544  -2.544  0.00  0.00    -0.153 OA
BRANCH  25  28
ATOM     28  N   UNL     1      -2.784   0.380  -0.365  0.00  0.00    -0.177 NA
ATOM     29  C   UNL     1      -2.281   1.542  -1.038  0.00  0.00    +0.109 C 
ATOM     30  C   UNL     1      -0.749   1.592  -1.257  0.00  0.00    +0.017 C 
ATOM     31  C   UNL     1      -0.013   1.086   0.008  0.00  0.00    +0.001 C 
ATOM     32  C   UNL     1      -0.703   1.564   1.253  0.00  0.00    +0.001 C 
ATOM     33  C   UNL     1      -1.581   0.401   1.701  0.00  0.00    +0.017 C 
ATOM     34  C   UNL     1      -2.928   0.411   1.129  0.00  0.00    +0.109 C 
ENDBRANCH  25  28
ENDBRANCH   9  25
TORSDOF 5
