REMARK  Name = ZINC08594798
REMARK  9 active torsions:
REMARK  status: ('A' for Active; 'I' for Inactive)
REMARK    1  A    between atoms: C_1  and  C_2
REMARK    2  A    between atoms: C_5  and  N_9
REMARK    3  A    between atoms: C_6  and  C_8
REMARK    4  A    between atoms: C_10  and  C_12
REMARK    5  A    between atoms: C_13  and  C_36
REMARK    6  A    between atoms: C_17  and  S_27
REMARK    7  A    between atoms: C_20  and  C_22
REMARK    8  A    between atoms: S_27  and  C_28
REMARK    9  A    between atoms: C_28  and  C_29
REMARK                            x       y       z     vdW  Elec       q    Type
REMARK                         _______ _______ _______ _____ _____    ______ ____
ROOT
ATOM      1  C   UNL     1       0.148  -6.247  -1.001  0.00  0.00    +0.061 C 
ATOM      2  C   UNL     1       0.220  -6.960  -2.135  0.00  0.00    +0.018 C 
ATOM      3  N   UNL     1       0.258  -8.333  -2.134  0.00  0.00    -0.287 N 
ATOM      4  C   UNL     1      -0.042  -8.980  -0.944  0.00  0.00    +0.219 A 
ATOM      5  N   UNL     1      -0.294 -10.240  -0.713  0.00  0.00    -0.187 NA
ATOM      6  C   UNL     1      -0.539 -10.416   0.594  0.00  0.00    +0.211 A 
ATOM      7  N   UNL     1      -0.441  -9.256   1.208  0.00  0.00    -0.141 NA
ATOM      8  N   UNL     1      -0.117  -8.313   0.234  0.00  0.00    -0.219 N 
ATOM      9  C   UNL     1       0.122  -6.877   0.366  0.00  0.00    +0.184 C 
ATOM     10  C   UNL     1       0.259  -6.231  -3.453  0.00  0.00    +0.061 C 
ATOM     11  H   UNL     1       0.486  -8.831  -2.935  0.00  0.00    +0.155 HD
ENDROOT
BRANCH   9  12
ATOM     12  C   UNL     1       1.444  -6.644   1.052  0.00  0.00    +0.019 A 
ATOM     13  C   UNL     1       1.699  -6.002   2.218  0.00  0.00    +0.013 A 
ATOM     14  C   UNL     1       3.005  -5.909   2.660  0.00  0.00    +0.008 A 
ATOM     15  C   UNL     1       3.992  -6.463   1.915  0.00  0.00    +0.045 A 
ATOM     16  S   UNL     1       3.079  -7.150   0.543  0.00  0.00    -0.099 S 
ENDBRANCH   9  12
BRANCH   1  18
ATOM     17  N   UNL     1       1.199  -4.148  -1.462  0.00  0.00    -0.281 N 
ATOM     18  C   UNL     1       0.101  -4.836  -1.094  0.00  0.00    +0.248 C 
ATOM     19  O   UNL     1      -0.933  -4.244  -0.842  0.00  0.00    -0.270 OA
ATOM     20  H   UNL     1       2.006  -4.622  -1.717  0.00  0.00    +0.155 HD
BRANCH  17  25
ATOM     21  C   UNL     1       1.106   1.524  -1.516  0.00  0.00    +0.044 C 
ATOM     22  C   UNL     1       1.131   0.017  -1.502  0.00  0.00    -0.050 A 
ATOM     23  C   UNL     1      -0.008  -0.695  -1.834  0.00  0.00    +0.005 A 
ATOM     24  C   UNL     1       0.012  -2.076  -1.821  0.00  0.00    +0.024 A 
ATOM     25  C   UNL     1       1.177  -2.750  -1.476  0.00  0.00    +0.037 A 
ATOM     26  C   UNL     1       2.318  -2.032  -1.143  0.00  0.00    -0.029 A 
ATOM     27  C   UNL     1       2.293  -0.651  -1.163  0.00  0.00    +0.008 A 
ATOM     28  C   UNL     1       3.583  -2.758  -0.767  0.00  0.00    +0.045 C 
ENDBRANCH  17  25
ENDBRANCH   1  18
BRANCH   6  29
ATOM     29  S   UNL     1      -0.929 -11.952   1.365  0.00  0.00    -0.080 S 
BRANCH  29  30
ATOM     30  C   UNL     1      -0.909 -13.145  -0.001  0.00  0.00    +0.112 C 
BRANCH  30  31
ATOM     31  C   UNL     1      -1.232 -14.519   0.528  0.00  0.00    -0.037 A 
ATOM     32  C   UNL     1      -0.215 -15.347   0.967  0.00  0.00    +0.006 A 
ATOM     33  C   UNL     1      -0.511 -16.607   1.452  0.00  0.00    +0.020 A 
ATOM     34  C   UNL     1      -1.824 -17.040   1.498  0.00  0.00    +0.041 A 
ATOM     35  C   UNL     1      -2.841 -16.211   1.058  0.00  0.00    +0.020 A 
ATOM     36  C   UNL     1      -2.545 -14.949   0.578  0.00  0.00    +0.006 A 
ATOM     37 CL   UNL     1      -2.195 -18.623   2.107  0.00  0.00    -0.084 Cl
ENDBRANCH  30  31
ENDBRANCH  29  30
ENDBRANCH   6  29
TORSDOF 6
