REMARK  Name = ZINC44686594
REMARK  5 active torsions:
REMARK  status: ('A' for Active; 'I' for Inactive)
REMARK    1  A    between atoms: C_3  and  S_9
REMARK    2  A    between atoms: C_6  and  N_7
REMARK    3  A    between atoms: S_9  and  N_12
REMARK    4  A    between atoms: N_12  and  C_13
REMARK    5  A    between atoms: N_17  and  C_19
REMARK                            x       y       z     vdW  Elec       q    Type
REMARK                         _______ _______ _______ _____ _____    ______ ____
ROOT
ATOM      1  S   UNL     1       3.954   2.341  -0.049  0.00  0.00    +0.060 S 
ATOM      2  O   UNL     1       4.906   1.851  -0.984  0.00  0.00    -0.153 OA
ATOM      3  O   UNL     1       3.478   3.679  -0.076  0.00  0.00    -0.153 OA
ENDROOT
BRANCH   1   6
ATOM      4  C   UNL     1       1.409  -0.540  -1.215  0.00  0.00    +0.025 A 
ATOM      5  C   UNL     1       2.517   0.277  -1.109  0.00  0.00    +0.031 A 
ATOM      6  C   UNL     1       2.538   1.300  -0.179  0.00  0.00    +0.119 A 
ATOM      7  C   UNL     1       1.450   1.508   0.649  0.00  0.00    +0.046 A 
ATOM      8  C   UNL     1       0.338   0.693   0.549  0.00  0.00    +0.040 A 
ATOM      9  C   UNL     1       0.314  -0.334  -0.385  0.00  0.00    +0.026 A 
ATOM     10 BR   UNL     1       1.484   2.908   1.920  0.00  0.00    -0.048 Br
BRANCH   9  11
ATOM     11  N   UNL     1      -0.808  -1.160  -0.489  0.00  0.00    -0.358 N 
ATOM     12  H   UNL     1      -0.823  -1.877  -1.141  0.00  0.00    +0.142 HD
ATOM     13  H   UNL     1      -1.572  -1.015   0.091  0.00  0.00    +0.142 HD
ENDBRANCH   9  11
ENDBRANCH   1   6
BRANCH   1  14
ATOM     14  N   UNL     1       4.602   2.099   1.456  0.00  0.00    -0.189 NA
ATOM     15  H   UNL     1       4.614   2.824   2.100  0.00  0.00    +0.148 HD
BRANCH  14  16
ATOM     16  C   UNL     1       5.156   0.791   1.814  0.00  0.00    +0.058 C 
ATOM     17  C   UNL     1       6.696   0.808   1.686  0.00  0.00    -0.000 C 
ATOM     18  C   UNL     1       7.161   1.076   3.140  0.00  0.00    -0.077 C 
ATOM     19  N   UNL     1       6.190   0.303   3.955  0.00  0.00    +0.383 N 
ATOM     20  C   UNL     1       4.876   0.480   3.296  0.00  0.00    -0.058 C 
ATOM     21  H   UNL     1       6.444  -0.674   3.966  0.00  0.00    -0.081 HD
BRANCH  19  22
ATOM     22  C   UNL     1       6.145   0.831   5.325  0.00  0.00    -0.069 C 
ATOM     23  C   UNL     1       6.674  -0.066   6.447  0.00  0.00    -0.017 C 
ATOM     24  C   UNL     1       5.170   0.175   6.304  0.00  0.00    -0.017 C 
ENDBRANCH  19  22
ENDBRANCH  14  16
ENDBRANCH   1  14
TORSDOF 5
