REMARK  Name = ZINC11110271
REMARK  11 active torsions:
REMARK  status: ('A' for Active; 'I' for Inactive)
REMARK    1  A    between atoms: C_1  and  C_2
REMARK    2  A    between atoms: C_7  and  N_12
REMARK    3  A    between atoms: C_9  and  C_11
REMARK    4  A    between atoms: C_16  and  C_18
REMARK    5  A    between atoms: C_18  and  O_19
REMARK    6  A    between atoms: O_19  and  C_20
REMARK    7  A    between atoms: C_20  and  C_22
REMARK    8  A    between atoms: C_26  and  S_28
REMARK    9  A    between atoms: S_28  and  N_31
REMARK   10  A    between atoms: N_31  and  C_32
REMARK   11  A    between atoms: N_31  and  C_33
REMARK                            x       y       z     vdW  Elec       q    Type
REMARK                         _______ _______ _______ _____ _____    ______ ____
ROOT
ATOM      1  C   UNL     1       1.557  -0.982  -0.865  0.00  0.00    +0.328 C 
ENDROOT
BRANCH   1   6
ATOM      2  N   UNL     1      -2.791  -2.941  -1.473  0.00  0.00    -0.296 N 
ATOM      3  C   UNL     1      -1.453  -3.092  -1.410  0.00  0.00    +0.306 C 
ATOM      4  O   UNL     1      -0.959  -4.192  -1.562  0.00  0.00    -0.252 OA
ATOM      5  N   UNL     1      -0.664  -2.025  -1.179  0.00  0.00    -0.237 N 
ATOM      6  C   UNL     1       0.674  -2.176  -1.117  0.00  0.00    +0.258 C 
ATOM      7  O   UNL     1       1.167  -3.274  -1.268  0.00  0.00    -0.272 OA
ATOM      8  H   UNL     1      -3.185  -2.063  -1.352  0.00  0.00    +0.151 HD
ATOM      9  H   UNL     1      -1.058  -1.147  -1.058  0.00  0.00    +0.159 HD
BRANCH   2  15
ATOM     10  C   UNL     1      -6.989  -2.210  -2.025  0.00  0.00    +0.008 C 
ATOM     11  C   UNL     1      -5.674  -2.675  -1.397  0.00  0.00    -0.009 C 
ATOM     12  C   UNL     1      -5.964  -3.390  -0.075  0.00  0.00    +0.003 C 
ATOM     13  C   UNL     1      -4.649  -3.854   0.553  0.00  0.00    +0.002 C 
ATOM     14  C   UNL     1      -3.939  -4.816  -0.402  0.00  0.00    +0.022 C 
ATOM     15  C   UNL     1      -3.649  -4.101  -1.724  0.00  0.00    +0.078 C 
ATOM     16  C   UNL     1      -4.964  -3.637  -2.352  0.00  0.00    +0.009 C 
ATOM     17  C   UNL     1      -4.674  -2.922  -3.673  0.00  0.00    +0.009 C 
ENDBRANCH   2  15
ENDBRANCH   1   6
BRANCH   1  18
ATOM     18  O   UNL     1       2.947  -1.401  -0.849  0.00  0.00    -0.452 OA
BRANCH  18  19
ATOM     19  C   UNL     1       3.872  -0.446  -0.634  0.00  0.00    +0.340 C 
ATOM     20  O   UNL     1       3.527   0.706  -0.465  0.00  0.00    -0.245 OA
BRANCH  19  21
ATOM     21  C   UNL     1       5.306  -0.800  -0.605  0.00  0.00    +0.061 A 
ATOM     22  C   UNL     1       5.705  -2.124  -0.800  0.00  0.00    +0.016 A 
ATOM     23  C   UNL     1       7.045  -2.448  -0.772  0.00  0.00    +0.023 A 
ATOM     24  C   UNL     1       7.994  -1.463  -0.551  0.00  0.00    +0.067 A 
ATOM     25  C   UNL     1       7.604  -0.148  -0.357  0.00  0.00    +0.124 A 
ATOM     26  C   UNL     1       6.267   0.189  -0.388  0.00  0.00    +0.045 A 
ATOM     27 CL   UNL     1       9.679  -1.878  -0.517  0.00  0.00    -0.082 Cl
BRANCH  25  28
ATOM     28  S   UNL     1       8.819   1.097  -0.077  0.00  0.00    +0.062 S 
ATOM     29  O   UNL     1       9.839   0.894  -1.045  0.00  0.00    -0.153 OA
ATOM     30  O   UNL     1       8.118   2.328   0.045  0.00  0.00    -0.153 OA
BRANCH  28  31
ATOM     31  N   UNL     1       9.501   0.792   1.401  0.00  0.00    -0.183 NA
ATOM     32  C   UNL     1      10.788   0.097   1.484  0.00  0.00    +0.131 C 
ATOM     33  C   UNL     1       8.818   1.217   2.625  0.00  0.00    +0.131 C 
ENDBRANCH  28  31
ENDBRANCH  25  28
ENDBRANCH  19  21
ENDBRANCH  18  19
ENDBRANCH   1  18
TORSDOF 7
