REMARK  Name = ZINC13690104
REMARK  5 active torsions:
REMARK  status: ('A' for Active; 'I' for Inactive)
REMARK    1  A    between atoms: C_1  and  N_2
REMARK    2  A    between atoms: N_2  and  C_3
REMARK    3  A    between atoms: C_3  and  C_4
REMARK    4  A    between atoms: C_4  and  O_5
REMARK    5  A    between atoms: C_20  and  C_22
REMARK                            x       y       z     vdW  Elec       q    Type
REMARK                         _______ _______ _______ _____ _____    ______ ____
ROOT
ATOM      1  C   UNL     1      -9.165   1.128   0.088  0.00  0.00    +0.132 C 
ATOM      2  N   UNL     1      -8.324   0.250   0.913  0.00  0.00    -0.300 N 
ATOM      3  C   UNL     1      -6.991   0.418   0.613  0.00  0.00    +0.222 A 
ATOM      4  N   UNL     1      -6.151   0.738   1.571  0.00  0.00    -0.207 NA
ATOM      5  C   UNL     1      -4.855   0.912   1.341  0.00  0.00    +0.116 A 
ATOM      6  C   UNL     1      -4.297   0.768   0.061  0.00  0.00    +0.055 A 
ATOM      7  C   UNL     1      -2.856   0.992  -0.038  0.00  0.00    -0.024 A 
ATOM      8  C   UNL     1      -2.205   1.310   1.101  0.00  0.00    -0.004 A 
ATOM      9  S   UNL     1      -3.459   1.334   2.354  0.00  0.00    -0.073 S 
ATOM     10  C   UNL     1      -0.738   1.584   1.266  0.00  0.00    +0.043 C 
ATOM     11  C   UNL     1      -0.013   1.086   0.008  0.00  0.00    +0.005 C 
ATOM     12  C   UNL     1      -0.760   1.596  -1.228  0.00  0.00    +0.005 C 
ATOM     13  C   UNL     1      -2.101   0.874  -1.360  0.00  0.00    +0.037 C 
ATOM     14  C   UNL     1      -5.254   0.410  -1.004  0.00  0.00    +0.170 A 
ATOM     15  N   UNL     1      -6.570   0.249  -0.675  0.00  0.00    -0.181 N 
ATOM     16  N   UNL     1      -7.232  -0.084  -1.866  0.00  0.00    -0.139 NA
ATOM     17  C   UNL     1      -6.320  -0.107  -2.821  0.00  0.00    +0.218 A 
ATOM     18  N   UNL     1      -5.125   0.192  -2.297  0.00  0.00    -0.203 NA
ENDROOT
BRANCH  17  19
ATOM     19  C   UNL     1      -6.579  -0.416  -4.243  0.00  0.00    +0.173 A 
ATOM     20  C   UNL     1      -7.787  -0.721  -4.786  0.00  0.00    +0.053 A 
ATOM     21  C   UNL     1      -7.570  -0.940  -6.161  0.00  0.00    +0.042 A 
ATOM     22  C   UNL     1      -6.254  -0.760  -6.387  0.00  0.00    +0.196 A 
ATOM     23  O   UNL     1      -5.659  -0.438  -5.227  0.00  0.00    -0.460 OA
ENDBRANCH  17  19
BRANCH   2  24
ATOM     24  C   UNL     1      -8.573   0.474   2.344  0.00  0.00    +0.135 C 
BRANCH  24  25
ATOM     25  C   UNL     1     -10.000   0.040   2.687  0.00  0.00    +0.174 C 
BRANCH  25  26
ATOM     26  O   UNL     1     -10.127  -1.371   2.498  0.00  0.00    -0.393 OA
ATOM     27  H   UNL     1     -11.007  -1.717   2.697  0.00  0.00    +0.209 HD
ENDBRANCH  25  26
ENDBRANCH  24  25
ENDBRANCH   2  24
TORSDOF 4
