REMARK  Name = ZINC13223232
REMARK  6 active torsions:
REMARK  status: ('A' for Active; 'I' for Inactive)
REMARK    1  A    between atoms: N_9  and  C_24
REMARK    2  A    between atoms: C_10  and  S_12
REMARK    3  A    between atoms: S_12  and  C_13
REMARK    4  A    between atoms: C_13  and  C_14
REMARK    5  A    between atoms: N_16  and  C_17
REMARK    6  A    between atoms: C_24  and  C_25
REMARK                            x       y       z     vdW  Elec       q    Type
REMARK                         _______ _______ _______ _____ _____    ______ ____
ROOT
ATOM      1  C   UNL     1      -3.969   1.190   4.703  0.00  0.00    +0.001 A 
ATOM      2  C   UNL     1      -3.544   2.411   5.209  0.00  0.00    +0.002 A 
ATOM      3  C   UNL     1      -2.541   3.113   4.602  0.00  0.00    +0.028 A 
ATOM      4  C   UNL     1      -1.931   2.596   3.454  0.00  0.00    +0.079 A 
ATOM      5  C   UNL     1      -2.367   1.353   2.943  0.00  0.00    +0.065 A 
ATOM      6  C   UNL     1      -3.393   0.658   3.583  0.00  0.00    +0.015 A 
ATOM      7  C   UNL     1      -1.711   0.830   1.736  0.00  0.00    +0.263 A 
ATOM      8  O   UNL     1      -2.042  -0.235   1.248  0.00  0.00    -0.267 OA
ATOM      9  N   UNL     1      -0.725   1.577   1.188  0.00  0.00    -0.276 N 
ATOM     10  C   UNL     1      -0.363   2.767   1.752  0.00  0.00    +0.173 A 
ATOM     11  N   UNL     1      -0.938   3.254   2.824  0.00  0.00    -0.223 NA
ENDROOT
BRANCH  10  12
ATOM     12  S   UNL     1       0.932   3.694   0.999  0.00  0.00    -0.078 S 
BRANCH  12  13
ATOM     13  C   UNL     1       0.990   5.118   2.115  0.00  0.00    +0.173 C 
BRANCH  13  14
ATOM     14  C   UNL     1       2.059   6.075   1.654  0.00  0.00    +0.228 C 
ATOM     15  O   UNL     1       2.717   5.820   0.668  0.00  0.00    -0.275 OA
ATOM     16  N   UNL     1       2.283   7.215   2.338  0.00  0.00    -0.284 N 
ATOM     17  H   UNL     1       1.715   7.451   3.087  0.00  0.00    +0.155 HD
BRANCH  16  18
ATOM     18  C   UNL     1       3.337   8.057   1.966  0.00  0.00    +0.047 A 
ATOM     19  C   UNL     1       3.681   8.193   0.627  0.00  0.00    +0.024 A 
ATOM     20  C   UNL     1       4.718   9.029   0.264  0.00  0.00    +0.002 A 
ATOM     21  C   UNL     1       5.421   9.723   1.231  0.00  0.00    +0.001 A 
ATOM     22  C   UNL     1       5.085   9.587   2.565  0.00  0.00    +0.016 A 
ATOM     23  C   UNL     1       4.045   8.756   2.936  0.00  0.00    +0.035 A 
ATOM     24  I   UNL     1       3.536   8.550   4.958  0.00  0.00    -0.042 I 
ENDBRANCH  16  18
ENDBRANCH  13  14
ENDBRANCH  12  13
ENDBRANCH  10  12
BRANCH   9  25
ATOM     25  C   UNL     1      -0.036   1.104  -0.015  0.00  0.00    +0.252 C 
BRANCH  25  26
ATOM     26  C   UNL     1      -0.757   1.609  -1.238  0.00  0.00    +0.375 C 
ATOM     27  O   UNL     1      -1.744   2.295  -1.117  0.00  0.00    -0.244 OA
ATOM     28  O   UNL     1      -0.302   1.298  -2.462  0.00  0.00    -0.244 OA
ENDBRANCH  25  26
ENDBRANCH   9  25
TORSDOF 6
