REMARK  Name = ZINC08914722
REMARK  3 active torsions:
REMARK  status: ('A' for Active; 'I' for Inactive)
REMARK    1  A    between atoms: C_1  and  C_2
REMARK    2  A    between atoms: C_5  and  C_22
REMARK    3  A    between atoms: C_8  and  C_12
REMARK                            x       y       z     vdW  Elec       q    Type
REMARK                         _______ _______ _______ _____ _____    ______ ____
ROOT
ATOM      1  C   UNL     1      -0.018   1.503   0.010  0.00  0.00    +0.085 C 
ATOM      2  C   UNL     1       0.002  -0.004   0.002  0.00  0.00    +0.117 C 
ATOM      3  N   UNL     1       0.008  -0.747  -1.058  0.00  0.00    -0.166 NA
ATOM      4  N   UNL     1       0.028  -2.085  -0.658  0.00  0.00    -0.182 N 
ATOM      5  C   UNL     1       0.042  -3.357  -1.391  0.00  0.00    +0.156 C 
ATOM      6  C   UNL     1       0.063  -4.620  -0.549  0.00  0.00    +0.030 C 
ATOM      7  C   UNL     1       0.067  -4.471   0.790  0.00  0.00    +0.073 C 
ATOM      8  N   UNL     1       0.053  -3.245   1.370  0.00  0.00    -0.217 NA
ATOM      9  C   UNL     1       0.034  -2.112   0.706  0.00  0.00    +0.209 C 
ATOM     10  N   UNL     1       0.024  -0.805   1.118  0.00  0.00    -0.273 N 
ATOM     11  H   UNL     1       0.028  -0.498   2.038  0.00  0.00    +0.156 HD
ENDROOT
BRANCH   7  12
ATOM     12  C   UNL     1       0.086  -5.679   1.652  0.00  0.00    +0.001 A 
ATOM     13  C   UNL     1       0.107  -6.954   1.063  0.00  0.00    +0.010 A 
ATOM     14  C   UNL     1       0.125  -8.075   1.830  0.00  0.00    +0.009 A 
ATOM     15  C   UNL     1       0.124  -7.967   3.232  0.00  0.00    -0.018 A 
ATOM     16  C   UNL     1       0.143  -9.112   4.048  0.00  0.00    +0.008 A 
ATOM     17  C   UNL     1       0.142  -8.975   5.402  0.00  0.00    +0.001 A 
ATOM     18  C   UNL     1       0.122  -7.715   5.997  0.00  0.00    +0.001 A 
ATOM     19  C   UNL     1       0.103  -6.584   5.240  0.00  0.00    +0.008 A 
ATOM     20  C   UNL     1       0.104  -6.685   3.837  0.00  0.00    -0.017 A 
ATOM     21  C   UNL     1       0.091  -5.539   3.027  0.00  0.00    +0.018 A 
ENDBRANCH   7  12
BRANCH   5  22
ATOM     22  C   UNL     1      -1.180  -3.404  -2.271  0.00  0.00    -0.021 A 
ATOM     23  C   UNL     1      -2.389  -2.925  -1.801  0.00  0.00    +0.006 A 
ATOM     24  C   UNL     1      -3.510  -2.967  -2.609  0.00  0.00    +0.000 A 
ATOM     25  C   UNL     1      -3.422  -3.488  -3.886  0.00  0.00    +0.000 A 
ATOM     26  C   UNL     1      -2.213  -3.966  -4.356  0.00  0.00    +0.000 A 
ATOM     27  C   UNL     1      -1.091  -3.920  -3.550  0.00  0.00    +0.006 A 
ENDBRANCH   5  22
TORSDOF 2
