REMARK  Name = ZINC04852880
REMARK  6 active torsions:
REMARK  status: ('A' for Active; 'I' for Inactive)
REMARK    1  A    between atoms: C_1  and  C_2
REMARK    2  A    between atoms: C_5  and  N_9
REMARK    3  A    between atoms: C_16  and  C_28
REMARK    4  A    between atoms: C_21  and  C_24
REMARK    5  A    between atoms: C_24  and  O_26
REMARK    6  A    between atoms: O_26  and  C_27
REMARK                            x       y       z     vdW  Elec       q    Type
REMARK                         _______ _______ _______ _____ _____    ______ ____
ROOT
ATOM      1  N   UNL     1       0.496   3.637   1.031  0.00  0.00    -0.216 N 
ATOM      2  C   UNL     1       1.363   3.094   0.163  0.00  0.00    +0.310 C 
ATOM      3  O   UNL     1       2.370   3.711  -0.122  0.00  0.00    -0.252 OA
ATOM      4  N   UNL     1       1.157   1.893  -0.403  0.00  0.00    -0.292 N 
ATOM      5  C   UNL     1      -0.092   1.162  -0.132  0.00  0.00    +0.114 C 
ATOM      6  C   UNL     1      -0.455   1.395   1.344  0.00  0.00    +0.096 C 
ATOM      7  C   UNL     1      -0.691   2.922   1.491  0.00  0.00    +0.185 C 
ATOM      8  O   UNL     1      -1.834   3.286   0.722  0.00  0.00    -0.468 OA
ATOM      9  C   UNL     1      -1.964   2.786  -0.532  0.00  0.00    +0.128 A 
ATOM     10  C   UNL     1      -1.168   1.771  -1.003  0.00  0.00    +0.015 A 
ATOM     11  C   UNL     1      -1.326   1.268  -2.276  0.00  0.00    +0.024 A 
ATOM     12  C   UNL     1      -2.307   1.810  -3.110  0.00  0.00    +0.060 A 
ATOM     13  C   UNL     1      -3.114   2.851  -2.642  0.00  0.00    +0.018 A 
ATOM     14  C   UNL     1      -2.941   3.332  -1.365  0.00  0.00    +0.047 A 
ATOM     15  C   UNL     1      -0.944   3.252   2.963  0.00  0.00    +0.079 C 
ATOM     16  H   UNL     1       1.829   1.509  -0.988  0.00  0.00    +0.151 HD
ENDROOT
BRANCH   1  21
ATOM     17  C   UNL     1       1.480   8.874   2.984  0.00  0.00    +0.047 C 
ATOM     18  C   UNL     1       1.218   7.484   2.465  0.00  0.00    -0.015 A 
ATOM     19  C   UNL     1       1.814   6.396   3.076  0.00  0.00    +0.008 A 
ATOM     20  C   UNL     1       1.576   5.120   2.603  0.00  0.00    +0.024 A 
ATOM     21  C   UNL     1       0.738   4.929   1.512  0.00  0.00    +0.044 A 
ATOM     22  C   UNL     1       0.144   6.022   0.896  0.00  0.00    +0.062 A 
ATOM     23  C   UNL     1       0.381   7.298   1.377  0.00  0.00    +0.128 A 
ATOM     24  F   UNL     1      -0.200   8.363   0.782  0.00  0.00    -0.205 F 
ENDBRANCH   1  21
BRANCH  12  25
ATOM     25  C   UNL     1      -2.490   1.287  -4.477  0.00  0.00    +0.339 C 
ATOM     26  O   UNL     1      -1.786   0.383  -4.881  0.00  0.00    -0.245 OA
BRANCH  25  27
ATOM     27  O   UNL     1      -3.437   1.813  -5.278  0.00  0.00    -0.464 OA
ATOM     28  C   UNL     1      -3.560   1.249  -6.611  0.00  0.00    +0.280 C 
ENDBRANCH  25  27
ENDBRANCH  12  25
TORSDOF 3
