REMARK  Name = ZINC05603928
REMARK  5 active torsions:
REMARK  status: ('A' for Active; 'I' for Inactive)
REMARK    1  A    between atoms: C_4  and  N_7
REMARK    2  A    between atoms: C_12  and  C_20
REMARK    3  A    between atoms: C_14  and  C_18
REMARK    4  A    between atoms: C_15  and  N_17
REMARK    5  A    between atoms: C_27  and  C_29
REMARK                            x       y       z     vdW  Elec       q    Type
REMARK                         _______ _______ _______ _____ _____    ______ ____
ROOT
ATOM      1  N   UNL     1       0.002  -0.004   0.002  0.00  0.00    -0.185 N 
ATOM      2  C   UNL     1      -1.150  -0.906   0.008  0.00  0.00    +0.294 C 
ATOM      3  C   UNL     1      -0.597  -2.148   0.724  0.00  0.00    +0.118 C 
ATOM      4  C   UNL     1      -0.686  -1.978   2.244  0.00  0.00    +0.079 C 
ATOM      5  C   UNL     1      -1.940  -1.281   2.664  0.00  0.00    +0.094 C 
ATOM      6  C   UNL     1      -2.665  -0.519   1.817  0.00  0.00    +0.194 C 
ATOM      7  O   UNL     1      -2.338  -0.405   0.532  0.00  0.00    -0.455 OA
ATOM      8  C   UNL     1       0.891  -2.029   0.384  0.00  0.00    +0.148 C 
ATOM      9  N   UNL     1       1.133  -0.840  -0.019  0.00  0.00    -0.176 NA
ENDROOT
BRANCH   4  10
ATOM     10  C   UNL     1      -0.645  -3.338   2.891  0.00  0.00    -0.038 A 
ATOM     11  C   UNL     1      -1.621  -4.272   2.598  0.00  0.00    +0.007 A 
ATOM     12  C   UNL     1      -1.581  -5.522   3.187  0.00  0.00    +0.038 A 
ATOM     13  C   UNL     1      -0.570  -5.834   4.080  0.00  0.00    +0.123 A 
ATOM     14  C   UNL     1       0.404  -4.896   4.377  0.00  0.00    +0.038 A 
ATOM     15  C   UNL     1       0.366  -3.649   3.782  0.00  0.00    +0.007 A 
ATOM     16  F   UNL     1      -0.533  -7.054   4.660  0.00  0.00    -0.205 F 
ENDBRANCH   4  10
BRANCH   1  20
ATOM     17  C   UNL     1      -0.054   4.159   0.024  0.00  0.00    +0.000 A 
ATOM     18  C   UNL     1       1.153   3.485   0.009  0.00  0.00    +0.002 A 
ATOM     19  C   UNL     1       1.176   2.105   0.002  0.00  0.00    +0.025 A 
ATOM     20  C   UNL     1      -0.017   1.392   0.010  0.00  0.00    +0.055 A 
ATOM     21  C   UNL     1      -1.229   2.072   0.019  0.00  0.00    +0.025 A 
ATOM     22  C   UNL     1      -1.244   3.453   0.032  0.00  0.00    +0.002 A 
ENDBRANCH   1  20
BRANCH   8  23
ATOM     23  C   UNL     1       1.907  -3.136   0.500  0.00  0.00    +0.432 C 
ATOM     24  F   UNL     1       3.162  -2.662   0.103  0.00  0.00    -0.165 F 
ATOM     25  F   UNL     1       1.971  -3.572   1.828  0.00  0.00    -0.165 F 
ATOM     26  F   UNL     1       1.530  -4.203  -0.323  0.00  0.00    -0.165 F 
ENDBRANCH   8  23
BRANCH   6  27
ATOM     27  N   UNL     1      -3.763   0.151   2.295  0.00  0.00    -0.329 N 
ATOM     28  H   UNL     1      -4.009   0.074   3.230  0.00  0.00    +0.145 HD
ATOM     29  H   UNL     1      -4.293   0.702   1.698  0.00  0.00    +0.145 HD
ENDBRANCH   6  27
BRANCH   5  30
ATOM     30  C   UNL     1      -2.390  -1.426   4.016  0.00  0.00    +0.100 C 
ATOM     31  N   UNL     1      -2.746  -1.542   5.088  0.00  0.00    -0.191 NA
ENDBRANCH   5  30
TORSDOF 5
