REMARK  Name = ZINC00960073
REMARK  5 active torsions:
REMARK  status: ('A' for Active; 'I' for Inactive)
REMARK    1  A    between atoms: C_4  and  N_11
REMARK    2  A    between atoms: C_5  and  C_7
REMARK    3  A    between atoms: C_12  and  C_14
REMARK    4  A    between atoms: C_14  and  S_15
REMARK    5  A    between atoms: S_15  and  C_16
REMARK                            x       y       z     vdW  Elec       q    Type
REMARK                         _______ _______ _______ _____ _____    ______ ____
ROOT
ATOM      1  C   UNL     1      -4.878   0.016  -0.166  0.00  0.00    +0.173 C 
ENDROOT
BRANCH   1   3
ATOM      2  N   UNL     1      -2.413  -0.035   0.025  0.00  0.00    -0.284 N 
ATOM      3  C   UNL     1      -3.568  -0.722  -0.069  0.00  0.00    +0.227 C 
ATOM      4  O   UNL     1      -3.554  -1.935  -0.076  0.00  0.00    -0.275 OA
ATOM      5  H   UNL     1      -2.429   0.931   0.112  0.00  0.00    +0.155 HD
BRANCH   2   9
ATOM      6  C   UNL     1       1.228  -2.059  -0.054  0.00  0.00    +0.001 A 
ATOM      7  C   UNL     1       0.111  -2.624  -0.642  0.00  0.00    +0.002 A 
ATOM      8  C   UNL     1      -1.097  -1.956  -0.618  0.00  0.00    +0.024 A 
ATOM      9  C   UNL     1      -1.190  -0.714  -0.002  0.00  0.00    +0.045 A 
ATOM     10  C   UNL     1      -0.067  -0.150   0.588  0.00  0.00    +0.076 A 
ATOM     11  C   UNL     1       1.140  -0.821   0.555  0.00  0.00    +0.014 A 
BRANCH  10  12
ATOM     12  C   UNL     1      -0.163   1.197   1.258  0.00  0.00    +0.419 C 
ATOM     13  F   UNL     1       1.088   1.552   1.773  0.00  0.00    -0.166 F 
ATOM     14  F   UNL     1      -0.571   2.155   0.323  0.00  0.00    -0.166 F 
ATOM     15  F   UNL     1      -1.096   1.135   2.299  0.00  0.00    -0.166 F 
ENDBRANCH  10  12
ENDBRANCH   2   9
ENDBRANCH   1   3
BRANCH   1  16
ATOM     16  S   UNL     1      -6.236  -1.176  -0.279  0.00  0.00    -0.078 S 
BRANCH  16  17
ATOM     17  C   UNL     1      -7.605  -0.071  -0.378  0.00  0.00    +0.170 A 
ATOM     18  N   UNL     1      -8.870  -0.576  -0.479  0.00  0.00    -0.301 N 
ATOM     19  H   UNL     1      -8.999  -1.537  -0.496  0.00  0.00    +0.171 HD
ATOM     20  C   UNL     1      -9.941   0.236  -0.557  0.00  0.00    +0.261 A 
ATOM     21  O   UNL     1     -11.064  -0.228  -0.648  0.00  0.00    -0.267 OA
ATOM     22  C   UNL     1      -9.739   1.652  -0.531  0.00  0.00    +0.075 A 
ATOM     23  C   UNL     1     -10.758   2.713  -0.603  0.00  0.00    -0.023 A 
ATOM     24  C   UNL     1     -10.318   3.981  -0.557  0.00  0.00    -0.004 A 
ATOM     25  S   UNL     1      -8.550   3.851  -0.421  0.00  0.00    -0.073 S 
ATOM     26  C   UNL     1      -8.409   2.083  -0.424  0.00  0.00    +0.117 A 
ATOM     27  N   UNL     1      -7.394   1.229  -0.347  0.00  0.00    -0.216 NA
ATOM     28  C   UNL     1     -11.445   4.976  -0.633  0.00  0.00    +0.043 C 
ATOM     29  C   UNL     1     -12.711   4.155  -0.302  0.00  0.00    +0.010 C 
ATOM     30  C   UNL     1     -12.284   2.736  -0.729  0.00  0.00    +0.037 C 
ENDBRANCH  16  17
ENDBRANCH   1  16
TORSDOF 5
