REMARK  Name = ZINC26919716
REMARK  8 active torsions:
REMARK  status: ('A' for Active; 'I' for Inactive)
REMARK    1  A    between atoms: C_1  and  C_2
REMARK    2  A    between atoms: C_2  and  C_3
REMARK    3  A    between atoms: C_3  and  N_4
REMARK    4  A    between atoms: N_4  and  S_5
REMARK    5  A    between atoms: S_5  and  C_8
REMARK    6  A    between atoms: C_15  and  N_17
REMARK    7  A    between atoms: N_17  and  S_18
REMARK    8  A    between atoms: S_18  and  C_21
REMARK                            x       y       z     vdW  Elec       q    Type
REMARK                         _______ _______ _______ _____ _____    ______ ____
ROOT
ATOM      1  C   UNL     1       2.781  -2.397  -3.057  0.00  0.00    +0.106 A 
ATOM      2  C   UNL     1       3.080  -1.304  -3.857  0.00  0.00    +0.030 A 
ATOM      3  C   UNL     1       4.373  -0.987  -4.182  0.00  0.00    +0.031 A 
ATOM      4  C   UNL     1       5.450  -1.770  -3.708  0.00  0.00    +0.080 A 
ATOM      5  C   UNL     1       5.108  -2.875  -2.895  0.00  0.00    +0.043 A 
ATOM      6  C   UNL     1       3.811  -3.182  -2.570  0.00  0.00    +0.045 A 
ATOM      7  S   UNL     1       6.697  -3.574  -2.518  0.00  0.00    -0.049 S 
ATOM      8  C   UNL     1       7.684  -2.397  -3.432  0.00  0.00    +0.202 A 
ATOM      9  N   UNL     1       6.771  -1.596  -3.933  0.00  0.00    -0.222 NA
ENDROOT
BRANCH   1  10
ATOM     10  S   UNL     1       1.107  -2.778  -2.658  0.00  0.00    +0.058 S 
ATOM     11  O   UNL     1       1.070  -4.162  -2.340  0.00  0.00    -0.153 OA
ATOM     12  O   UNL     1       0.306  -2.210  -3.685  0.00  0.00    -0.153 OA
BRANCH  10  13
ATOM     13  N   UNL     1       0.738  -1.962  -1.265  0.00  0.00    -0.190 NA
ATOM     14  H   UNL     1       0.535  -2.455  -0.454  0.00  0.00    +0.148 HD
BRANCH  13  15
ATOM     15  C   UNL     1       0.718  -0.497  -1.257  0.00  0.00    +0.105 C 
BRANCH  15  17
ATOM     16  C   UNL     1      -0.019   1.526   0.010  0.00  0.00    +0.005 C 
ATOM     17  C   UNL     1       0.002  -0.004   0.002  0.00  0.00    +0.013 C 
ENDBRANCH  15  17
ENDBRANCH  13  15
ENDBRANCH  10  13
ENDBRANCH   1  10
BRANCH   8  18
ATOM     18  N   UNL     1       9.055  -2.343  -3.575  0.00  0.00    -0.070 NA
BRANCH  18  19
ATOM     19  S   UNL     1       9.746  -1.142  -4.482  0.00  0.00    +0.093 S 
ATOM     20  O   UNL     1       9.339  -1.363  -5.826  0.00  0.00    -0.148 OA
ATOM     21  O   UNL     1       9.494   0.079  -3.801  0.00  0.00    -0.148 OA
BRANCH  19  22
ATOM     22  C   UNL     1      11.490  -1.393  -4.437  0.00  0.00    +0.111 A 
ATOM     23  C   UNL     1      12.247  -0.803  -3.442  0.00  0.00    +0.030 A 
ATOM     24  C   UNL     1      13.615  -1.000  -3.406  0.00  0.00    +0.017 A 
ATOM     25  C   UNL     1      14.226  -1.788  -4.365  0.00  0.00    +0.018 A 
ATOM     26  C   UNL     1      13.467  -2.378  -5.360  0.00  0.00    +0.017 A 
ATOM     27  C   UNL     1      12.099  -2.185  -5.393  0.00  0.00    +0.030 A 
ATOM     28 BR   UNL     1      16.097  -2.057  -4.316  0.00  0.00    -0.050 Br
ENDBRANCH  19  22
ENDBRANCH  18  19
ENDBRANCH   8  18
TORSDOF 7
