REMARK  Name = ZINC36586956
REMARK  13 active torsions:
REMARK  status: ('A' for Active; 'I' for Inactive)
REMARK    1  A    between atoms: C_1  and  C_2
REMARK    2  A    between atoms: C_2  and  C_4
REMARK    3  A    between atoms: C_2  and  C_10
REMARK    4  A    between atoms: C_10  and  C_12
REMARK    5  A    between atoms: C_10  and  N_21
REMARK    6  A    between atoms: N_14  and  C_15
REMARK    7  A    between atoms: N_21  and  C_32
REMARK    8  A    between atoms: C_22  and  C_24
REMARK    9  A    between atoms: C_28  and  O_31
REMARK   10  A    between atoms: C_29  and  O_30
REMARK   11  A    between atoms: C_32  and  C_33
REMARK   12  A    between atoms: C_32  and  C_34
REMARK   13  A    between atoms: C_32  and  C_35
REMARK                            x       y       z     vdW  Elec       q    Type
REMARK                         _______ _______ _______ _____ _____    ______ ____
ROOT
ATOM      1  C   UNL     1       2.619  -2.450   0.016  0.00  0.00    +0.170 C 
ENDROOT
BRANCH   1   2
ATOM      2  C   UNL     1       2.762  -3.898  -0.378  0.00  0.00    +0.234 C 
ATOM      3  O   UNL     1       3.272  -4.190  -1.439  0.00  0.00    -0.274 OA
ATOM      4  N   UNL     1       2.323  -4.868   0.448  0.00  0.00    -0.311 N 
ATOM      5  H   UNL     1       1.916  -4.635   1.297  0.00  0.00    +0.149 HD
BRANCH   4   6
ATOM      6  C   UNL     1       2.462  -6.275   0.065  0.00  0.00    +0.073 C 
ATOM      7  C   UNL     1       1.275  -6.686  -0.809  0.00  0.00    +0.022 C 
ATOM      8  C   UNL     1       1.421  -8.155  -1.209  0.00  0.00    +0.002 C 
ATOM      9  C   UNL     1       1.453  -9.025   0.049  0.00  0.00    +0.000 C 
ATOM     10  C   UNL     1       2.640  -8.615   0.923  0.00  0.00    +0.002 C 
ATOM     11  C   UNL     1       2.495  -7.146   1.323  0.00  0.00    +0.022 C 
ENDBRANCH   4   6
ENDBRANCH   1   2
BRANCH   1  12
ATOM     12  N   UNL     1       3.216  -1.601  -1.018  0.00  0.00    -0.280 N 
ATOM     13  C   UNL     1       4.425  -1.910  -1.528  0.00  0.00    +0.251 C 
ATOM     14  O   UNL     1       4.846  -3.048  -1.448  0.00  0.00    -0.270 OA
BRANCH  13  15
ATOM     15  C   UNL     1       5.237  -0.867  -2.183  0.00  0.00    +0.082 A 
ATOM     16  C   UNL     1       4.615   0.203  -2.834  0.00  0.00    +0.017 A 
ATOM     17  C   UNL     1       5.376   1.175  -3.444  0.00  0.00    +0.005 A 
ATOM     18  C   UNL     1       6.759   1.100  -3.418  0.00  0.00    +0.049 A 
ATOM     19  C   UNL     1       7.390   0.046  -2.778  0.00  0.00    +0.159 A 
ATOM     20  C   UNL     1       6.635  -0.940  -2.152  0.00  0.00    +0.171 A 
BRANCH  20  21
ATOM     21  O   UNL     1       7.250  -1.972  -1.519  0.00  0.00    -0.503 OA
ATOM     22  H   UNL     1       7.420  -2.736  -2.086  0.00  0.00    +0.292 HD
ENDBRANCH  20  21
BRANCH  19  23
ATOM     23  O   UNL     1       8.748  -0.021  -2.757  0.00  0.00    -0.503 OA
ATOM     24  H   UNL     1       9.152   0.423  -1.999  0.00  0.00    +0.292 HD
ENDBRANCH  19  23
ENDBRANCH  13  15
BRANCH  12  25
ATOM     25  C   UNL     1       2.499  -0.417  -1.497  0.00  0.00    +0.030 C 
ATOM     26  C   UNL     1       1.237  -0.211  -0.658  0.00  0.00    +0.031 C 
ATOM     27  C   UNL     1       3.402   0.812  -1.370  0.00  0.00    +0.031 C 
ATOM     28  C   UNL     1       2.111  -0.615  -2.963  0.00  0.00    +0.031 C 
ENDBRANCH  12  25
ENDBRANCH   1  12
BRANCH   1  30
ATOM     29  C   UNL     1       3.173  -0.746   1.757  0.00  0.00    +0.015 C 
ATOM     30  C   UNL     1       3.334  -2.212   1.348  0.00  0.00    +0.045 C 
BRANCH  30  31
ATOM     31  C   UNL     1       4.798  -2.533   1.197  0.00  0.00    -0.042 A 
ATOM     32  C   UNL     1       5.672  -1.572   0.726  0.00  0.00    +0.004 A 
ATOM     33  C   UNL     1       7.016  -1.867   0.587  0.00  0.00    +0.000 A 
ATOM     34  C   UNL     1       7.485  -3.123   0.920  0.00  0.00    +0.000 A 
ATOM     35  C   UNL     1       6.611  -4.085   1.392  0.00  0.00    +0.000 A 
ATOM     36  C   UNL     1       5.269  -3.788   1.535  0.00  0.00    +0.004 A 
ENDBRANCH  30  31
ENDBRANCH   1  30
TORSDOF 9
