REMARK  Name = ZINC67586932
REMARK  4 active torsions:
REMARK  status: ('A' for Active; 'I' for Inactive)
REMARK    1  A    between atoms: C_4  and  N_7
REMARK    2  A    between atoms: C_8  and  C_12
REMARK    3  A    between atoms: C_17  and  C_18
REMARK    4  A    between atoms: C_18  and  O_19
REMARK                            x       y       z     vdW  Elec       q    Type
REMARK                         _______ _______ _______ _____ _____    ______ ____
ROOT
ATOM      1  N   UNL     1       3.608  -0.680  -0.074  0.00  0.00    -0.193 N 
ATOM      2  C   UNL     1       3.949  -1.787   0.646  0.00  0.00    +0.187 A 
ATOM      3  N   UNL     1       5.210  -2.049   0.373  0.00  0.00    -0.108 NA
ATOM      4  N   UNL     1       5.678  -1.191  -0.460  0.00  0.00    -0.022 NA
ATOM      5  N   UNL     1       4.771  -0.333  -0.784  0.00  0.00    -0.039 NA
ENDROOT
BRANCH   1   9
ATOM      6  C   UNL     1      -0.086   1.248  -0.166  0.00  0.00    +0.000 A 
ATOM      7  C   UNL     1       0.431   0.804   1.038  0.00  0.00    +0.002 A 
ATOM      8  C   UNL     1       1.655   0.165   1.071  0.00  0.00    +0.028 A 
ATOM      9  C   UNL     1       2.366  -0.032  -0.105  0.00  0.00    +0.069 A 
ATOM     10  C   UNL     1       1.845   0.415  -1.312  0.00  0.00    +0.028 A 
ATOM     11  C   UNL     1       0.620   1.054  -1.338  0.00  0.00    +0.002 A 
ENDBRANCH   1   9
BRANCH   2  12
ATOM     12  C   UNL     1       3.069  -2.549   1.560  0.00  0.00    +0.026 A 
ATOM     13  C   UNL     1       1.787  -2.918   1.153  0.00  0.00    +0.012 A 
ATOM     14  C   UNL     1       0.972  -3.628   2.010  0.00  0.00    +0.001 A 
ATOM     15  C   UNL     1       1.423  -3.973   3.272  0.00  0.00    +0.000 A 
ATOM     16  C   UNL     1       2.693  -3.609   3.682  0.00  0.00    +0.006 A 
ATOM     17  C   UNL     1       3.521  -2.905   2.831  0.00  0.00    -0.011 A 
BRANCH  17  18
ATOM     18  C   UNL     1       4.906  -2.515   3.277  0.00  0.00    +0.191 C 
BRANCH  18  19
ATOM     19  O   UNL     1       5.131  -2.991   4.606  0.00  0.00    -0.390 OA
ATOM     20  H   UNL     1       6.005  -2.776   4.958  0.00  0.00    +0.210 HD
ENDBRANCH  18  19
ENDBRANCH  17  18
ENDBRANCH   2  12
TORSDOF 4
