REMARK  Name = ZINC04410218
REMARK  3 active torsions:
REMARK  status: ('A' for Active; 'I' for Inactive)
REMARK    1  A    between atoms: C_3  and  C_6
REMARK    2  A    between atoms: N_8  and  C_9
REMARK    3  A    between atoms: C_12  and  N_16
REMARK                            x       y       z     vdW  Elec       q    Type
REMARK                         _______ _______ _______ _____ _____    ______ ____
ROOT
ATOM      1  C   UNL     1       2.401   0.031  -0.021  0.00  0.00    +0.062 A 
ATOM      2  C   UNL     1       1.691   0.161   1.166  0.00  0.00    +0.042 A 
ATOM      3  C   UNL     1       0.484   0.835   1.177  0.00  0.00    +0.050 A 
ATOM      4  C   UNL     1      -0.016   1.379   0.009  0.00  0.00    +0.128 A 
ATOM      5  C   UNL     1       0.688   1.252  -1.175  0.00  0.00    +0.050 A 
ATOM      6  C   UNL     1       1.895   0.579  -1.193  0.00  0.00    +0.042 A 
ATOM      7 BR   UNL     1       2.857   0.406  -2.812  0.00  0.00    -0.048 Br
ATOM      8 BR   UNL     1       2.374  -0.583   2.764  0.00  0.00    -0.048 Br
ENDROOT
BRANCH   1  11
ATOM      9  C   UNL     1       3.650  -1.982  -0.247  0.00  0.00    +0.284 C 
ATOM     10  O   UNL     1       2.622  -2.576  -0.513  0.00  0.00    -0.266 OA
ATOM     11  N   UNL     1       3.623  -0.651  -0.037  0.00  0.00    -0.277 N 
ATOM     12  H   UNL     1       4.451  -0.165   0.104  0.00  0.00    +0.155 HD
BRANCH   9  15
ATOM     13  C   UNL     1       6.451  -4.321  -0.159  0.00  0.00    +0.042 A 
ATOM     14  C   UNL     1       5.085  -4.055  -0.343  0.00  0.00    +0.054 A 
ATOM     15  C   UNL     1       4.917  -2.713  -0.154  0.00  0.00    +0.189 A 
ATOM     16  O   UNL     1       6.123  -2.177   0.126  0.00  0.00    -0.458 OA
ATOM     17  C   UNL     1       7.049  -3.144   0.129  0.00  0.00    +0.196 A 
ENDBRANCH   9  15
ENDBRANCH   1  11
BRANCH   4  18
ATOM     18  N   UNL     1      -1.312   2.095   0.024  0.00  0.00    +0.056 N 
ATOM     19  O   UNL     1      -1.936   2.203   1.064  0.00  0.00    -0.126 OA
ATOM     20  O   UNL     1      -1.754   2.575  -1.005  0.00  0.00    -0.126 OA
ENDBRANCH   4  18
TORSDOF 3
