REMARK  Name = ZINC39679012
REMARK  14 active torsions:
REMARK  status: ('A' for Active; 'I' for Inactive)
REMARK    1  A    between atoms: C_1  and  C_2
REMARK    2  A    between atoms: C_2  and  C_3
REMARK    3  A    between atoms: C_3  and  C_4
REMARK    4  A    between atoms: C_4  and  C_5
REMARK    5  A    between atoms: C_5  and  C_6
REMARK    6  A    between atoms: C_6  and  C_7
REMARK    7  A    between atoms: C_11  and  C_20
REMARK    8  A    between atoms: N_22  and  C_23
REMARK    9  A    between atoms: C_23  and  C_24
REMARK   10  A    between atoms: C_24  and  C_25
REMARK   11  A    between atoms: C_25  and  C_26
REMARK   12  A    between atoms: C_26  and  N_27
REMARK   13  A    between atoms: N_27  and  C_28
REMARK   14  A    between atoms: N_27  and  C_29
REMARK                            x       y       z     vdW  Elec       q    Type
REMARK                         _______ _______ _______ _____ _____    ______ ____
ROOT
ATOM      1  C   UNL     1      -4.401  -4.666  -0.016  0.00  0.00    +0.216 C 
ATOM      2  O   UNL     1      -5.351  -3.915   0.052  0.00  0.00    -0.276 OA
ATOM      3  N   UNL     1      -4.593  -6.000   0.014  0.00  0.00    -0.300 N 
ATOM      4  C   UNL     1      -3.566  -7.066  -0.050  0.00  0.00    +0.121 C 
ATOM      5  C   UNL     1      -4.055  -8.139   0.949  0.00  0.00    +0.100 C 
ATOM      6  C   UNL     1      -5.573  -7.915   1.054  0.00  0.00    -0.004 C 
ATOM      7  C   UNL     1      -5.878  -6.731   0.125  0.00  0.00    +0.115 C 
ATOM      8  C   UNL     1      -6.324  -9.159   0.589  0.00  0.00    -0.010 C 
ATOM      9  C   UNL     1      -7.829  -8.933   0.757  0.00  0.00    -0.082 C 
ATOM     10  N   UNL     1      -8.130  -8.653   2.167  0.00  0.00    +0.379 N 
ATOM     11  C   UNL     1      -7.478  -7.405   2.579  0.00  0.00    -0.082 C 
ATOM     12  C   UNL     1      -5.958  -7.566   2.488  0.00  0.00    -0.010 C 
ATOM     13  H   UNL     1      -9.128  -8.565   2.285  0.00  0.00    -0.086 HD
ATOM     14  H   UNL     1      -7.792  -9.413   2.739  0.00  0.00    -0.086 HD
ENDROOT
BRANCH   5  15
ATOM     15  C   UNL     1      -3.761  -9.520   0.421  0.00  0.00    +0.218 C 
ATOM     16  O   UNL     1      -3.749  -9.722  -0.774  0.00  0.00    -0.275 OA
ATOM     17  N   UNL     1      -3.512 -10.530   1.279  0.00  0.00    -0.315 N 
ATOM     18  H   UNL     1      -3.522 -10.368   2.235  0.00  0.00    +0.149 HD
BRANCH  17  19
ATOM     19  C   UNL     1      -3.227 -11.872   0.766  0.00  0.00    +0.104 C 
BRANCH  19  20
ATOM     20  C   UNL     1      -2.982 -12.824   1.938  0.00  0.00    +0.017 C 
BRANCH  20  21
ATOM     21  C   UNL     1      -2.683 -14.226   1.403  0.00  0.00    -0.017 C 
BRANCH  21  22
ATOM     22  C   UNL     1      -2.439 -15.178   2.575  0.00  0.00    -0.080 C 
BRANCH  22  23
ATOM     23  N   UNL     1      -2.152 -16.524   2.061  0.00  0.00    +0.376 N 
ATOM     24  C   UNL     1      -1.800 -17.410   3.178  0.00  0.00    -0.097 C 
ATOM     25  C   UNL     1      -3.340 -17.050   1.375  0.00  0.00    -0.097 C 
ATOM     26  H   UNL     1      -1.381 -16.479   1.411  0.00  0.00    -0.083 HD
ENDBRANCH  22  23
ENDBRANCH  21  22
ENDBRANCH  20  21
ENDBRANCH  19  20
ENDBRANCH  17  19
ENDBRANCH   5  15
BRANCH   1  27
ATOM     27  C   UNL     1      -3.006  -4.107  -0.133  0.00  0.00    +0.096 C 
BRANCH  27  28
ATOM     28  C   UNL     1      -3.068  -2.579  -0.145  0.00  0.00    +0.009 C 
BRANCH  28  29
ATOM     29  C   UNL     1      -1.652  -2.012  -0.264  0.00  0.00    +0.000 C 
BRANCH  29  30
ATOM     30  C   UNL     1      -1.714  -0.483  -0.276  0.00  0.00    -0.000 C 
BRANCH  30  32
ATOM     31  C   UNL     1      -0.360   1.612  -0.407  0.00  0.00    +0.004 C 
ATOM     32  C   UNL     1      -0.298   0.084  -0.395  0.00  0.00    -0.003 C 
ENDBRANCH  30  32
ENDBRANCH  29  30
ENDBRANCH  28  29
ENDBRANCH  27  28
ENDBRANCH   1  27
TORSDOF 11
