REMARK  Name = ZINC21152569
REMARK  9 active torsions:
REMARK  status: ('A' for Active; 'I' for Inactive)
REMARK    1  A    between atoms: C_1  and  C_2
REMARK    2  A    between atoms: C_2  and  O_3
REMARK    3  A    between atoms: O_3  and  C_4
REMARK    4  A    between atoms: C_4  and  C_6
REMARK    5  A    between atoms: C_7  and  C_28
REMARK    6  A    between atoms: C_8  and  S_13
REMARK    7  A    between atoms: C_9  and  C_12
REMARK    8  A    between atoms: S_13  and  N_16
REMARK    9  A    between atoms: C_19  and  N_22
REMARK                            x       y       z     vdW  Elec       q    Type
REMARK                         _______ _______ _______ _____ _____    ______ ____
ROOT
ATOM      1  S   UNL     1      -1.329   1.980  -7.507  0.00  0.00    +0.063 S 
ATOM      2  O   UNL     1      -0.605   0.814  -7.875  0.00  0.00    -0.153 OA
ATOM      3  O   UNL     1      -2.658   2.224  -7.950  0.00  0.00    -0.153 OA
ENDROOT
BRANCH   1   6
ATOM      4  C   UNL     1      -0.865   1.667  -3.599  0.00  0.00    +0.129 A 
ATOM      5  C   UNL     1      -0.458   1.393  -4.889  0.00  0.00    +0.008 A 
ATOM      6  C   UNL     1      -1.372   2.013  -5.746  0.00  0.00    +0.129 A 
ATOM      7  C   UNL     1      -2.293   2.647  -4.982  0.00  0.00    +0.040 A 
ATOM      8  N   UNL     1      -1.998   2.446  -3.680  0.00  0.00    -0.351 N 
ATOM      9  H   UNL     1      -2.496   2.789  -2.762  0.00  0.00    +0.166 HD
ATOM     10  C   UNL     1      -3.459   3.448  -5.501  0.00  0.00    +0.065 C 
ATOM     11  C   UNL     1       0.742   0.577  -5.296  0.00  0.00    +0.048 C 
BRANCH   4  12
ATOM     12  C   UNL     1      -0.209   1.218  -2.369  0.00  0.00    +0.356 C 
ATOM     13  O   UNL     1       0.792   0.530  -2.430  0.00  0.00    -0.243 OA
BRANCH  12  14
ATOM     14  O   UNL     1      -0.715   1.567  -1.168  0.00  0.00    -0.460 OA
BRANCH  14  16
ATOM     15  C   UNL     1      -0.729   1.579   1.267  0.00  0.00    +0.048 C 
ATOM     16  C   UNL     1      -0.013   1.086   0.008  0.00  0.00    +0.229 C 
ENDBRANCH  14  16
ENDBRANCH  12  14
ENDBRANCH   4  12
ENDBRANCH   1   6
BRANCH   1  17
ATOM     17  N   UNL     1      -0.422   3.276  -7.998  0.00  0.00    -0.177 NA
ATOM     18  C   UNL     1      -1.054   4.575  -8.265  0.00  0.00    +0.108 C 
ATOM     19  C   UNL     1      -0.330   5.649  -7.439  0.00  0.00    +0.002 C 
ATOM     20  C   UNL     1       1.167   5.603  -7.754  0.00  0.00    -0.066 C 
ATOM     21  C   UNL     1       1.730   4.234  -7.363  0.00  0.00    +0.002 C 
ATOM     22  C   UNL     1       1.030   3.146  -8.182  0.00  0.00    +0.108 C 
BRANCH  20  23
ATOM     23  N   UNL     1       1.859   6.652  -6.994  0.00  0.00    +0.382 N 
ATOM     24  C   UNL     1       1.661   6.474  -5.550  0.00  0.00    -0.078 C 
ATOM     25  C   UNL     1       2.512   7.493  -4.787  0.00  0.00    -0.019 C 
ATOM     26  C   UNL     1       2.102   8.907  -5.207  0.00  0.00    -0.004 C 
ATOM     27  C   UNL     1       2.272   9.051  -6.722  0.00  0.00    -0.019 C 
ATOM     28  C   UNL     1       1.429   7.987  -7.428  0.00  0.00    -0.078 C 
ATOM     29  H   UNL     1       2.937   6.565  -7.198  0.00  0.00    -0.081 HD
ENDBRANCH  20  23
ENDBRANCH   1  17
TORSDOF 6
