REMARK  Name = ZINC16884166
REMARK  4 active torsions:
REMARK  status: ('A' for Active; 'I' for Inactive)
REMARK    1  A    between atoms: C_4  and  C_7
REMARK    2  A    between atoms: C_9  and  C_17
REMARK    3  A    between atoms: C_14  and  O_15
REMARK    4  A    between atoms: C_26  and  O_27
REMARK                            x       y       z     vdW  Elec       q    Type
REMARK                         _______ _______ _______ _____ _____    ______ ____
ROOT
ATOM      1  C   UNL     1      -0.860   2.632  -0.603  0.00  0.00    +0.133 C 
ATOM      2  C   UNL     1      -1.839   3.068   0.494  0.00  0.00    +0.159 C 
ATOM      3  N   UNL     1      -1.222   4.125   1.299  0.00  0.00    -0.243 NA
ATOM      4  C   UNL     1       0.059   4.128   1.528  0.00  0.00    +0.211 C 
ATOM      5  N   UNL     1       0.882   3.186   1.005  0.00  0.00    -0.183 NA
ATOM      6  C   UNL     1       0.504   2.434   0.013  0.00  0.00    +0.200 C 
ATOM      7  N   UNL     1       0.595   5.118   2.325  0.00  0.00    -0.328 N 
ATOM      8  H   UNL     1       1.548   5.133   2.504  0.00  0.00    +0.145 HD
ATOM      9  H   UNL     1       0.019   5.798   2.706  0.00  0.00    +0.145 HD
ENDROOT
BRANCH   2  10
ATOM     10  C   UNL     1      -3.101   3.592  -0.141  0.00  0.00    +0.027 A 
ATOM     11  C   UNL     1      -4.187   2.731  -0.369  0.00  0.00    -0.009 A 
ATOM     12  C   UNL     1      -4.127   1.372  -0.015  0.00  0.00    +0.009 A 
ATOM     13  C   UNL     1      -5.198   0.566  -0.250  0.00  0.00    +0.001 A 
ATOM     14  C   UNL     1      -6.357   1.068  -0.839  0.00  0.00    +0.001 A 
ATOM     15  C   UNL     1      -6.457   2.381  -1.183  0.00  0.00    +0.008 A 
ATOM     16  C   UNL     1      -5.369   3.242  -0.962  0.00  0.00    -0.017 A 
ATOM     17  C   UNL     1      -5.429   4.600  -1.322  0.00  0.00    +0.012 A 
ATOM     18  C   UNL     1      -4.358   5.407  -1.093  0.00  0.00    +0.046 A 
ATOM     19  C   UNL     1      -3.194   4.905  -0.504  0.00  0.00    +0.123 A 
BRANCH  19  20
ATOM     20  O   UNL     1      -2.140   5.736  -0.288  0.00  0.00    -0.506 OA
ATOM     21  H   UNL     1      -1.534   5.805  -1.038  0.00  0.00    +0.292 HD
ENDBRANCH  19  20
ENDBRANCH   2  10
BRANCH   1  25
ATOM     22  C   UNL     1      -0.642   5.646  -3.622  0.00  0.00    +0.000 A 
ATOM     23  C   UNL     1      -1.611   4.662  -3.696  0.00  0.00    +0.000 A 
ATOM     24  C   UNL     1      -1.681   3.686  -2.719  0.00  0.00    +0.004 A 
ATOM     25  C   UNL     1      -0.783   3.695  -1.668  0.00  0.00    -0.033 A 
ATOM     26  C   UNL     1       0.182   4.682  -1.591  0.00  0.00    +0.004 A 
ATOM     27  C   UNL     1       0.256   5.654  -2.572  0.00  0.00    +0.000 A 
ENDBRANCH   1  25
BRANCH   6  28
ATOM     28  O   UNL     1       1.328   1.486  -0.467  0.00  0.00    -0.495 OA
ATOM     29  H   UNL     1       2.193   1.400  -0.043  0.00  0.00    +0.293 HD
ENDBRANCH   6  28
TORSDOF 4
