REMARK  Name = ZINC05519468
REMARK  18 active torsions:
REMARK  status: ('A' for Active; 'I' for Inactive)
REMARK    1  A    between atoms: C_1  and  C_2
REMARK    2  A    between atoms: C_2  and  C_3
REMARK    3  A    between atoms: C_2  and  C_4
REMARK    4  A    between atoms: C_4  and  C_5
REMARK    5  A    between atoms: C_5  and  C_7
REMARK    6  A    between atoms: C_5  and  N_23
REMARK    7  A    between atoms: N_9  and  C_10
REMARK    8  A    between atoms: C_10  and  C_12
REMARK    9  A    between atoms: C_10  and  C_16
REMARK   10  A    between atoms: C_12  and  C_13
REMARK   11  A    between atoms: C_13  and  C_14
REMARK   12  A    between atoms: C_13  and  C_15
REMARK   13  A    between atoms: C_16  and  O_18
REMARK   14  A    between atoms: O_18  and  C_19
REMARK   15  A    between atoms: C_19  and  C_20
REMARK   16  A    between atoms: C_19  and  C_21
REMARK   17  A    between atoms: C_19  and  C_22
REMARK   18  A    between atoms: C_24  and  C_26
REMARK                            x       y       z     vdW  Elec       q    Type
REMARK                         _______ _______ _______ _____ _____    ______ ____
ROOT
ATOM      1  C   UNL     1      -1.456   5.357   0.772  0.00  0.00    +0.159 C 
ENDROOT
BRANCH   1   2
ATOM      2  C   UNL     1      -1.623   3.872   0.579  0.00  0.00    +0.234 C 
ATOM      3  O   UNL     1      -2.559   3.446  -0.063  0.00  0.00    -0.274 OA
ATOM      4  N   UNL     1      -0.731   3.018   1.119  0.00  0.00    -0.301 N 
ATOM      5  H   UNL     1       0.041   3.361   1.596  0.00  0.00    +0.150 HD
BRANCH   4   6
ATOM      6  C   UNL     1      -0.928   1.573   0.987  0.00  0.00    +0.182 C 
BRANCH   6   7
ATOM      7  C   UNL     1      -0.226   0.864   2.116  0.00  0.00    +0.328 C 
ATOM      8  O   UNL     1       0.377   1.502   2.947  0.00  0.00    -0.249 OA
BRANCH   7   9
ATOM      9  O   UNL     1      -0.271  -0.475   2.200  0.00  0.00    -0.458 OA
BRANCH   9  10
ATOM     10  C   UNL     1       0.428  -1.089   3.314  0.00  0.00    +0.105 C 
ATOM     11  C   UNL     1      -0.159  -0.575   4.630  0.00  0.00    +0.055 C 
ATOM     12  C   UNL     1       0.266  -2.609   3.243  0.00  0.00    +0.055 C 
ATOM     13  C   UNL     1       1.914  -0.731   3.244  0.00  0.00    +0.055 C 
ENDBRANCH   9  10
ENDBRANCH   7   9
ENDBRANCH   6   7
BRANCH   6  14
ATOM     14  C   UNL     1      -0.351   1.099  -0.349  0.00  0.00    +0.036 C 
BRANCH  14  15
ATOM     15  C   UNL     1      -1.146   1.723  -1.498  0.00  0.00    -0.015 C 
ATOM     16  C   UNL     1      -0.494   1.351  -2.831  0.00  0.00    +0.007 C 
ATOM     17  C   UNL     1      -2.583   1.197  -1.468  0.00  0.00    +0.007 C 
ENDBRANCH  14  15
ENDBRANCH   6  14
ENDBRANCH   4   6
ENDBRANCH   1   2
BRANCH   1  18
ATOM     18  N   UNL     1      -2.434   6.070  -0.054  0.00  0.00    -0.305 N 
ATOM     19  C   UNL     1      -2.153   7.305  -0.516  0.00  0.00    +0.200 C 
ATOM     20  O   UNL     1      -1.058   7.790  -0.324  0.00  0.00    -0.278 OA
ATOM     21  H   UNL     1      -3.283   5.653  -0.269  0.00  0.00    +0.149 HD
BRANCH  19  22
ATOM     22  C   UNL     1      -3.201   8.083  -1.270  0.00  0.00    +0.016 C 
ATOM     23  C   UNL     1      -3.249   7.612  -2.738  0.00  0.00    -0.009 C 
ATOM     24  C   UNL     1      -3.481   8.931  -3.521  0.00  0.00    -0.020 C 
ATOM     25  C   UNL     1      -2.656   9.941  -2.684  0.00  0.00    -0.082 C 
ATOM     26  N   UNL     1      -2.850   9.512  -1.287  0.00  0.00    +0.387 N 
ATOM     27  H   UNL     1      -1.982   9.660  -0.758  0.00  0.00    -0.085 HD
ATOM     28  H   UNL     1      -3.608  10.058  -0.861  0.00  0.00    -0.085 HD
ENDBRANCH  19  22
ENDBRANCH   1  18
BRANCH   1  29
ATOM     29  C   UNL     1      -1.681   5.708   2.245  0.00  0.00    +0.034 C 
BRANCH  29  31
ATOM     30  C   UNL     1       0.765   5.797   2.748  0.00  0.00    +0.007 C 
ATOM     31  C   UNL     1      -0.557   5.106   3.090  0.00  0.00    -0.015 C 
ATOM     32  C   UNL     1      -0.870   5.308   4.574  0.00  0.00    +0.007 C 
ENDBRANCH  29  31
ENDBRANCH   1  29
TORSDOF 11
