REMARK  Name = ZINC04852849
REMARK  5 active torsions:
REMARK  status: ('A' for Active; 'I' for Inactive)
REMARK    1  A    between atoms: C_1  and  C_2
REMARK    2  A    between atoms: C_8  and  C_13
REMARK    3  A    between atoms: C_13  and  O_15
REMARK    4  A    between atoms: O_15  and  C_16
REMARK    5  A    between atoms: N_20  and  C_21
REMARK                            x       y       z     vdW  Elec       q    Type
REMARK                         _______ _______ _______ _____ _____    ______ ____
ROOT
ATOM      1  C   UNL     1       8.050   3.535  -0.091  0.00  0.00    +0.079 C 
ATOM      2  C   UNL     1       6.578   3.144  -0.236  0.00  0.00    +0.185 C 
ATOM      3  C   UNL     1       6.319   1.841   0.534  0.00  0.00    +0.096 C 
ATOM      4  C   UNL     1       4.866   1.431   0.241  0.00  0.00    +0.114 C 
ATOM      5  C   UNL     1       3.967   2.600   0.578  0.00  0.00    +0.015 A 
ATOM      6  C   UNL     1       2.642   2.357   0.871  0.00  0.00    +0.024 A 
ATOM      7  C   UNL     1       1.785   3.420   1.169  0.00  0.00    +0.060 A 
ATOM      8  C   UNL     1       2.278   4.728   1.162  0.00  0.00    +0.018 A 
ATOM      9  C   UNL     1       3.603   4.959   0.877  0.00  0.00    +0.047 A 
ATOM     10  C   UNL     1       4.458   3.897   0.584  0.00  0.00    +0.128 A 
ATOM     11  O   UNL     1       5.759   4.171   0.314  0.00  0.00    -0.468 OA
ATOM     12  N   UNL     1       4.755   1.196  -1.208  0.00  0.00    -0.292 N 
ATOM     13  C   UNL     1       5.434   1.978  -2.064  0.00  0.00    +0.310 C 
ATOM     14  O   UNL     1       5.280   1.811  -3.259  0.00  0.00    -0.252 OA
ATOM     15  N   UNL     1       6.275   2.938  -1.649  0.00  0.00    -0.216 N 
ATOM     16  H   UNL     1       4.195   0.480  -1.544  0.00  0.00    +0.151 HD
ENDROOT
BRANCH  15  17
ATOM     17  C   UNL     1       6.881   3.767  -2.601  0.00  0.00    +0.043 A 
ATOM     18  C   UNL     1       8.032   3.348  -3.256  0.00  0.00    +0.024 A 
ATOM     19  C   UNL     1       8.628   4.167  -4.195  0.00  0.00    +0.003 A 
ATOM     20  C   UNL     1       8.080   5.404  -4.483  0.00  0.00    +0.020 A 
ATOM     21  C   UNL     1       6.934   5.824  -3.832  0.00  0.00    +0.043 A 
ATOM     22  C   UNL     1       6.330   5.006  -2.895  0.00  0.00    +0.043 A 
ATOM     23 CL   UNL     1       6.249   7.377  -4.197  0.00  0.00    -0.083 Cl
ENDBRANCH  15  17
BRANCH   7  24
ATOM     24  C   UNL     1       0.367   3.163   1.482  0.00  0.00    +0.339 C 
ATOM     25  O   UNL     1      -0.059   2.025   1.482  0.00  0.00    -0.245 OA
BRANCH  24  26
ATOM     26  O   UNL     1      -0.457   4.191   1.763  0.00  0.00    -0.464 OA
ATOM     27  C   UNL     1      -1.842   3.865   2.056  0.00  0.00    +0.280 C 
ENDBRANCH  24  26
ENDBRANCH   7  24
TORSDOF 3
