REMARK  Name = ZINC13064848
REMARK  10 active torsions:
REMARK  status: ('A' for Active; 'I' for Inactive)
REMARK    1  A    between atoms: C_1  and  C_2
REMARK    2  A    between atoms: C_2  and  C_3
REMARK    3  A    between atoms: C_3  and  C_5
REMARK    4  A    between atoms: C_3  and  N_72
REMARK    5  A    between atoms: N_9  and  C_10
REMARK    6  A    between atoms: C_16  and  C_17
REMARK    7  A    between atoms: C_16  and  N_72
REMARK    8  A    between atoms: C_20  and  C_30
REMARK    9  A    between atoms: C_22  and  C_29
REMARK   10  A    between atoms: C_31  and  N_72
REMARK                            x       y       z     vdW  Elec       q    Type
REMARK                         _______ _______ _______ _____ _____    ______ ____
ROOT
ATOM      1  N   UNL     1      -2.803   0.641  -1.182  0.00  0.00    +0.391 N 
ATOM      2  H   UNL     1      -1.945   0.083  -1.256  0.00  0.00    -0.080 HD
ENDROOT
BRANCH   1   3
ATOM      3  C   UNL     1      -2.705   1.795  -2.100  0.00  0.00    -0.067 C 
ATOM      4  C   UNL     1      -2.339   1.296  -3.513  0.00  0.00    -0.015 C 
ATOM      5  C   UNL     1      -1.366   2.373  -4.055  0.00  0.00    -0.002 C 
ATOM      6  C   UNL     1      -0.536   2.747  -2.802  0.00  0.00    -0.002 C 
ATOM      7  C   UNL     1      -1.559   2.717  -1.648  0.00  0.00    -0.015 C 
ENDBRANCH   1   3
BRANCH   1   8
ATOM      8  C   UNL     1      -3.958  -0.203  -1.554  0.00  0.00    +0.003 C 
BRANCH   8   9
ATOM      9  C   UNL     1      -5.127   0.654  -1.967  0.00  0.00    +0.138 A 
ATOM     10  N   UNL     1      -5.127   1.587  -2.888  0.00  0.00    -0.115 NA
ATOM     11  N   UNL     1      -6.311   2.090  -2.945  0.00  0.00    -0.023 NA
ATOM     12  N   UNL     1      -7.067   1.504  -2.083  0.00  0.00    -0.044 NA
ATOM     13  N   UNL     1      -6.374   0.608  -1.464  0.00  0.00    -0.228 N 
BRANCH  13  14
ATOM     14  C   UNL     1      -6.855  -0.287  -0.409  0.00  0.00    +0.111 C 
ATOM     15  C   UNL     1      -7.995  -1.151  -0.953  0.00  0.00    +0.027 C 
ATOM     16  C   UNL     1      -8.497  -2.086   0.148  0.00  0.00    +0.002 C 
ATOM     17  C   UNL     1      -9.004  -1.257   1.330  0.00  0.00    +0.000 C 
ATOM     18  C   UNL     1      -7.864  -0.394   1.874  0.00  0.00    +0.002 C 
ATOM     19  C   UNL     1      -7.362   0.542   0.772  0.00  0.00    +0.027 C 
ENDBRANCH  13  14
ENDBRANCH   8   9
BRANCH   8  21
ATOM     20  C   UNL     1      -2.392  -2.006  -2.289  0.00  0.00    +0.002 C 
ATOM     21  C   UNL     1      -3.550  -1.104  -2.722  0.00  0.00    -0.011 C 
ENDBRANCH   8  21
ENDBRANCH   1   8
BRANCH   1  22
ATOM     22  C   UNL     1      -2.951   1.114   0.210  0.00  0.00    -0.036 C 
BRANCH  22  23
ATOM     23  C   UNL     1      -2.477   0.027   1.140  0.00  0.00    +0.001 A 
ATOM     24  C   UNL     1      -1.184   0.004   1.548  0.00  0.00    +0.017 A 
ATOM     25  C   UNL     1      -0.753  -1.068   2.447  0.00  0.00    +0.002 A 
ATOM     26  C   UNL     1       0.570  -1.148   2.896  0.00  0.00    -0.041 A 
ATOM     27  C   UNL     1       0.940  -2.161   3.735  0.00  0.00    +0.007 A 
ATOM     28  C   UNL     1       0.015  -3.112   4.144  0.00  0.00    -0.048 A 
ATOM     29  C   UNL     1      -1.293  -3.053   3.714  0.00  0.00    +0.029 A 
ATOM     30  C   UNL     1      -1.693  -2.031   2.860  0.00  0.00    +0.050 A 
ATOM     31  N   UNL     1      -2.995  -1.948   2.414  0.00  0.00    -0.322 N 
ATOM     32  H   UNL     1      -3.641  -2.611   2.700  0.00  0.00    +0.169 HD
ATOM     33  C   UNL     1      -3.381  -0.959   1.589  0.00  0.00    +0.251 A 
ATOM     34  O   UNL     1      -4.540  -0.917   1.214  0.00  0.00    -0.268 OA
ATOM     35  C   UNL     1       0.447  -4.221   5.069  0.00  0.00    +0.044 C 
ATOM     36  C   UNL     1       1.581  -0.121   2.457  0.00  0.00    +0.044 C 
ENDBRANCH  22  23
ENDBRANCH   1  22
TORSDOF 7
