REMARK  Name = ZINC35316366
REMARK  4 active torsions:
REMARK  status: ('A' for Active; 'I' for Inactive)
REMARK    1  A    between atoms: C_10  and  C_11
REMARK    2  A    between atoms: C_18  and  N_31
REMARK    3  A    between atoms: C_19  and  C_29
REMARK    4  A    between atoms: C_20  and  C_22
REMARK                            x       y       z     vdW  Elec       q    Type
REMARK                         _______ _______ _______ _____ _____    ______ ____
ROOT
ATOM      1  C   UNL     1       5.231   0.330  -0.193  0.00  0.00    +0.101 A 
ATOM      2  C   UNL     1       6.428  -0.372  -0.018  0.00  0.00    +0.054 A 
ATOM      3  C   UNL     1       7.450   0.531  -0.013  0.00  0.00    +0.223 A 
ATOM      4  N   UNL     1       6.916   1.758  -0.180  0.00  0.00    -0.246 N 
ATOM      5  H   UNL     1       7.407   2.594  -0.217  0.00  0.00    +0.192 HD
ATOM      6  N   UNL     1       5.524   1.613  -0.295  0.00  0.00    -0.171 NA
ATOM      7  O   UNL     1       8.748   0.167   0.141  0.00  0.00    -0.423 OA
ATOM      8  C   UNL     1       8.998  -1.089   0.566  0.00  0.00    +0.200 C 
ATOM      9  C   UNL     1       8.072  -2.072   0.594  0.00  0.00    +0.098 C 
ATOM     10  C   UNL     1       6.649  -1.854   0.142  0.00  0.00    +0.102 C 
ENDROOT
BRANCH   1  20
ATOM     11  C   UNL     1       1.203   0.786  -3.308  0.00  0.00    +0.001 A 
ATOM     12  C   UNL     1       2.474   1.355  -3.267  0.00  0.00    +0.001 A 
ATOM     13  C   UNL     1       3.356   1.027  -2.283  0.00  0.00    +0.009 A 
ATOM     14  C   UNL     1       2.984   0.103  -1.296  0.00  0.00    -0.009 A 
ATOM     15  C   UNL     1       1.692  -0.476  -1.336  0.00  0.00    -0.017 A 
ATOM     16  C   UNL     1       0.807  -0.114  -2.367  0.00  0.00    +0.008 A 
ATOM     17  C   UNL     1       1.317  -1.401  -0.347  0.00  0.00    +0.008 A 
ATOM     18  C   UNL     1       2.192  -1.736   0.642  0.00  0.00    +0.001 A 
ATOM     19  C   UNL     1       3.463  -1.176   0.696  0.00  0.00    +0.011 A 
ATOM     20  C   UNL     1       3.874  -0.262  -0.258  0.00  0.00    +0.010 A 
ENDBRANCH   1  20
BRANCH  10  21
ATOM     21  C   UNL     1       6.423  -2.548  -1.176  0.00  0.00    -0.034 A 
ATOM     22  C   UNL     1       7.152  -2.172  -2.289  0.00  0.00    +0.006 A 
ATOM     23  C   UNL     1       6.945  -2.808  -3.498  0.00  0.00    +0.020 A 
ATOM     24  C   UNL     1       6.008  -3.821  -3.595  0.00  0.00    +0.041 A 
ATOM     25  C   UNL     1       5.278  -4.197  -2.482  0.00  0.00    +0.020 A 
ATOM     26  C   UNL     1       5.490  -3.564  -1.271  0.00  0.00    +0.006 A 
ATOM     27 CL   UNL     1       5.747  -4.620  -5.114  0.00  0.00    -0.084 Cl
ENDBRANCH  10  21
BRANCH   8  28
ATOM     28  N   UNL     1      10.269  -1.385   0.994  0.00  0.00    -0.328 N 
ATOM     29  H   UNL     1      10.956  -0.700   0.985  0.00  0.00    +0.145 HD
ATOM     30  H   UNL     1      10.479  -2.279   1.305  0.00  0.00    +0.145 HD
ENDBRANCH   8  28
BRANCH   9  31
ATOM     31  C   UNL     1       8.454  -3.367   1.071  0.00  0.00    +0.101 C 
ATOM     32  N   UNL     1       8.757  -4.394   1.448  0.00  0.00    -0.191 NA
ENDBRANCH   9  31
TORSDOF 4
