REMARK  Name = ZINC40761125
REMARK  3 active torsions:
REMARK  status: ('A' for Active; 'I' for Inactive)
REMARK    1  A    between atoms: C_12  and  N_28
REMARK    2  A    between atoms: C_13  and  N_17
REMARK    3  A    between atoms: N_17  and  C_18
REMARK                            x       y       z     vdW  Elec       q    Type
REMARK                         _______ _______ _______ _____ _____    ______ ____
ROOT
ATOM      1  C   UNL     1       0.123   1.254   1.825  0.00  0.00    +0.002 A 
ATOM      2  C   UNL     1       1.284   2.003   1.706  0.00  0.00    +0.001 A 
ATOM      3  C   UNL     1       2.481   1.362   1.440  0.00  0.00    +0.017 A 
ATOM      4  C   UNL     1       2.500  -0.003   1.299  0.00  0.00    +0.041 A 
ATOM      5  C   UNL     1       1.338  -0.799   1.414  0.00  0.00    +0.080 A 
ATOM      6  C   UNL     1       0.134  -0.110   1.685  0.00  0.00    +0.029 A 
ATOM      7  N   UNL     1       1.520  -2.127   1.249  0.00  0.00    -0.225 NA
ATOM      8  C   UNL     1       2.697  -2.653   0.999  0.00  0.00    +0.165 A 
ATOM      9  S   UNL     1       3.757  -1.214   0.966  0.00  0.00    -0.052 S 
ATOM     10  N   UNL     1       3.031  -3.980   0.809  0.00  0.00    -0.277 N 
ATOM     11  C   UNL     1       4.352  -4.335   0.551  0.00  0.00    +0.150 A 
ATOM     12  C   UNL     1       4.701  -5.672   0.352  0.00  0.00    +0.106 A 
ATOM     13  C   UNL     1       6.040  -5.973   0.097  0.00  0.00    +0.149 A 
ATOM     14  N   UNL     1       6.927  -4.981   0.054  0.00  0.00    -0.219 NA
ATOM     15  C   UNL     1       6.555  -3.732   0.248  0.00  0.00    +0.225 A 
ATOM     16  N   UNL     1       5.301  -3.405   0.486  0.00  0.00    -0.219 NA
ATOM     17  H   UNL     1       2.346  -4.664   0.855  0.00  0.00    +0.156 HD
ENDROOT
BRANCH  12  18
ATOM     18  N   UNL     1       3.732  -6.686   0.407  0.00  0.00    -0.353 N 
ATOM     19  H   UNL     1       2.805  -6.462   0.586  0.00  0.00    +0.143 HD
ATOM     20  H   UNL     1       3.989  -7.611   0.267  0.00  0.00    +0.143 HD
ENDBRANCH  12  18
BRANCH  13  21
ATOM     21  N   UNL     1       6.442  -7.288  -0.108  0.00  0.00    -0.297 N 
ATOM     22  H   UNL     1       5.779  -7.994  -0.168  0.00  0.00    +0.154 HD
BRANCH  21  23
ATOM     23  C   UNL     1       7.796  -7.592  -0.227  0.00  0.00    +0.042 A 
ATOM     24  C   UNL     1       8.747  -6.781   0.358  0.00  0.00    +0.024 A 
ATOM     25  C   UNL     1      10.100  -7.079   0.242  0.00  0.00    +0.004 A 
ATOM     26  C   UNL     1      10.525  -8.173  -0.448  0.00  0.00    +0.028 A 
ATOM     27  C   UNL     1       9.591  -9.026  -1.059  0.00  0.00    +0.073 A 
ATOM     28  C   UNL     1       8.209  -8.736  -0.943  0.00  0.00    +0.022 A 
ATOM     29  C   UNL     1       7.277  -9.594  -1.550  0.00  0.00    +0.013 A 
ATOM     30  C   UNL     1       7.749 -10.684  -2.228  0.00  0.00    +0.020 A 
ATOM     31  C   UNL     1       9.120 -10.916  -2.300  0.00  0.00    +0.111 A 
ATOM     32  N   UNL     1       9.987 -10.106  -1.742  0.00  0.00    -0.255 NA
ENDBRANCH  21  23
ENDBRANCH  13  21
TORSDOF 3
