REMARK  Name = ZINC66780503
REMARK  11 active torsions:
REMARK  status: ('A' for Active; 'I' for Inactive)
REMARK    1  A    between atoms: C_1  and  C_2
REMARK    2  A    between atoms: C_4  and  C_30
REMARK    3  A    between atoms: C_6  and  O_28
REMARK    4  A    between atoms: C_7  and  C_8
REMARK    5  A    between atoms: C_8  and  N_9
REMARK    6  A    between atoms: C_10  and  C_12
REMARK    7  A    between atoms: C_13  and  C_14
REMARK    8  A    between atoms: N_19  and  C_25
REMARK    9  A    between atoms: C_25  and  C_26
REMARK   10  A    between atoms: C_25  and  C_27
REMARK   11  A    between atoms: O_28  and  C_29
REMARK                            x       y       z     vdW  Elec       q    Type
REMARK                         _______ _______ _______ _____ _____    ______ ____
ROOT
ATOM      1  C   UNL     1      -2.941   0.868   4.665  0.00  0.00    +0.068 C 
ATOM      2  C   UNL     1      -3.178   1.682   5.720  0.00  0.00    +0.018 C 
ENDROOT
BRANCH   2   3
ATOM      3  C   UNL     1      -4.555   1.994   6.111  0.00  0.00    +0.040 A 
ATOM      4  C   UNL     1      -4.815   2.733   7.261  0.00  0.00    +0.026 A 
ATOM      5  C   UNL     1      -6.149   3.012   7.601  0.00  0.00    +0.037 A 
ATOM      6  C   UNL     1      -6.765   3.741   8.708  0.00  0.00    +0.144 A 
ATOM      7  N   UNL     1      -8.055   3.691   8.532  0.00  0.00    -0.177 NA
ATOM      8  N   UNL     1      -8.347   2.971   7.370  0.00  0.00    -0.245 N 
ATOM      9  C   UNL     1      -7.198   2.553   6.797  0.00  0.00    +0.139 A 
ATOM     10  N   UNL     1      -6.944   1.826   5.665  0.00  0.00    -0.307 N 
ATOM     11  H   UNL     1      -7.685   1.517   5.121  0.00  0.00    +0.170 HD
ATOM     12  C   UNL     1      -5.683   1.538   5.293  0.00  0.00    +0.257 A 
ATOM     13  O   UNL     1      -5.480   0.893   4.279  0.00  0.00    -0.267 OA
BRANCH   8  14
ATOM     14  C   UNL     1      -9.693   2.708   6.855  0.00  0.00    +0.103 C 
ATOM     15  C   UNL     1     -10.495   1.926   7.897  0.00  0.00    +0.032 C 
ATOM     16  C   UNL     1     -10.395   4.036   6.562  0.00  0.00    +0.032 C 
ENDBRANCH   8  14
ENDBRANCH   2   3
BRANCH   1  18
ATOM     17  N   UNL     1      -1.376  -0.180   3.187  0.00  0.00    -0.308 N 
ATOM     18  C   UNL     1      -1.611   0.630   4.238  0.00  0.00    +0.237 C 
ATOM     19  O   UNL     1      -0.681   1.158   4.821  0.00  0.00    -0.271 OA
ATOM     20  H   UNL     1      -2.117  -0.600   2.723  0.00  0.00    +0.149 HD
BRANCH  17  21
ATOM     21  C   UNL     1      -0.001  -0.426   2.746  0.00  0.00    +0.145 C 
BRANCH  21  28
ATOM     22  C   UNL     1      -0.158   0.628   0.029  0.00  0.00    +0.044 C 
ATOM     23  C   UNL     1      -0.087  -0.857   0.275  0.00  0.00    -0.039 A 
ATOM     24  C   UNL     1      -0.089  -1.753  -0.786  0.00  0.00    +0.027 A 
ATOM     25  C   UNL     1      -0.023  -3.108  -0.526  0.00  0.00    +0.042 A 
ATOM     26  N   UNL     1       0.042  -3.556   0.714  0.00  0.00    -0.218 NA
ATOM     27  C   UNL     1       0.047  -2.734   1.750  0.00  0.00    +0.220 A 
ATOM     28  C   UNL     1      -0.012  -1.359   1.562  0.00  0.00    +0.034 A 
ATOM     29  C   UNL     1      -0.025  -4.086  -1.672  0.00  0.00    +0.066 C 
BRANCH  27  30
ATOM     30  O   UNL     1       0.115  -3.239   3.007  0.00  0.00    -0.479 OA
ATOM     31  C   UNL     1       0.179  -4.661   3.133  0.00  0.00    +0.279 C 
ENDBRANCH  27  30
ENDBRANCH  21  28
ENDBRANCH  17  21
ENDBRANCH   1  18
TORSDOF 6
