REMARK  Name = ZINC45727709
REMARK  8 active torsions:
REMARK  status: ('A' for Active; 'I' for Inactive)
REMARK    1  A    between atoms: C_1  and  C_2
REMARK    2  A    between atoms: C_2  and  C_4
REMARK    3  A    between atoms: C_2  and  N_14
REMARK    4  A    between atoms: C_15  and  C_17
REMARK    5  A    between atoms: C_17  and  C_18
REMARK    6  A    between atoms: C_18  and  C_20
REMARK    7  A    between atoms: C_18  and  N_25
REMARK    8  A    between atoms: C_26  and  C_28
REMARK                            x       y       z     vdW  Elec       q    Type
REMARK                         _______ _______ _______ _____ _____    ______ ____
ROOT
ATOM      1  N   UNL     1      -1.367  -0.518  -0.078  0.00  0.00    -0.309 N 
ATOM      2  C   UNL     1      -1.944  -0.715  -1.280  0.00  0.00    +0.216 C 
ATOM      3  O   UNL     1      -1.329  -0.465  -2.296  0.00  0.00    -0.276 OA
ATOM      4  H   UNL     1      -1.859  -0.718   0.734  0.00  0.00    +0.149 HD
ENDROOT
BRANCH   1   6
ATOM      5  C   UNL     1      -0.026   1.526  -0.016  0.00  0.00    +0.033 C 
ATOM      6  C   UNL     1       0.002  -0.004   0.002  0.00  0.00    +0.101 C 
BRANCH   6   7
ATOM      7  C   UNL     1       0.643  -0.480   1.280  0.00  0.00    -0.020 A 
ATOM      8  C   UNL     1      -0.126  -0.765   2.367  0.00  0.00    +0.006 A 
ATOM      9  C   UNL     1       0.449  -1.206   3.557  0.00  0.00    +0.001 A 
ATOM     10  C   UNL     1       1.797  -1.365   3.667  0.00  0.00    +0.008 A 
ATOM     11  C   UNL     1       2.623  -1.081   2.567  0.00  0.00    -0.018 A 
ATOM     12  C   UNL     1       2.037  -0.638   1.354  0.00  0.00    -0.013 A 
ATOM     13  C   UNL     1       2.864  -0.360   0.252  0.00  0.00    +0.009 A 
ATOM     14  C   UNL     1       4.210  -0.524   0.361  0.00  0.00    +0.001 A 
ATOM     15  C   UNL     1       4.785  -0.966   1.551  0.00  0.00    +0.001 A 
ATOM     16  C   UNL     1       4.018  -1.232   2.643  0.00  0.00    +0.008 A 
ENDBRANCH   6   7
ENDBRANCH   1   6
BRANCH   2  17
ATOM     17  C   UNL     1      -3.353  -1.244  -1.363  0.00  0.00    +0.123 C 
BRANCH  17  18
ATOM     18  C   UNL     1      -3.764  -1.373  -2.831  0.00  0.00    +0.118 C 
BRANCH  18  19
ATOM     19  C   UNL     1      -5.124  -2.016  -2.917  0.00  0.00    +0.010 A 
ATOM     20  C   UNL     1      -5.443  -3.305  -3.185  0.00  0.00    +0.013 A 
ATOM     21  C   UNL     1      -6.775  -3.675  -3.212  0.00  0.00    +0.008 A 
ATOM     22  C   UNL     1      -7.722  -2.736  -2.970  0.00  0.00    +0.045 A 
ATOM     23  S   UNL     1      -6.733  -1.278  -2.685  0.00  0.00    -0.100 S 
ENDBRANCH  18  19
BRANCH  18  24
ATOM     24  N   UNL     1      -3.813  -0.043  -3.443  0.00  0.00    -0.308 N 
ATOM     25  C   UNL     1      -3.650   0.093  -4.774  0.00  0.00    +0.210 C 
ATOM     26  O   UNL     1      -3.463  -0.886  -5.465  0.00  0.00    -0.276 OA
ATOM     27  C   UNL     1      -3.700   1.461  -5.404  0.00  0.00    +0.109 C 
ATOM     28  H   UNL     1      -3.962   0.741  -2.891  0.00  0.00    +0.149 HD
ENDBRANCH  18  24
ENDBRANCH  17  18
ENDBRANCH   2  17
TORSDOF 6
