REMARK  Name = ZINC09592973
REMARK  8 active torsions:
REMARK  status: ('A' for Active; 'I' for Inactive)
REMARK    1  A    between atoms: C_1  and  C_2
REMARK    2  A    between atoms: C_3  and  N_15
REMARK    3  A    between atoms: N_6  and  C_9
REMARK    4  A    between atoms: N_7  and  C_8
REMARK    5  A    between atoms: C_16  and  C_18
REMARK    6  A    between atoms: C_18  and  C_20
REMARK    7  A    between atoms: C_18  and  S_21
REMARK    8  A    between atoms: S_21  and  C_22
REMARK                            x       y       z     vdW  Elec       q    Type
REMARK                         _______ _______ _______ _____ _____    ______ ____
ROOT
ATOM      1  N   UNL     1      -1.321   4.853  -0.071  0.00  0.00    -0.279 N 
ATOM      2  C   UNL     1      -2.663   4.909  -0.178  0.00  0.00    +0.230 C 
ATOM      3  O   UNL     1      -3.303   3.889  -0.321  0.00  0.00    -0.274 OA
ATOM      4  H   UNL     1      -0.802   5.673  -0.035  0.00  0.00    +0.155 HD
ENDROOT
BRANCH   1   7
ATOM      5  C   UNL     1       0.651   4.016   2.126  0.00  0.00    +0.067 C 
ATOM      6  C   UNL     1       0.203   3.201   0.940  0.00  0.00    +0.059 A 
ATOM      7  C   UNL     1      -0.670   3.605  -0.010  0.00  0.00    +0.121 A 
ATOM      8  C   UNL     1      -0.809   2.506  -0.966  0.00  0.00    +0.293 A 
ATOM      9  O   UNL     1      -1.508   2.497  -1.964  0.00  0.00    -0.264 OA
ATOM     10  N   UNL     1      -0.018   1.504  -0.531  0.00  0.00    -0.216 N 
ATOM     11  N   UNL     1       0.612   1.928   0.645  0.00  0.00    -0.282 N 
ATOM     12  C   UNL     1       1.560   1.136   1.433  0.00  0.00    +0.171 C 
BRANCH  10  13
ATOM     13  C   UNL     1       0.147   0.260  -1.149  0.00  0.00    +0.067 A 
ATOM     14  C   UNL     1      -0.963  -0.457  -1.577  0.00  0.00    +0.028 A 
ATOM     15  C   UNL     1      -0.795  -1.682  -2.192  0.00  0.00    +0.002 A 
ATOM     16  C   UNL     1       0.474  -2.200  -2.372  0.00  0.00    +0.000 A 
ATOM     17  C   UNL     1       1.581  -1.491  -1.942  0.00  0.00    +0.002 A 
ATOM     18  C   UNL     1       1.421  -0.263  -1.331  0.00  0.00    +0.028 A 
ENDBRANCH  10  13
ENDBRANCH   1   7
BRANCH   2  19
ATOM     19  C   UNL     1      -3.369   6.239  -0.120  0.00  0.00    +0.137 C 
ATOM     20  C   UNL     1      -3.378   6.873  -1.512  0.00  0.00    +0.029 C 
BRANCH  19  21
ATOM     21  S   UNL     1      -5.072   5.995   0.444  0.00  0.00    -0.074 S 
BRANCH  21  22
ATOM     22  C   UNL     1      -5.598   7.672   0.562  0.00  0.00    +0.192 A 
ATOM     23  N   UNL     1      -4.878   8.740   0.300  0.00  0.00    -0.122 NA
ATOM     24  N   UNL     1      -5.584   9.800   0.485  0.00  0.00    -0.134 NA
ATOM     25  C   UNL     1      -6.780   9.474   0.877  0.00  0.00    +0.134 A 
ATOM     26  N   UNL     1      -6.827   8.111   0.950  0.00  0.00    -0.306 N 
ATOM     27  C   UNL     1      -7.970   7.301   1.371  0.00  0.00    +0.125 C 
ATOM     28  C   UNL     1      -9.267   8.054   1.060  0.00  0.00    +0.022 C 
ATOM     29  C   UNL     1      -9.648   8.936   2.247  0.00  0.00    +0.002 C 
ATOM     30  C   UNL     1      -8.566   9.978   2.513  0.00  0.00    +0.008 C 
ATOM     31  C   UNL     1      -7.924  10.404   1.189  0.00  0.00    +0.076 C 
ENDBRANCH  21  22
ENDBRANCH  19  21
ENDBRANCH   2  19
TORSDOF 5
