REMARK  Name = ZINC64502625
REMARK  8 active torsions:
REMARK  status: ('A' for Active; 'I' for Inactive)
REMARK    1  A    between atoms: C_4  and  N_7
REMARK    2  A    between atoms: C_8  and  C_10
REMARK    3  A    between atoms: C_14  and  C_17
REMARK    4  A    between atoms: C_22  and  C_25
REMARK    5  A    between atoms: C_25  and  C_26
REMARK    6  A    between atoms: N_28  and  C_29
REMARK    7  A    between atoms: C_29  and  C_30
REMARK    8  A    between atoms: C_30  and  C_31
REMARK                            x       y       z     vdW  Elec       q    Type
REMARK                         _______ _______ _______ _____ _____    ______ ____
ROOT
ATOM      1  C   UNL     1       5.449  -6.199  -1.651  0.00  0.00    +0.252 C 
ATOM      2  O   UNL     1       4.321  -6.613  -1.487  0.00  0.00    -0.272 OA
ATOM      3  N   UNL     1       6.238  -6.751  -2.594  0.00  0.00    -0.299 N 
ATOM      4  C   UNL     1       7.609  -6.266  -2.801  0.00  0.00    +0.108 C 
ATOM      5  C   UNL     1       7.787  -5.907  -4.280  0.00  0.00    +0.023 C 
ATOM      6  C   UNL     1       7.411  -7.114  -5.142  0.00  0.00    +0.001 C 
ATOM      7  C   UNL     1       5.942  -7.474  -4.906  0.00  0.00    +0.023 C 
ATOM      8  C   UNL     1       5.745  -7.854  -3.431  0.00  0.00    +0.108 C 
ENDROOT
BRANCH   1  12
ATOM      9  C   UNL     1       4.962  -2.721   0.153  0.00  0.00    +0.273 C 
ATOM     10  N   UNL     1       5.646  -2.772  -1.159  0.00  0.00    -0.167 NA
ATOM     11  N   UNL     1       6.095  -3.819  -1.584  0.00  0.00    -0.167 NA
ATOM     12  C   UNL     1       5.969  -5.069  -0.801  0.00  0.00    +0.273 C 
ATOM     13  S   UNL     1       4.714  -4.529   0.447  0.00  0.00    -0.086 S 
BRANCH   9  15
ATOM     14  N   UNL     1       3.622  -0.651  -0.037  0.00  0.00    -0.283 N 
ATOM     15  C   UNL     1       3.645  -1.995   0.057  0.00  0.00    +0.254 C 
ATOM     16  O   UNL     1       2.606  -2.620   0.064  0.00  0.00    -0.272 OA
ATOM     17  H   UNL     1       4.452  -0.156  -0.121  0.00  0.00    +0.155 HD
BRANCH  14  21
ATOM     18  C   UNL     1      -0.015   1.381   0.029  0.00  0.00    +0.000 A 
ATOM     19  C   UNL     1       0.140   0.218   0.763  0.00  0.00    +0.002 A 
ATOM     20  C   UNL     1       1.344  -0.457   0.743  0.00  0.00    +0.023 A 
ATOM     21  C   UNL     1       2.400   0.031  -0.015  0.00  0.00    +0.033 A 
ATOM     22  C   UNL     1       2.241   1.198  -0.751  0.00  0.00    +0.023 A 
ATOM     23  C   UNL     1       1.034   1.870  -0.727  0.00  0.00    +0.002 A 
ENDBRANCH  14  21
ENDBRANCH   9  15
ENDBRANCH   1  12
BRANCH   6  24
ATOM     24  C   UNL     1       7.621  -6.771  -6.619  0.00  0.00    +0.099 C 
BRANCH  24  25
ATOM     25  C   UNL     1       7.368  -7.995  -7.460  0.00  0.00    +0.213 C 
ATOM     26  O   UNL     1       7.052  -9.040  -6.931  0.00  0.00    -0.276 OA
ATOM     27  N   UNL     1       7.494  -7.930  -8.800  0.00  0.00    -0.315 N 
ATOM     28  H   UNL     1       7.747  -7.094  -9.223  0.00  0.00    +0.149 HD
BRANCH  27  29
ATOM     29  C   UNL     1       7.249  -9.120  -9.618  0.00  0.00    +0.108 C 
BRANCH  29  30
ATOM     30  C   UNL     1       7.459  -8.777 -11.094  0.00  0.00    +0.052 C 
BRANCH  30  31
ATOM     31  C   UNL     1       7.207 -10.001 -11.935  0.00  0.00    -0.040 C 
ATOM     32  C   UNL     1       6.053 -10.338 -12.556  0.00  0.00    -0.001 A 
ATOM     33  C   UNL     1       4.738  -9.690 -12.630  0.00  0.00    +0.010 A 
ATOM     34  C   UNL     1       3.754 -10.282 -13.345  0.00  0.00    +0.001 A 
ATOM     35  C   UNL     1       3.959 -11.496 -14.016  0.00  0.00    +0.002 A 
ATOM     36  C   UNL     1       5.139 -12.151 -13.995  0.00  0.00    +0.026 A 
ATOM     37  C   UNL     1       6.243 -11.619 -13.274  0.00  0.00    +0.043 A 
ATOM     38  N   UNL     1       7.467 -12.057 -13.103  0.00  0.00    -0.380 N 
ATOM     39  C   UNL     1       8.194 -11.099 -12.262  0.00  0.00    +0.144 C 
ATOM     40  H   UNL     1       7.832 -12.875 -13.474  0.00  0.00    +0.160 HD
ENDBRANCH  30  31
ENDBRANCH  29  30
ENDBRANCH  27  29
ENDBRANCH  24  25
ENDBRANCH   6  24
TORSDOF 8
