REMARK  Name = ZINC14780940
REMARK  12 active torsions:
REMARK  status: ('A' for Active; 'I' for Inactive)
REMARK    1  A    between atoms: C_1  and  C_2
REMARK    2  A    between atoms: C_2  and  C_30
REMARK    3  A    between atoms: C_3  and  C_4
REMARK    4  A    between atoms: C_4  and  C_5
REMARK    5  A    between atoms: C_7  and  C_12
REMARK    6  A    between atoms: C_10  and  O_11
REMARK    7  A    between atoms: C_16  and  C_25
REMARK    8  A    between atoms: C_17  and  O_24
REMARK    9  A    between atoms: C_19  and  O_23
REMARK   10  A    between atoms: C_25  and  C_26
REMARK   11  A    between atoms: C_27  and  C_28
REMARK   12  A    between atoms: C_27  and  C_29
REMARK                            x       y       z     vdW  Elec       q    Type
REMARK                         _______ _______ _______ _____ _____    ______ ____
ROOT
ATOM      1  C   UNL     1      -1.378  -5.586   0.494  0.00  0.00    +0.064 A 
ATOM      2  C   UNL     1      -0.937  -4.659  -0.394  0.00  0.00    +0.208 A 
ATOM      3  O   UNL     1      -0.344  -3.524  -0.013  0.00  0.00    -0.462 OA
ATOM      4  C   UNL     1      -0.131  -3.197   1.277  0.00  0.00    +0.149 A 
ATOM      5  C   UNL     1       0.491  -2.001   1.607  0.00  0.00    +0.041 A 
ATOM      6  C   UNL     1       0.711  -1.676   2.936  0.00  0.00    +0.127 A 
ATOM      7  C   UNL     1       0.305  -2.532   3.953  0.00  0.00    +0.092 A 
ATOM      8  C   UNL     1      -0.317  -3.728   3.646  0.00  0.00    +0.135 A 
ATOM      9  C   UNL     1      -0.538  -4.066   2.305  0.00  0.00    +0.106 A 
ATOM     10  C   UNL     1      -1.196  -5.329   1.934  0.00  0.00    +0.204 A 
ATOM     11  O   UNL     1      -1.572  -6.125   2.778  0.00  0.00    -0.286 OA
ENDROOT
BRANCH   1  14
ATOM     12  C   UNL     1      -3.677  -7.930  -1.334  0.00  0.00    -0.002 A 
ATOM     13  C   UNL     1      -3.075  -6.769  -0.897  0.00  0.00    +0.016 A 
ATOM     14  C   UNL     1      -2.031  -6.832   0.025  0.00  0.00    -0.011 A 
ATOM     15  C   UNL     1      -1.607  -8.068   0.510  0.00  0.00    +0.012 A 
ATOM     16  C   UNL     1      -2.217  -9.225   0.073  0.00  0.00    +0.046 A 
ATOM     17  C   UNL     1      -3.252  -9.160  -0.850  0.00  0.00    +0.120 A 
BRANCH  17  18
ATOM     18  O   UNL     1      -3.851 -10.302  -1.280  0.00  0.00    -0.506 OA
ATOM     19  H   UNL     1      -4.609 -10.574  -0.744  0.00  0.00    +0.292 HD
ENDBRANCH  17  18
BRANCH  12  20
ATOM     20  C   UNL     1      -4.802  -7.864  -2.335  0.00  0.00    +0.066 C 
BRANCH  20  23
ATOM     21  C   UNL     1      -5.968  -9.929  -3.855  0.00  0.00    +0.038 C 
ATOM     22  C   UNL     1      -4.813  -9.140  -4.417  0.00  0.00    -0.079 C 
ATOM     23  C   UNL     1      -4.271  -8.180  -3.710  0.00  0.00    -0.023 C 
ATOM     24  C   UNL     1      -4.282  -9.456  -5.791  0.00  0.00    +0.038 C 
ENDBRANCH  20  23
ENDBRANCH  12  20
ENDBRANCH   1  14
BRANCH   8  25
ATOM     25  O   UNL     1      -0.710  -4.568   4.637  0.00  0.00    -0.506 OA
ATOM     26  H   UNL     1      -0.037  -5.213   4.895  0.00  0.00    +0.292 HD
ENDBRANCH   8  25
BRANCH   6  27
ATOM     27  O   UNL     1       1.325  -0.506   3.247  0.00  0.00    -0.506 OA
ATOM     28  H   UNL     1       0.718   0.237   3.369  0.00  0.00    +0.292 HD
ENDBRANCH   6  27
BRANCH   5  29
ATOM     29  C   UNL     1       0.933  -1.058   0.518  0.00  0.00    +0.069 C 
BRANCH  29  30
ATOM     30  C   UNL     1      -0.185  -0.098   0.200  0.00  0.00    -0.023 C 
ATOM     31  C   UNL     1      -0.608   0.029  -1.033  0.00  0.00    -0.079 C 
ATOM     32  C   UNL     1       0.107  -0.683  -2.152  0.00  0.00    +0.038 C 
ATOM     33  C   UNL     1      -1.813   0.883  -1.331  0.00  0.00    +0.038 C 
ENDBRANCH  29  30
ENDBRANCH   5  29
TORSDOF 8
