REMARK  Name = ZINC04264450
REMARK  7 active torsions:
REMARK  status: ('A' for Active; 'I' for Inactive)
REMARK    1  A    between atoms: C_1  and  C_2
REMARK    2  A    between atoms: C_2  and  O_3
REMARK    3  A    between atoms: O_3  and  C_4
REMARK    4  A    between atoms: C_4  and  C_6
REMARK    5  A    between atoms: C_8  and  C_20
REMARK    6  A    between atoms: C_14  and  C_15
REMARK    7  A    between atoms: C_14  and  O_19
REMARK                            x       y       z     vdW  Elec       q    Type
REMARK                         _______ _______ _______ _____ _____    ______ ____
ROOT
ATOM      1  C   UNL     1       1.632  -2.683   1.389  0.00  0.00    +0.181 C 
ATOM      2  C   UNL     1       0.895  -2.176   0.145  0.00  0.00    +0.123 C 
ATOM      3  N   UNL     1       1.578  -2.668  -1.052  0.00  0.00    -0.292 N 
ATOM      4  C   UNL     1       2.897  -2.916  -1.051  0.00  0.00    +0.302 C 
ATOM      5  O   UNL     1       3.417  -3.313  -2.075  0.00  0.00    -0.253 OA
ATOM      6  N   UNL     1       3.664  -2.742   0.036  0.00  0.00    -0.264 N 
ATOM      7  C   UNL     1       3.100  -2.254   1.296  0.00  0.00    +0.246 C 
ATOM      8  H   UNL     1       1.067  -2.818  -1.863  0.00  0.00    +0.151 HD
ATOM      9  H   UNL     1       4.611  -2.944  -0.015  0.00  0.00    +0.153 HD
ENDROOT
BRANCH   2  10
ATOM     10  C   UNL     1       0.893  -0.669   0.141  0.00  0.00    -0.024 A 
ATOM     11  C   UNL     1       1.833   0.021  -0.603  0.00  0.00    +0.005 A 
ATOM     12  C   UNL     1       1.833   1.403  -0.608  0.00  0.00    +0.003 A 
ATOM     13  C   UNL     1       0.893   2.097   0.131  0.00  0.00    +0.038 A 
ATOM     14  C   UNL     1      -0.048   1.408   0.876  0.00  0.00    +0.124 A 
ATOM     15  C   UNL     1      -0.047   0.023   0.880  0.00  0.00    +0.043 A 
ATOM     16  F   UNL     1      -0.971   2.085   1.593  0.00  0.00    -0.205 F 
ENDBRANCH   2  10
BRANCH   7  17
ATOM     17  C   UNL     1       3.882  -2.847   2.469  0.00  0.00    +0.436 C 
ATOM     18  F   UNL     1       3.912  -4.241   2.353  0.00  0.00    -0.166 F 
ATOM     19  F   UNL     1       5.190  -2.350   2.457  0.00  0.00    -0.166 F 
ATOM     20  F   UNL     1       3.260  -2.493   3.671  0.00  0.00    -0.166 F 
ENDBRANCH   7  17
BRANCH   1  21
ATOM     21  C   UNL     1       1.547  -4.187   1.449  0.00  0.00    +0.317 C 
ATOM     22  O   UNL     1       1.831  -4.847   0.478  0.00  0.00    -0.250 OA
BRANCH  21  23
ATOM     23  O   UNL     1       1.156  -4.792   2.582  0.00  0.00    -0.465 OA
BRANCH  23  25
ATOM     24  C   UNL     1       0.635  -6.749   3.935  0.00  0.00    +0.048 C 
ATOM     25  C   UNL     1       1.098  -6.243   2.567  0.00  0.00    +0.229 C 
ENDBRANCH  23  25
ENDBRANCH  21  23
ENDBRANCH   1  21
BRANCH   7  26
ATOM     26  O   UNL     1       3.184  -0.828   1.337  0.00  0.00    -0.364 OA
ATOM     27  H   UNL     1       4.087  -0.486   1.282  0.00  0.00    +0.212 HD
ENDBRANCH   7  26
TORSDOF 6
