REMARK  Name = ZINC06149249
REMARK  14 active torsions:
REMARK  status: ('A' for Active; 'I' for Inactive)
REMARK    1  A    between atoms: C_1  and  C_2
REMARK    2  A    between atoms: C_2  and  C_3
REMARK    3  A    between atoms: C_3  and  C_4
REMARK    4  A    between atoms: C_3  and  C_5
REMARK    5  A    between atoms: C_3  and  N_6
REMARK    6  A    between atoms: C_7  and  C_11
REMARK    7  A    between atoms: C_11  and  C_13
REMARK    8  A    between atoms: C_11  and  N_72
REMARK    9  A    between atoms: C_18  and  C_26
REMARK   10  A    between atoms: C_19  and  C_25
REMARK   11  A    between atoms: C_27  and  C_28
REMARK   12  A    between atoms: C_27  and  N_72
REMARK   13  A    between atoms: C_34  and  C_35
REMARK   14  A    between atoms: C_34  and  N_72
REMARK                            x       y       z     vdW  Elec       q    Type
REMARK                         _______ _______ _______ _____ _____    ______ ____
ROOT
ATOM      1  C   UNL     1       4.266   0.833  -0.606  0.00  0.00    +0.040 C 
ENDROOT
BRANCH   1   2
ATOM      2  C   UNL     1       3.022   1.636  -0.885  0.00  0.00    +0.011 A 
ATOM      3  C   UNL     1       1.834   1.005  -1.056  0.00  0.00    +0.017 A 
ATOM      4  C   UNL     1       0.644   1.814  -1.326  0.00  0.00    -0.001 A 
ATOM      5  C   UNL     1      -0.608   1.219  -1.511  0.00  0.00    +0.010 A 
ATOM      6  C   UNL     1      -1.698   2.002  -1.766  0.00  0.00    +0.004 A 
ATOM      7  C   UNL     1      -1.576   3.383  -1.833  0.00  0.00    -0.046 A 
ATOM      8  C   UNL     1      -0.352   3.991  -1.654  0.00  0.00    -0.024 A 
ATOM      9  C   UNL     1       0.773   3.214  -1.398  0.00  0.00    +0.052 A 
ATOM     10  N   UNL     1       2.010   3.795  -1.215  0.00  0.00    -0.322 N 
ATOM     11  H   UNL     1       2.099   4.789  -1.267  0.00  0.00    +0.169 HD
ATOM     12  C   UNL     1       3.097   3.043  -0.967  0.00  0.00    +0.251 A 
ATOM     13  O   UNL     1       4.174   3.591  -0.810  0.00  0.00    -0.268 OA
ATOM     14  C   UNL     1      -0.233   5.491  -1.734  0.00  0.00    +0.046 C 
ATOM     15  C   UNL     1      -2.794   4.227  -2.110  0.00  0.00    +0.044 C 
ENDBRANCH   1   2
BRANCH   1  17
ATOM     16  N   UNL     1       4.641   0.399   1.879  0.00  0.00    -0.225 N 
ATOM     17  C   UNL     1       4.775   1.157   0.775  0.00  0.00    +0.143 A 
ATOM     18  N   UNL     1       5.438   2.230   1.133  0.00  0.00    -0.115 NA
ATOM     19  N   UNL     1       5.691   2.139   2.393  0.00  0.00    -0.023 NA
ATOM     20  N   UNL     1       5.214   1.033   2.846  0.00  0.00    -0.043 NA
BRANCH  16  21
ATOM     21  C   UNL     1       3.973  -0.901   1.966  0.00  0.00    +0.061 C 
ATOM     22  C   UNL     1       2.523  -0.761   1.496  0.00  0.00    +0.036 C 
ATOM     23  C   UNL     1       4.702  -1.910   1.076  0.00  0.00    +0.036 C 
BRANCH  21  25
ATOM     24  C   UNL     1       3.296  -2.748   3.506  0.00  0.00    +0.006 C 
ATOM     25  C   UNL     1       3.994  -1.390   3.415  0.00  0.00    +0.026 C 
ENDBRANCH  21  25
ENDBRANCH  16  21
ENDBRANCH   1  17
BRANCH   1  26
ATOM     26  N   UNL     1       5.308   1.192  -1.591  0.00  0.00    +0.397 N 
ATOM     27  H   UNL     1       5.702   2.107  -1.342  0.00  0.00    -0.079 HD
BRANCH  26  28
ATOM     28  C   UNL     1       6.388   0.184  -1.575  0.00  0.00    -0.041 C 
BRANCH  28  29
ATOM     29  C   UNL     1       7.396   0.578  -0.525  0.00  0.00    -0.064 A 
ATOM     30  C   UNL     1       8.360   1.526  -0.814  0.00  0.00    +0.002 A 
ATOM     31  C   UNL     1       9.281   1.891   0.150  0.00  0.00    +0.000 A 
ATOM     32  C   UNL     1       9.245   1.300   1.399  0.00  0.00    +0.000 A 
ATOM     33  C   UNL     1       8.285   0.348   1.686  0.00  0.00    +0.000 A 
ATOM     34  C   UNL     1       7.360  -0.013   0.724  0.00  0.00    +0.002 A 
ENDBRANCH  28  29
ENDBRANCH  26  28
BRANCH  26  35
ATOM     35  C   UNL     1       4.717   1.277  -2.944  0.00  0.00    -0.001 C 
BRANCH  35  36
ATOM     36  C   UNL     1       5.722   1.905  -3.874  0.00  0.00    +0.089 A 
ATOM     37  C   UNL     1       6.558   1.242  -4.693  0.00  0.00    +0.042 A 
ATOM     38  C   UNL     1       7.319   2.217  -5.379  0.00  0.00    +0.041 A 
ATOM     39  C   UNL     1       6.902   3.418  -4.938  0.00  0.00    +0.195 A 
ATOM     40  O   UNL     1       5.930   3.223  -4.031  0.00  0.00    -0.470 OA
ENDBRANCH  35  36
ENDBRANCH  26  35
ENDBRANCH   1  26
TORSDOF 9
