REMARK  Name = ZINC17729588
REMARK  4 active torsions:
REMARK  status: ('A' for Active; 'I' for Inactive)
REMARK    1  A    between atoms: C_4  and  C_7
REMARK    2  A    between atoms: C_7  and  O_28
REMARK    3  A    between atoms: C_20  and  C_21
REMARK    4  A    between atoms: C_20  and  O_27
REMARK                            x       y       z     vdW  Elec       q    Type
REMARK                         _______ _______ _______ _____ _____    ______ ____
ROOT
ATOM      1  C   UNL     1       2.014   4.941  -1.022  0.00  0.00    +0.153 C 
ATOM      2  C   UNL     1       0.943   5.970  -0.781  0.00  0.00    -0.001 A 
ATOM      3  C   UNL     1       1.141   7.283  -1.157  0.00  0.00    +0.007 A 
ATOM      4  C   UNL     1       0.145   8.221  -0.951  0.00  0.00    +0.000 A 
ATOM      5  C   UNL     1      -1.055   7.851  -0.371  0.00  0.00    +0.001 A 
ATOM      6  C   UNL     1      -1.262   6.541   0.016  0.00  0.00    +0.009 A 
ATOM      7  C   UNL     1      -0.258   5.598  -0.180  0.00  0.00    -0.011 A 
ATOM      8  C   UNL     1      -0.434   4.198   0.275  0.00  0.00    -0.011 A 
ATOM      9  C   UNL     1      -1.700   3.699   0.566  0.00  0.00    +0.009 A 
ATOM     10  C   UNL     1      -1.844   2.381   0.953  0.00  0.00    +0.001 A 
ATOM     11  C   UNL     1      -0.732   1.567   1.066  0.00  0.00    +0.000 A 
ATOM     12  C   UNL     1       0.530   2.063   0.789  0.00  0.00    +0.007 A 
ATOM     13  C   UNL     1       0.685   3.377   0.397  0.00  0.00    -0.001 A 
ATOM     14  C   UNL     1       2.058   3.929   0.119  0.00  0.00    +0.153 C 
ENDROOT
BRANCH   1  18
ATOM     15  C   UNL     1       1.204   2.897  -4.684  0.00  0.00    +0.000 A 
ATOM     16  C   UNL     1       0.175   3.166  -3.800  0.00  0.00    +0.000 A 
ATOM     17  C   UNL     1       0.437   3.828  -2.615  0.00  0.00    +0.007 A 
ATOM     18  C   UNL     1       1.728   4.219  -2.313  0.00  0.00    -0.008 A 
ATOM     19  C   UNL     1       2.756   3.954  -3.199  0.00  0.00    +0.007 A 
ATOM     20  C   UNL     1       2.494   3.289  -4.382  0.00  0.00    +0.000 A 
ENDBRANCH   1  18
BRANCH  14  21
ATOM     21  C   UNL     1       2.980   2.798  -0.255  0.00  0.00    -0.008 A 
ATOM     22  C   UNL     1       2.552   1.817  -1.130  0.00  0.00    +0.007 A 
ATOM     23  C   UNL     1       3.400   0.782  -1.477  0.00  0.00    +0.000 A 
ATOM     24  C   UNL     1       4.673   0.724  -0.942  0.00  0.00    +0.000 A 
ATOM     25  C   UNL     1       5.100   1.702  -0.064  0.00  0.00    +0.000 A 
ATOM     26  C   UNL     1       4.253   2.739   0.280  0.00  0.00    +0.007 A 
ENDBRANCH  14  21
BRANCH  14  27
ATOM     27  O   UNL     1       2.553   4.570   1.296  0.00  0.00    -0.376 OA
ATOM     28  H   UNL     1       2.658   4.000   2.231  0.00  0.00    +0.211 HD
ENDBRANCH  14  27
BRANCH   1  29
ATOM     29  O   UNL     1       3.281   5.595  -1.119  0.00  0.00    -0.376 OA
ATOM     30  H   UNL     1       3.665   6.178  -0.269  0.00  0.00    +0.211 HD
ENDBRANCH   1  29
TORSDOF 4
