REMARK  Name = ZINC46173763
REMARK  4 active torsions:
REMARK  status: ('A' for Active; 'I' for Inactive)
REMARK    1  A    between atoms: C_6  and  C_7
REMARK    2  A    between atoms: C_8  and  C_13
REMARK    3  A    between atoms: C_13  and  N_14
REMARK    4  A    between atoms: C_17  and  C_21
REMARK                            x       y       z     vdW  Elec       q    Type
REMARK                         _______ _______ _______ _____ _____    ______ ____
ROOT
ATOM      1  N   UNL     1       0.381  -3.512  -0.591  0.00  0.00    -0.325 N 
ATOM      2  C   UNL     1       1.384  -4.300  -1.130  0.00  0.00    +0.122 A 
ATOM      3  C   UNL     1       1.556  -4.382  -2.514  0.00  0.00    +0.067 A 
ATOM      4  C   UNL     1       2.570  -5.181  -3.003  0.00  0.00    +0.049 A 
ATOM      5  N   UNL     1       3.343  -5.839  -2.150  0.00  0.00    -0.240 NA
ATOM      6  C   UNL     1       3.155  -5.741  -0.850  0.00  0.00    +0.223 A 
ATOM      7  N   UNL     1       2.203  -4.987  -0.339  0.00  0.00    -0.221 NA
ATOM      8  H   UNL     1       0.271  -3.458   0.372  0.00  0.00    +0.148 HD
ENDROOT
BRANCH   4   9
ATOM      9  C   UNL     1       2.796  -5.303  -4.488  0.00  0.00    +0.034 C 
ATOM     10  C   UNL     1       2.480  -3.966  -5.166  0.00  0.00    -0.010 C 
ATOM     11  C   UNL     1       2.635  -4.120  -6.680  0.00  0.00    -0.082 C 
ATOM     12  N   UNL     1       1.709  -5.149  -7.169  0.00  0.00    +0.379 N 
ATOM     13  C   UNL     1       2.052  -6.448  -6.578  0.00  0.00    -0.082 C 
ATOM     14  C   UNL     1       1.875  -6.384  -5.059  0.00  0.00    -0.010 C 
ATOM     15  H   UNL     1       0.766  -4.901  -6.910  0.00  0.00    -0.086 HD
ATOM     16  H   UNL     1       1.776  -5.210  -8.174  0.00  0.00    -0.086 HD
ENDBRANCH   4   9
BRANCH   1  17
ATOM     17  C   UNL     1      -0.515  -2.761  -1.473  0.00  0.00    +0.142 C 
BRANCH  17  19
ATOM     18  C   UNL     1      -1.272  -0.766   0.011  0.00  0.00    +0.097 A 
ATOM     19  C   UNL     1      -1.509  -1.991  -0.642  0.00  0.00    +0.015 A 
ATOM     20  C   UNL     1      -2.786  -2.353  -0.391  0.00  0.00    +0.110 A 
ATOM     21  N   UNL     1      -3.344  -1.402   0.388  0.00  0.00    -0.284 N 
ATOM     22  H   UNL     1      -4.254  -1.402   0.723  0.00  0.00    +0.188 HD
ATOM     23  N   UNL     1      -2.377  -0.418   0.634  0.00  0.00    -0.174 NA
BRANCH  18  29
ATOM     24  C   UNL     1      -0.017   1.389   0.010  0.00  0.00    +0.013 A 
ATOM     25  C   UNL     1       1.170   2.093   0.002  0.00  0.00    +0.039 A 
ATOM     26  C   UNL     1       2.379   1.417  -0.013  0.00  0.00    +0.123 A 
ATOM     27  C   UNL     1       2.402   0.032  -0.021  0.00  0.00    +0.039 A 
ATOM     28  C   UNL     1       1.220  -0.680  -0.014  0.00  0.00    +0.013 A 
ATOM     29  C   UNL     1       0.002  -0.004   0.002  0.00  0.00    +0.003 A 
ATOM     30  F   UNL     1       3.538   2.110  -0.021  0.00  0.00    -0.205 F 
ENDBRANCH  18  29
ENDBRANCH  17  19
ENDBRANCH   1  17
TORSDOF 4
