REMARK  Name = ZINC09303465
REMARK  11 active torsions:
REMARK  status: ('A' for Active; 'I' for Inactive)
REMARK    1  A    between atoms: C_1  and  C_2
REMARK    2  A    between atoms: C_5  and  N_9
REMARK    3  A    between atoms: C_6  and  C_8
REMARK    4  A    between atoms: C_10  and  C_12
REMARK    5  A    between atoms: C_12  and  C_13
REMARK    6  A    between atoms: C_16  and  S_19
REMARK    7  A    between atoms: N_17  and  C_18
REMARK    8  A    between atoms: S_19  and  C_20
REMARK    9  A    between atoms: C_20  and  C_22
REMARK   10  A    between atoms: C_20  and  C_23
REMARK   11  A    between atoms: N_25  and  C_26
REMARK                            x       y       z     vdW  Elec       q    Type
REMARK                         _______ _______ _______ _____ _____    ______ ____
ROOT
ATOM      1  C   UNL     1      -0.915  -2.248  -0.088  0.00  0.00    +0.143 A 
ATOM      2  N   UNL     1       0.354  -2.140   0.184  0.00  0.00    -0.133 NA
ATOM      3  N   UNL     1       0.665  -0.904   0.353  0.00  0.00    -0.122 NA
ATOM      4  C   UNL     1      -0.400  -0.151   0.204  0.00  0.00    +0.192 A 
ATOM      5  N   UNL     1      -1.442  -0.985  -0.085  0.00  0.00    -0.309 N 
ATOM      6  C   UNL     1      -2.834  -0.607  -0.340  0.00  0.00    +0.152 C 
ENDROOT
BRANCH   1   7
ATOM      7  C   UNL     1      -1.665  -3.527  -0.357  0.00  0.00    +0.172 C 
BRANCH   7   9
ATOM      8  N   UNL     1      -2.238  -4.934  -2.309  0.00  0.00    -0.285 N 
ATOM      9  C   UNL     1      -1.628  -3.831  -1.833  0.00  0.00    +0.225 C 
ATOM     10  O   UNL     1      -1.050  -3.082  -2.591  0.00  0.00    -0.275 OA
ATOM     11  H   UNL     1      -2.634  -5.573  -1.695  0.00  0.00    +0.155 HD
BRANCH   8  16
ATOM     12  C   UNL     1      -2.489  -5.845  -7.903  0.00  0.00    +0.044 C 
ATOM     13  C   UNL     1      -2.423  -5.603  -6.417  0.00  0.00    -0.050 A 
ATOM     14  C   UNL     1      -2.224  -4.322  -5.934  0.00  0.00    +0.005 A 
ATOM     15  C   UNL     1      -2.162  -4.097  -4.574  0.00  0.00    +0.024 A 
ATOM     16  C   UNL     1      -2.300  -5.159  -3.689  0.00  0.00    +0.036 A 
ATOM     17  C   UNL     1      -2.494  -6.444  -4.176  0.00  0.00    -0.029 A 
ATOM     18  C   UNL     1      -2.560  -6.662  -5.539  0.00  0.00    +0.008 A 
ATOM     19  C   UNL     1      -2.637  -7.600  -3.220  0.00  0.00    +0.045 C 
ENDBRANCH   8  16
ENDBRANCH   7   9
ENDBRANCH   1   7
BRANCH   4  20
ATOM     20  S   UNL     1      -0.471   1.603   0.344  0.00  0.00    -0.074 S 
BRANCH  20  21
ATOM     21  C   UNL     1       1.261   1.958   0.734  0.00  0.00    +0.137 C 
ATOM     22  C   UNL     1       2.141   1.574  -0.457  0.00  0.00    +0.029 C 
BRANCH  21  23
ATOM     23  C   UNL     1       1.420   3.428   1.024  0.00  0.00    +0.230 C 
ATOM     24  O   UNL     1       0.585   4.217   0.634  0.00  0.00    -0.274 OA
ATOM     25  N   UNL     1       2.490   3.867   1.716  0.00  0.00    -0.284 N 
ATOM     26  H   UNL     1       3.196   3.248   1.962  0.00  0.00    +0.155 HD
BRANCH  25  27
ATOM     27  C   UNL     1       2.583   5.216   2.081  0.00  0.00    +0.037 A 
ATOM     28  C   UNL     1       3.824   5.835   2.142  0.00  0.00    +0.027 A 
ATOM     29  C   UNL     1       3.917   7.167   2.498  0.00  0.00    +0.051 A 
ATOM     30  C   UNL     1       2.773   7.886   2.804  0.00  0.00    +0.166 A 
ATOM     31  C   UNL     1       1.527   7.267   2.749  0.00  0.00    +0.168 A 
ATOM     32  C   UNL     1       1.434   5.933   2.388  0.00  0.00    +0.072 A 
ATOM     33  O   UNL     1       0.571   8.179   3.092  0.00  0.00    -0.453 OA
ATOM     34  C   UNL     1       1.276   9.246   3.752  0.00  0.00    +0.466 C 
ATOM     35  O   UNL     1       2.597   9.187   3.182  0.00  0.00    -0.453 OA
ENDBRANCH  25  27
ENDBRANCH  21  23
ENDBRANCH  20  21
ENDBRANCH   4  20
TORSDOF 7
