REMARK  Name = ZINC40672169
REMARK  5 active torsions:
REMARK  status: ('A' for Active; 'I' for Inactive)
REMARK    1  A    between atoms: C_1  and  N_2
REMARK    2  A    between atoms: C_6  and  N_9
REMARK    3  A    between atoms: N_9  and  S_10
REMARK    4  A    between atoms: S_10  and  C_13
REMARK    5  A    between atoms: C_14  and  N_21
REMARK                            x       y       z     vdW  Elec       q    Type
REMARK                         _______ _______ _______ _____ _____    ______ ____
ROOT
ATOM      1  S   UNL     1       3.007  -4.700   2.245  0.00  0.00    +0.061 S 
ATOM      2  O   UNL     1       3.816  -5.157   3.321  0.00  0.00    -0.153 OA
ATOM      3  O   UNL     1       2.267  -5.588   1.419  0.00  0.00    -0.153 OA
ENDROOT
BRANCH   1   4
ATOM      4  C   UNL     1       4.063  -3.780   1.177  0.00  0.00    +0.140 A 
ATOM      5  C   UNL     1       3.783  -3.705  -0.182  0.00  0.00    +0.053 A 
ATOM      6  C   UNL     1       4.617  -2.978  -1.021  0.00  0.00    +0.040 A 
ATOM      7  C   UNL     1       5.724  -2.332  -0.503  0.00  0.00    +0.021 A 
ATOM      8  C   UNL     1       6.001  -2.409   0.850  0.00  0.00    +0.032 A 
ATOM      9  C   UNL     1       5.168  -3.128   1.690  0.00  0.00    +0.047 A 
ATOM     10 BR   UNL     1       5.546  -3.223   3.540  0.00  0.00    -0.048 Br
ATOM     11 BR   UNL     1       6.861  -1.343  -1.645  0.00  0.00    -0.050 Br
BRANCH   5  12
ATOM     12  N   UNL     1       2.664  -4.359  -0.703  0.00  0.00    -0.356 N 
ATOM     13  H   UNL     1       1.896  -4.532  -0.136  0.00  0.00    +0.142 HD
ATOM     14  H   UNL     1       2.656  -4.641  -1.631  0.00  0.00    +0.142 HD
ENDBRANCH   5  12
ENDBRANCH   1   4
BRANCH   1  15
ATOM     15  N   UNL     1       1.917  -3.635   2.892  0.00  0.00    -0.189 NA
ATOM     16  H   UNL     1       1.920  -3.456   3.845  0.00  0.00    +0.148 HD
BRANCH  15  22
ATOM     17  C   UNL     1      -0.464   0.514   2.130  0.00  0.00    -0.096 C 
ATOM     18  N   UNL     1      -0.282  -0.871   1.675  0.00  0.00    +0.379 N 
ATOM     19  C   UNL     1      -1.568  -1.575   1.729  0.00  0.00    -0.079 C 
ATOM     20  C   UNL     1      -1.401  -2.994   1.180  0.00  0.00    -0.017 C 
ATOM     21  C   UNL     1      -0.370  -3.745   2.027  0.00  0.00    +0.017 C 
ATOM     22  C   UNL     1       0.946  -2.963   2.024  0.00  0.00    +0.060 C 
ATOM     23  C   UNL     1       0.692  -1.546   2.542  0.00  0.00    -0.059 C 
ATOM     24  H   UNL     1       0.059  -0.870   0.726  0.00  0.00    -0.082 HD
ENDBRANCH  15  22
ENDBRANCH   1  15
TORSDOF 4
