REMARK  Name = ZINC21258226
REMARK  11 active torsions:
REMARK  status: ('A' for Active; 'I' for Inactive)
REMARK    1  A    between atoms: C_1  and  C_2
REMARK    2  A    between atoms: C_2  and  O_3
REMARK    3  A    between atoms: O_3  and  C_4
REMARK    4  A    between atoms: C_6  and  C_14
REMARK    5  A    between atoms: C_8  and  N_11
REMARK    6  A    between atoms: C_9  and  O_10
REMARK    7  A    between atoms: C_19  and  C_24
REMARK    8  A    between atoms: C_27  and  O_30
REMARK    9  A    between atoms: O_30  and  C_31
REMARK   10  A    between atoms: C_31  and  C_32
REMARK   11  A    between atoms: C_31  and  C_33
REMARK                            x       y       z     vdW  Elec       q    Type
REMARK                         _______ _______ _______ _____ _____    ______ ____
ROOT
ATOM      1  C   UNL     1     -10.290   3.717  -0.376  0.00  0.00    +0.136 C 
ATOM      2  C   UNL     1      -8.789   3.581  -0.286  0.00  0.00    +0.036 C 
ATOM      3  C   UNL     1      -7.891   4.530  -0.598  0.00  0.00    +0.017 C 
ATOM      4  C   UNL     1      -6.403   4.258  -0.455  0.00  0.00    +0.059 C 
ATOM      5  C   UNL     1      -6.158   3.299   0.709  0.00  0.00    +0.032 C 
ATOM      6  C   UNL     1      -6.909   1.997   0.405  0.00  0.00    +0.088 C 
ATOM      7  C   UNL     1      -8.357   2.321   0.192  0.00  0.00    +0.163 C 
ATOM      8  O   UNL     1      -9.190   1.471   0.439  0.00  0.00    -0.292 OA
ATOM      9  N   UNL     1      -8.196   5.768  -1.066  0.00  0.00    -0.316 N 
ATOM     10  C   UNL     1      -9.167   6.606  -0.525  0.00  0.00    +0.052 A 
ATOM     11  C   UNL     1      -8.857   7.826   0.048  0.00  0.00    +0.025 A 
ATOM     12  C   UNL     1      -9.879   8.632   0.521  0.00  0.00    +0.002 A 
ATOM     13  C   UNL     1     -11.195   8.220   0.417  0.00  0.00    +0.002 A 
ATOM     14  C   UNL     1     -11.504   6.991  -0.139  0.00  0.00    +0.025 A 
ATOM     15  C   UNL     1     -10.482   6.171  -0.593  0.00  0.00    +0.049 A 
ATOM     16  N   UNL     1     -10.742   4.895  -1.085  0.00  0.00    -0.331 N 
ATOM     17  H   UNL     1      -7.659   6.175  -1.935  0.00  0.00    +0.152 HD
ATOM     18  H   UNL     1     -11.299   4.790  -2.028  0.00  0.00    +0.147 HD
ENDROOT
BRANCH   1  21
ATOM     19  C   UNL     1     -12.217   2.789   2.739  0.00  0.00    +0.164 A 
ATOM     20  C   UNL     1     -11.700   2.754   1.453  0.00  0.00    +0.055 A 
ATOM     21  C   UNL     1     -10.851   3.756   1.022  0.00  0.00    -0.017 A 
ATOM     22  C   UNL     1     -10.511   4.792   1.873  0.00  0.00    +0.042 A 
ATOM     23  C   UNL     1     -11.028   4.835   3.155  0.00  0.00    +0.171 A 
ATOM     24  C   UNL     1     -11.879   3.834   3.593  0.00  0.00    +0.189 A 
BRANCH  23  25
ATOM     25  N   UNL     1     -10.667   5.949   4.061  0.00  0.00    +0.060 N 
ATOM     26  O   UNL     1      -9.918   6.829   3.675  0.00  0.00    -0.126 OA
ATOM     27  O   UNL     1     -11.118   5.985   5.191  0.00  0.00    -0.126 OA
ENDBRANCH  23  25
BRANCH  24  28
ATOM     28  O   UNL     1     -12.384   3.873   4.855  0.00  0.00    -0.502 OA
ATOM     29  H   UNL     1     -12.116   4.699   5.530  0.00  0.00    +0.292 HD
ENDBRANCH  24  28
BRANCH  19  30
ATOM     30  O   UNL     1     -13.052   1.804   3.164  0.00  0.00    -0.488 OA
BRANCH  30  32
ATOM     31  C   UNL     1     -14.301  -0.247   2.887  0.00  0.00    +0.048 C 
ATOM     32  C   UNL     1     -13.354   0.762   2.233  0.00  0.00    +0.226 C 
ENDBRANCH  30  32
ENDBRANCH  19  30
ENDBRANCH   1  21
BRANCH   5  33
ATOM     33  C   UNL     1      -4.683   3.020   0.839  0.00  0.00    -0.043 A 
ATOM     34  C   UNL     1      -4.028   3.305   2.023  0.00  0.00    +0.007 A 
ATOM     35  C   UNL     1      -2.676   3.050   2.145  0.00  0.00    +0.046 A 
ATOM     36  C   UNL     1      -1.975   2.507   1.078  0.00  0.00    +0.121 A 
ATOM     37  C   UNL     1      -2.633   2.227  -0.111  0.00  0.00    +0.046 A 
ATOM     38  C   UNL     1      -3.986   2.479  -0.226  0.00  0.00    +0.007 A 
BRANCH  36  39
ATOM     39  O   UNL     1      -0.645   2.255   1.196  0.00  0.00    -0.489 OA
BRANCH  39  40
ATOM     40  C   UNL     1       0.036   1.804   0.023  0.00  0.00    +0.167 C 
ATOM     41  C   UNL     1      -0.119   0.287  -0.105  0.00  0.00    +0.051 C 
ATOM     42  C   UNL     1       1.521   2.157   0.128  0.00  0.00    +0.051 C 
ENDBRANCH  39  40
ENDBRANCH  36  39
ENDBRANCH   5  33
TORSDOF 8
