REMARK  Name = ZINC20463811
REMARK  8 active torsions:
REMARK  status: ('A' for Active; 'I' for Inactive)
REMARK    1  A    between atoms: C_1  and  O_2
REMARK    2  A    between atoms: O_2  and  C_3
REMARK    3  A    between atoms: C_8  and  N_9
REMARK    4  A    between atoms: N_12  and  C_15
REMARK    5  A    between atoms: C_17  and  O_36
REMARK    6  A    between atoms: C_19  and  N_28
REMARK    7  A    between atoms: N_28  and  C_29
REMARK    8  A    between atoms: C_29  and  C_30
REMARK                            x       y       z     vdW  Elec       q    Type
REMARK                         _______ _______ _______ _____ _____    ______ ____
ROOT
ATOM      1  C   UNL     1      -5.391   6.871   0.054  0.00  0.00    +0.140 C 
ATOM      2  C   UNL     1      -5.482   7.782  -1.175  0.00  0.00    +0.125 C 
ATOM      3  C   UNL     1      -4.456   8.913  -1.044  0.00  0.00    -0.009 C 
ATOM      4  C   UNL     1      -4.645   9.587   0.325  0.00  0.00    +0.136 C 
ATOM      5  C   UNL     1      -6.161   9.803   0.539  0.00  0.00    +0.193 C 
ATOM      6  O   UNL     1      -6.617   8.606   1.195  0.00  0.00    -0.347 OA
ATOM      7  C   UNL     1      -5.477   7.736   1.320  0.00  0.00    +0.270 C 
ATOM      8  O   UNL     1      -4.320   8.601   1.336  0.00  0.00    -0.346 OA
ENDROOT
BRANCH   1  12
ATOM      9  N   UNL     1      -2.451   3.839   0.145  0.00  0.00    -0.325 N 
ATOM     10  C   UNL     1      -2.674   4.544  -1.125  0.00  0.00    +0.120 C 
ATOM     11  C   UNL     1      -4.048   5.216  -1.097  0.00  0.00    +0.104 C 
ATOM     12  N   UNL     1      -4.112   6.148   0.037  0.00  0.00    -0.290 NA
ATOM     13  C   UNL     1      -3.889   5.443   1.307  0.00  0.00    +0.104 C 
ATOM     14  C   UNL     1      -2.514   4.771   1.279  0.00  0.00    +0.120 C 
BRANCH   9  20
ATOM     15  C   UNL     1      -1.214   1.760   0.213  0.00  0.00    +0.141 A 
ATOM     16  C   UNL     1      -0.005   1.085   0.204  0.00  0.00    +0.047 A 
ATOM     17  C   UNL     1       1.180   1.789   0.098  0.00  0.00    +0.004 A 
ATOM     18  C   UNL     1       1.163   3.169   0.009  0.00  0.00    +0.002 A 
ATOM     19  C   UNL     1      -0.039   3.851   0.024  0.00  0.00    +0.027 A 
ATOM     20  C   UNL     1      -1.232   3.151   0.129  0.00  0.00    +0.072 A 
BRANCH  15  22
ATOM     21  C   UNL     1      -2.286  -0.355   0.400  0.00  0.00    +0.277 C 
ATOM     22  O   UNL     1      -2.381   1.068   0.311  0.00  0.00    -0.493 OA
ENDBRANCH  15  22
ENDBRANCH   9  20
ENDBRANCH   1  12
BRANCH   3  23
ATOM     23  N   UNL     1      -3.098   8.361  -1.139  0.00  0.00    +0.387 N 
ATOM     24  H   UNL     1      -2.776   8.006  -0.149  0.00  0.00    -0.085 HD
ATOM     25  H   UNL     1      -3.092   7.522  -1.849  0.00  0.00    -0.085 HD
BRANCH  23  26
ATOM     26  C   UNL     1      -2.148   9.380  -1.605  0.00  0.00    -0.046 C 
BRANCH  26  27
ATOM     27  C   UNL     1      -0.768   8.778  -1.690  0.00  0.00    -0.064 A 
ATOM     28  C   UNL     1       0.077   8.830  -0.598  0.00  0.00    +0.002 A 
ATOM     29  C   UNL     1       1.340   8.274  -0.674  0.00  0.00    +0.000 A 
ATOM     30  C   UNL     1       1.762   7.675  -1.847  0.00  0.00    +0.000 A 
ATOM     31  C   UNL     1       0.918   7.628  -2.941  0.00  0.00    +0.000 A 
ATOM     32  C   UNL     1      -0.347   8.179  -2.863  0.00  0.00    +0.002 A 
ENDBRANCH  26  27
ENDBRANCH  23  26
ENDBRANCH   3  23
BRANCH   2  33
ATOM     33  O   UNL     1      -6.796   8.337  -1.261  0.00  0.00    -0.392 OA
ATOM     34  H   UNL     1      -7.052   9.021  -2.084  0.00  0.00    +0.210 HD
ENDBRANCH   2  33
TORSDOF 7
