REMARK  Name = ZINC06364110
REMARK  10 active torsions:
REMARK  status: ('A' for Active; 'I' for Inactive)
REMARK    1  A    between atoms: C_1  and  C_2
REMARK    2  A    between atoms: C_2  and  C_3
REMARK    3  A    between atoms: C_2  and  C_4
REMARK    4  A    between atoms: C_2  and  C_5
REMARK    5  A    between atoms: C_10  and  N_11
REMARK    6  A    between atoms: C_16  and  C_23
REMARK    7  A    between atoms: C_18  and  N_22
REMARK    8  A    between atoms: C_23  and  C_24
REMARK    9  A    between atoms: C_23  and  C_25
REMARK   10  A    between atoms: C_23  and  C_26
REMARK                            x       y       z     vdW  Elec       q    Type
REMARK                         _______ _______ _______ _____ _____    ______ ____
ROOT
ATOM      1  C   UNL     1      -2.314  -3.999  -0.358  0.00  0.00    -0.021 A 
ATOM      2  C   UNL     1      -1.117  -4.380   0.209  0.00  0.00    +0.007 A 
ATOM      3  C   UNL     1      -0.226  -3.428   0.681  0.00  0.00    +0.013 A 
ATOM      4  C   UNL     1      -0.534  -2.075   0.585  0.00  0.00    +0.035 A 
ATOM      5  C   UNL     1      -1.754  -1.677   0.007  0.00  0.00    +0.054 A 
ATOM      6  C   UNL     1      -2.645  -2.649  -0.466  0.00  0.00    +0.040 A 
ATOM      7  C   UNL     1      -2.090  -0.247  -0.097  0.00  0.00    +0.196 C 
ATOM      8  O   UNL     1      -3.144   0.096  -0.597  0.00  0.00    -0.287 OA
ATOM      9  C   UNL     1      -1.142   0.770   0.404  0.00  0.00    +0.035 A 
ATOM     10  C   UNL     1      -1.450   2.122   0.308  0.00  0.00    +0.016 A 
ATOM     11  C   UNL     1      -0.559   3.074   0.780  0.00  0.00    -0.040 A 
ATOM     12  C   UNL     1       0.638   2.694   1.348  0.00  0.00    +0.027 A 
ATOM     13  C   UNL     1       0.969   1.343   1.455  0.00  0.00    +0.036 A 
ATOM     14  C   UNL     1       0.078   0.371   0.982  0.00  0.00    +0.054 A 
ATOM     15  C   UNL     1       0.413  -1.058   1.087  0.00  0.00    +0.196 C 
ATOM     16  O   UNL     1       1.467  -1.401   1.586  0.00  0.00    -0.287 OA
ENDROOT
BRANCH   1  18
ATOM     17  C   UNL     1      -2.614  -6.427  -0.765  0.00  0.00    +0.015 C 
ATOM     18  C   UNL     1      -3.270  -5.048  -0.866  0.00  0.00    -0.011 C 
ATOM     19  C   UNL     1      -4.545  -5.028  -0.020  0.00  0.00    +0.015 C 
ATOM     20  C   UNL     1      -3.621  -4.755  -2.326  0.00  0.00    +0.015 C 
ENDBRANCH   1  18
BRANCH  11  21
ATOM     21  C   UNL     1      -0.903   4.537   0.671  0.00  0.00    -0.013 C 
ATOM     22  C   UNL     1      -2.193   4.817   1.444  0.00  0.00    +0.015 C 
ATOM     23  C   UNL     1       0.236   5.373   1.259  0.00  0.00    +0.015 C 
ATOM     24  C   UNL     1      -1.099   4.907  -0.800  0.00  0.00    +0.015 C 
ENDBRANCH  11  21
BRANCH   6  25
ATOM     25  N   UNL     1      -3.850  -2.271  -1.037  0.00  0.00    -0.357 N 
ATOM     26  H   UNL     1      -4.586  -2.901  -1.080  0.00  0.00    +0.142 HD
ATOM     27  H   UNL     1      -3.958  -1.375  -1.395  0.00  0.00    +0.142 HD
ENDBRANCH   6  25
BRANCH  13  28
ATOM     28  N   UNL     1       2.174   0.964   2.026  0.00  0.00    -0.357 N 
ATOM     29  H   UNL     1       2.563   0.102   1.812  0.00  0.00    +0.142 HD
ATOM     30  H   UNL     1       2.629   1.562   2.640  0.00  0.00    +0.142 HD
ENDBRANCH  13  28
TORSDOF 4
