REMARK  Name = ZINC00732046
REMARK  3 active torsions:
REMARK  status: ('A' for Active; 'I' for Inactive)
REMARK    1  A    between atoms: C_8  and  C_12
REMARK    2  A    between atoms: N_14  and  C_15
REMARK    3  A    between atoms: C_16  and  C_24
REMARK                            x       y       z     vdW  Elec       q    Type
REMARK                         _______ _______ _______ _____ _____    ______ ____
ROOT
ATOM      1  C   UNL     1       4.834   3.978  -0.024  0.00  0.00    +0.256 C 
ATOM      2  O   UNL     1       5.884   3.364  -0.037  0.00  0.00    -0.270 OA
ATOM      3  N   UNL     1       4.842   5.326  -0.016  0.00  0.00    -0.275 N 
ATOM      4  H   UNL     1       4.005   5.816  -0.005  0.00  0.00    +0.156 HD
ENDROOT
BRANCH   1  12
ATOM      5  C   UNL     1      -1.250   3.137   0.031  0.00  0.00    +0.001 A 
ATOM      6  C   UNL     1      -1.216   1.749   0.017  0.00  0.00    +0.004 A 
ATOM      7  C   UNL     1      -0.013   1.076   0.008  0.00  0.00    +0.047 A 
ATOM      8  C   UNL     1       1.182   1.788   0.000  0.00  0.00    +0.139 A 
ATOM      9  C   UNL     1       1.145   3.193   0.008  0.00  0.00    +0.018 A 
ATOM     10  C   UNL     1      -0.091   3.857   0.024  0.00  0.00    +0.011 A 
ATOM     11  C   UNL     1       2.353   3.936   0.000  0.00  0.00    +0.031 A 
ATOM     12  C   UNL     1       3.555   3.249  -0.015  0.00  0.00    +0.122 A 
ATOM     13  C   UNL     1       3.531   1.782  -0.023  0.00  0.00    +0.350 A 
ATOM     14  O   UNL     1       4.576   1.158  -0.036  0.00  0.00    -0.244 OA
ATOM     15  O   UNL     1       2.359   1.126  -0.015  0.00  0.00    -0.422 OA
ENDBRANCH   1  12
BRANCH   3  16
ATOM     16  C   UNL     1       6.046   6.011  -0.024  0.00  0.00    +0.085 A 
ATOM     17  C   UNL     1       6.257   7.383  -0.024  0.00  0.00    +0.068 A 
ATOM     18  C   UNL     1       7.633   7.851  -0.028  0.00  0.00    -0.023 A 
ATOM     19  C   UNL     1       8.570   6.879  -0.044  0.00  0.00    -0.004 A 
ATOM     20  S   UNL     1       7.653   5.365  -0.044  0.00  0.00    -0.077 S 
ATOM     21  C   UNL     1      10.057   7.059  -0.059  0.00  0.00    +0.043 C 
ATOM     22  C   UNL     1      10.365   8.517  -0.431  0.00  0.00    +0.005 C 
ATOM     23  C   UNL     1       9.487   9.439   0.420  0.00  0.00    +0.005 C 
ATOM     24  C   UNL     1       8.028   9.323  -0.023  0.00  0.00    +0.037 C 
BRANCH  17  25
ATOM     25  C   UNL     1       5.134   8.325  -0.015  0.00  0.00    +0.244 C 
ATOM     26  O   UNL     1       4.675   8.716   1.042  0.00  0.00    -0.270 OA
ATOM     27  N   UNL     1       4.609   8.759  -1.179  0.00  0.00    -0.325 N 
ATOM     28  H   UNL     1       4.975   8.448  -2.021  0.00  0.00    +0.145 HD
ATOM     29  H   UNL     1       3.866   9.383  -1.173  0.00  0.00    +0.145 HD
ENDBRANCH  17  25
ENDBRANCH   3  16
TORSDOF 3
