REMARK  Name = ZINC13082600
REMARK  12 active torsions:
REMARK  status: ('A' for Active; 'I' for Inactive)
REMARK    1  A    between atoms: C_1  and  C_2
REMARK    2  A    between atoms: C_2  and  O_3
REMARK    3  A    between atoms: O_3  and  C_4
REMARK    4  A    between atoms: C_6  and  C_25
REMARK    5  A    between atoms: C_11  and  C_21
REMARK    6  A    between atoms: C_13  and  C_17
REMARK    7  A    between atoms: C_17  and  O_19
REMARK    8  A    between atoms: O_19  and  C_20
REMARK    9  A    between atoms: C_23  and  C_24
REMARK   10  A    between atoms: C_28  and  O_32
REMARK   11  A    between atoms: C_29  and  O_31
REMARK   12  A    between atoms: O_32  and  C_33
REMARK                            x       y       z     vdW  Elec       q    Type
REMARK                         _______ _______ _______ _____ _____    ______ ____
ROOT
ATOM      1  C   UNL     1       0.868  -1.819   1.263  0.00  0.00    +0.338 C 
ATOM      2  C   UNL     1       1.490  -2.340   2.378  0.00  0.00    +0.069 C 
ATOM      3  C   UNL     1       2.170  -1.413   3.341  0.00  0.00    +0.093 C 
ATOM      4  C   UNL     1       2.781  -2.176   4.489  0.00  0.00    +0.029 C 
ATOM      5  C   UNL     1       2.689  -3.545   4.564  0.00  0.00    +0.049 C 
ATOM      6  C   UNL     1       3.316  -4.295   5.717  0.00  0.00    +0.060 C 
ATOM      7  C   UNL     1       3.305  -3.414   6.967  0.00  0.00    +0.013 C 
ATOM      8  C   UNL     1       4.076  -2.126   6.662  0.00  0.00    +0.171 C 
ATOM      9  C   UNL     1       3.445  -1.445   5.479  0.00  0.00    +0.176 C 
ATOM     10  O   UNL     1       3.513  -0.235   5.381  0.00  0.00    -0.291 OA
ATOM     11  C   UNL     1       1.862  -3.076   7.346  0.00  0.00    +0.009 C 
ATOM     12  N   UNL     1       2.052  -4.254   3.634  0.00  0.00    -0.256 NA
ATOM     13  C   UNL     1       1.469  -3.708   2.590  0.00  0.00    +0.049 C 
ATOM     14  C   UNL     1       0.766  -4.595   1.594  0.00  0.00    +0.066 C 
ATOM     15  O   UNL     1       0.356  -2.644   0.329  0.00  0.00    -0.245 OA
ENDROOT
BRANCH   3  16
ATOM     16  C   UNL     1       3.254  -0.657   2.618  0.00  0.00    -0.032 A 
ATOM     17  C   UNL     1       4.289  -1.346   2.014  0.00  0.00    +0.008 A 
ATOM     18  C   UNL     1       5.287  -0.657   1.349  0.00  0.00    +0.050 A 
ATOM     19  C   UNL     1       5.250   0.727   1.287  0.00  0.00    +0.161 A 
ATOM     20  C   UNL     1       4.208   1.420   1.895  0.00  0.00    +0.159 A 
ATOM     21  C   UNL     1       3.209   0.723   2.555  0.00  0.00    +0.053 A 
BRANCH  20  22
ATOM     22  O   UNL     1       4.167   2.778   1.836  0.00  0.00    -0.503 OA
ATOM     23  H   UNL     1       3.688   3.125   1.071  0.00  0.00    +0.292 HD
ENDBRANCH  20  22
BRANCH  19  24
ATOM     24  O   UNL     1       6.231   1.406   0.633  0.00  0.00    -0.491 OA
ATOM     25  C   UNL     1       7.269   0.628   0.034  0.00  0.00    +0.277 C 
ENDBRANCH  19  24
ENDBRANCH   3  16
BRANCH   8  26
ATOM     26  C   UNL     1       4.024  -1.211   7.858  0.00  0.00    +0.318 C 
ATOM     27  O   UNL     1       3.432  -1.552   8.854  0.00  0.00    -0.250 OA
BRANCH  26  28
ATOM     28  O   UNL     1       4.636  -0.017   7.817  0.00  0.00    -0.467 OA
ATOM     29  C   UNL     1       4.546   0.799   8.987  0.00  0.00    +0.280 C 
ENDBRANCH  26  28
ENDBRANCH   8  26
BRANCH   1  30
ATOM     30  O   UNL     1       0.771  -0.484   1.108  0.00  0.00    -0.462 OA
BRANCH  30  32
ATOM     31  C   UNL     1       0.101   1.516  -0.072  0.00  0.00    +0.048 C 
ATOM     32  C   UNL     1       0.114  -0.014  -0.071  0.00  0.00    +0.229 C 
ENDBRANCH  30  32
ENDBRANCH   1  30
TORSDOF 7
