REMARK  Name = ZINC41092458
REMARK  3 active torsions:
REMARK  status: ('A' for Active; 'I' for Inactive)
REMARK    1  A    between atoms: C_3  and  N_12
REMARK    2  A    between atoms: C_5  and  N_7
REMARK    3  A    between atoms: N_12  and  C_13
REMARK                            x       y       z     vdW  Elec       q    Type
REMARK                         _______ _______ _______ _____ _____    ______ ____
ROOT
ATOM      1  C   UNL     1       2.811   1.442  -3.549  0.00  0.00    +0.004 A 
ATOM      2  C   UNL     1       3.058   2.130  -2.377  0.00  0.00    +0.023 A 
ATOM      3  C   UNL     1       3.330   1.435  -1.206  0.00  0.00    +0.029 A 
ATOM      4  C   UNL     1       3.353   0.047  -1.214  0.00  0.00    +0.050 A 
ATOM      5  C   UNL     1       3.104  -0.641  -2.392  0.00  0.00    +0.071 A 
ATOM      6  C   UNL     1       2.833   0.060  -3.560  0.00  0.00    +0.028 A 
ENDROOT
BRANCH   5   7
ATOM      7  N   UNL     1       3.127  -2.043  -2.404  0.00  0.00    -0.200 N 
ATOM      8  C   UNL     1       2.912  -2.858  -3.460  0.00  0.00    +0.250 A 
ATOM      9  N   UNL     1       3.028  -4.088  -3.032  0.00  0.00    -0.116 NA
ATOM     10  N   UNL     1       3.301  -4.106  -1.777  0.00  0.00    -0.023 NA
ATOM     11  N   UNL     1       3.383  -2.903  -1.321  0.00  0.00    -0.039 NA
ENDBRANCH   5   7
BRANCH   3  12
ATOM     12  N   UNL     1       3.582   2.131  -0.021  0.00  0.00    -0.341 N 
ATOM     13  H   UNL     1       3.772   1.645   0.796  0.00  0.00    +0.146 HD
BRANCH  12  14
ATOM     14  C   UNL     1       3.558   3.596  -0.014  0.00  0.00    +0.074 C 
ATOM     15  C   UNL     1       3.387   4.125   1.429  0.00  0.00    +0.026 C 
ATOM     16  C   UNL     1       4.675   4.963   1.696  0.00  0.00    -0.009 C 
ATOM     17  C   UNL     1       5.812   3.903   1.818  0.00  0.00    +0.004 C 
ATOM     18  C   UNL     1       5.992   3.357   0.383  0.00  0.00    +0.005 C 
ATOM     19  C   UNL     1       4.931   4.164  -0.485  0.00  0.00    +0.009 C 
ATOM     20  C   UNL     1       4.944   5.545   0.264  0.00  0.00    +0.009 C 
ENDBRANCH  12  14
ENDBRANCH   3  12
TORSDOF 3
