REMARK  Name = ZINC08133246
REMARK  7 active torsions:
REMARK  status: ('A' for Active; 'I' for Inactive)
REMARK    1  A    between atoms: C_1  and  C_2
REMARK    2  A    between atoms: C_5  and  C_8
REMARK    3  A    between atoms: C_11  and  C_14
REMARK    4  A    between atoms: C_19  and  C_21
REMARK    5  A    between atoms: C_21  and  N_22
REMARK    6  A    between atoms: C_25  and  C_29
REMARK    7  A    between atoms: C_25  and  C_30
REMARK                            x       y       z     vdW  Elec       q    Type
REMARK                         _______ _______ _______ _____ _____    ______ ____
ROOT
ATOM      1  C   UNL     1      -6.097  -2.990   3.844  0.00  0.00    +0.069 C 
ATOM      2  N   UNL     1      -5.017  -2.798   3.168  0.00  0.00    -0.181 NA
ATOM      3  N   UNL     1      -4.477  -1.521   3.308  0.00  0.00    -0.181 N 
ATOM      4  C   UNL     1      -5.336  -0.738   4.210  0.00  0.00    +0.173 C 
ATOM      5  C   UNL     1      -6.456  -1.726   4.592  0.00  0.00    +0.090 C 
ATOM      6  C   UNL     1      -3.355  -1.074   2.709  0.00  0.00    +0.253 C 
ATOM      7  O   UNL     1      -2.978   0.063   2.898  0.00  0.00    -0.272 OA
ENDROOT
BRANCH   1  12
ATOM      8  C   UNL     1      -9.100  -7.893   3.978  0.00  0.00    +0.044 C 
ATOM      9  C   UNL     1      -8.313  -6.608   3.943  0.00  0.00    -0.050 A 
ATOM     10  C   UNL     1      -7.162  -6.526   3.180  0.00  0.00    +0.004 A 
ATOM     11  C   UNL     1      -6.437  -5.354   3.143  0.00  0.00    +0.010 A 
ATOM     12  C   UNL     1      -6.867  -4.247   3.878  0.00  0.00    -0.002 A 
ATOM     13  C   UNL     1      -8.027  -4.338   4.651  0.00  0.00    +0.010 A 
ATOM     14  C   UNL     1      -8.746  -5.515   4.673  0.00  0.00    +0.004 A 
ENDBRANCH   1  12
BRANCH   4  15
ATOM     15  C   UNL     1      -5.906   0.459   3.494  0.00  0.00    +0.128 A 
ATOM     16  C   UNL     1      -6.077   1.685   4.022  0.00  0.00    +0.046 A 
ATOM     17  C   UNL     1      -6.636   2.494   3.007  0.00  0.00    +0.041 A 
ATOM     18  C   UNL     1      -6.774   1.715   1.919  0.00  0.00    +0.195 A 
ATOM     19  O   UNL     1      -6.325   0.485   2.218  0.00  0.00    -0.466 OA
ENDBRANCH   4  15
BRANCH   6  20
ATOM     20  C   UNL     1      -2.569  -1.988   1.805  0.00  0.00    +0.215 C 
BRANCH  20  21
ATOM     21  N   UNL     1      -1.403  -1.272   1.282  0.00  0.00    -0.215 N 
ATOM     22  C   UNL     1      -1.403  -0.557   0.139  0.00  0.00    +0.247 C 
ATOM     23  O   UNL     1      -2.333  -0.391  -0.620  0.00  0.00    -0.273 OA
ATOM     24  C   UNL     1       0.002  -0.004   0.002  0.00  0.00    +0.113 C 
ATOM     25  N   UNL     1       0.695  -0.520   1.195  0.00  0.00    -0.285 N 
ATOM     26  C   UNL     1      -0.206  -1.247   1.879  0.00  0.00    +0.310 C 
ATOM     27  O   UNL     1       0.040  -1.819   2.924  0.00  0.00    -0.252 OA
ATOM     28  C   UNL     1      -0.019   1.526   0.010  0.00  0.00    +0.042 C 
ATOM     29  H   UNL     1       1.621  -0.364   1.440  0.00  0.00    +0.151 HD
BRANCH  24  30
ATOM     30  C   UNL     1       0.667  -0.525  -1.274  0.00  0.00    +0.021 C 
ATOM     31  C   UNL     1       1.799  -1.542  -1.116  0.00  0.00    +0.006 C 
ATOM     32  C   UNL     1       2.114  -0.104  -1.538  0.00  0.00    +0.006 C 
ENDBRANCH  24  30
ENDBRANCH  20  21
ENDBRANCH   6  20
TORSDOF 5
