REMARK  Name = ZINC22681294
REMARK  11 active torsions:
REMARK  status: ('A' for Active; 'I' for Inactive)
REMARK    1  A    between atoms: C_1  and  C_2
REMARK    2  A    between atoms: N_5  and  C_8
REMARK    3  A    between atoms: C_8  and  C_10
REMARK    4  A    between atoms: C_8  and  C_29
REMARK    5  A    between atoms: C_10  and  N_11
REMARK    6  A    between atoms: C_12  and  C_14
REMARK    7  A    between atoms: C_17  and  O_27
REMARK    8  A    between atoms: C_18  and  S_20
REMARK    9  A    between atoms: S_20  and  N_23
REMARK   10  A    between atoms: N_23  and  C_24
REMARK   11  A    between atoms: O_27  and  C_28
REMARK                            x       y       z     vdW  Elec       q    Type
REMARK                         _______ _______ _______ _____ _____    ______ ____
ROOT
ATOM      1  N   UNL     1      -2.450   2.325  -4.550  0.00  0.00    -0.313 N 
ATOM      2  C   UNL     1      -3.333   2.833  -5.431  0.00  0.00    +0.244 C 
ATOM      3  O   UNL     1      -4.073   2.091  -6.047  0.00  0.00    -0.270 OA
ATOM      4  H   UNL     1      -1.781   2.997  -3.992  0.00  0.00    +0.149 HD
ENDROOT
BRANCH   2   5
ATOM      5  C   UNL     1      -3.404   4.292  -5.648  0.00  0.00    +0.039 A 
ATOM      6  C   UNL     1      -2.558   5.148  -4.937  0.00  0.00    +0.017 A 
ATOM      7  C   UNL     1      -2.623   6.507  -5.147  0.00  0.00    +0.048 A 
ATOM      8  C   UNL     1      -3.535   7.029  -6.056  0.00  0.00    +0.146 A 
ATOM      9  C   UNL     1      -4.381   6.182  -6.762  0.00  0.00    +0.147 A 
ATOM     10  C   UNL     1      -4.319   4.821  -6.562  0.00  0.00    +0.045 A 
BRANCH   9  11
ATOM     11  S   UNL     1      -5.535   6.850  -7.914  0.00  0.00    +0.062 S 
ATOM     12  O   UNL     1      -6.225   5.746  -8.484  0.00  0.00    -0.153 OA
ATOM     13  O   UNL     1      -6.210   7.907  -7.246  0.00  0.00    -0.153 OA
BRANCH  11  14
ATOM     14  N   UNL     1      -4.660   7.544  -9.136  0.00  0.00    -0.187 NA
ATOM     15  H   UNL     1      -4.596   8.641  -9.196  0.00  0.00    +0.148 HD
BRANCH  14  16
ATOM     16  C   UNL     1      -3.808   6.713  -9.990  0.00  0.00    +0.077 C 
ATOM     17  C   UNL     1      -2.512   7.335 -10.514  0.00  0.00    +0.022 C 
ATOM     18  C   UNL     1      -3.688   7.105 -11.464  0.00  0.00    +0.022 C 
ENDBRANCH  14  16
ENDBRANCH  11  14
ENDBRANCH   9  11
BRANCH   8  19
ATOM     19  O   UNL     1      -3.600   8.370  -6.256  0.00  0.00    -0.493 OA
ATOM     20  C   UNL     1      -2.702   9.183  -5.498  0.00  0.00    +0.277 C 
ENDBRANCH   8  19
ENDBRANCH   2   5
BRANCH   1  21
ATOM     21  C   UNL     1      -2.380   0.878  -4.334  0.00  0.00    +0.094 C 
BRANCH  21  22
ATOM     22  C   UNL     1      -1.225   0.559  -3.382  0.00  0.00    -0.013 C 
BRANCH  22  27
ATOM     23  C   UNL     1      -1.866   2.750   1.858  0.00  0.00    +0.007 C 
ATOM     24  C   UNL     1      -1.718   1.777   0.687  0.00  0.00    -0.018 C 
ATOM     25  C   UNL     1      -2.859   2.000  -0.311  0.00  0.00    -0.015 C 
ATOM     26  C   UNL     1      -2.672   1.066  -1.509  0.00  0.00    -0.078 C 
ATOM     27  N   UNL     1      -1.379   1.340  -2.147  0.00  0.00    +0.386 N 
ATOM     28  C   UNL     1      -0.266   1.087  -1.223  0.00  0.00    -0.078 C 
ATOM     29  C   UNL     1      -0.381   2.021  -0.017  0.00  0.00    -0.015 C 
ATOM     30  H   UNL     1      -1.356   2.407  -2.415  0.00  0.00    -0.081 HD
ENDBRANCH  22  27
BRANCH  22  31
ATOM     31  C   UNL     1      -1.238  -0.911  -3.051  0.00  0.00    -0.022 A 
ATOM     32  C   UNL     1      -0.315  -1.860  -3.343  0.00  0.00    +0.009 A 
ATOM     33  C   UNL     1      -0.539  -3.161  -2.934  0.00  0.00    +0.008 A 
ATOM     34  C   UNL     1      -1.675  -3.450  -2.254  0.00  0.00    +0.045 A 
ATOM     35  S   UNL     1      -2.470  -1.854  -2.167  0.00  0.00    -0.103 S 
ENDBRANCH  22  31
ENDBRANCH  21  22
ENDBRANCH   1  21
TORSDOF 9
