REMARK  Name = ZINC18023257
REMARK  6 active torsions:
REMARK  status: ('A' for Active; 'I' for Inactive)
REMARK    1  A    between atoms: C_1  and  C_2
REMARK    2  A    between atoms: N_10  and  N_14
REMARK    3  A    between atoms: C_15  and  C_17
REMARK    4  A    between atoms: C_17  and  S_18
REMARK    5  A    between atoms: S_18  and  C_19
REMARK    6  A    between atoms: C_19  and  C_20
REMARK                            x       y       z     vdW  Elec       q    Type
REMARK                         _______ _______ _______ _____ _____    ______ ____
ROOT
ATOM      1  N   UNL     1      -2.605   4.245 -11.189  0.00  0.00    -0.223 N 
ATOM      2  C   UNL     1      -2.605   3.984  -9.867  0.00  0.00    +0.240 C 
ATOM      3  O   UNL     1      -3.594   4.215  -9.204  0.00  0.00    -0.273 OA
ATOM      4  H   UNL     1      -1.814   4.060 -11.720  0.00  0.00    +0.174 HD
ENDROOT
BRANCH   1  14
ATOM      5  C   UNL     1      -8.797   7.795 -14.659  0.00  0.00    +0.007 C 
ATOM      6  C   UNL     1      -7.393   7.701 -14.060  0.00  0.00    -0.014 C 
ATOM      7  C   UNL     1      -7.491   7.267 -12.596  0.00  0.00    +0.006 C 
ATOM      8  C   UNL     1      -6.086   7.185 -11.993  0.00  0.00    +0.035 C 
ATOM      9  C   UNL     1      -5.250   6.184 -12.783  0.00  0.00    +0.114 C 
ATOM     10  C   UNL     1      -5.163   6.590 -14.250  0.00  0.00    +0.035 C 
ATOM     11  C   UNL     1      -6.572   6.674 -14.843  0.00  0.00    +0.006 C 
ATOM     12  C   UNL     1      -3.865   6.068 -12.186  0.00  0.00    +0.263 C 
ATOM     13  O   UNL     1      -3.037   6.947 -12.078  0.00  0.00    -0.271 OA
ATOM     14  N   UNL     1      -3.747   4.781 -11.798  0.00  0.00    -0.137 N 
ATOM     15  C   UNL     1      -4.854   4.080 -12.071  0.00  0.00    +0.326 C 
ATOM     16  O   UNL     1      -4.985   2.898 -11.819  0.00  0.00    -0.251 OA
ATOM     17  N   UNL     1      -5.807   4.832 -12.654  0.00  0.00    -0.284 N 
ATOM     18  H   UNL     1      -6.687   4.537 -12.937  0.00  0.00    +0.151 HD
ENDBRANCH   1  14
BRANCH   2  19
ATOM     19  C   UNL     1      -1.377   3.407  -9.213  0.00  0.00    +0.166 C 
BRANCH  19  20
ATOM     20  S   UNL     1      -1.689   3.172  -7.441  0.00  0.00    -0.144 S 
BRANCH  20  21
ATOM     21  C   UNL     1      -0.135   2.480  -6.809  0.00  0.00    +0.143 C 
BRANCH  21  22
ATOM     22  C   UNL     1      -0.261   2.234  -5.328  0.00  0.00    +0.121 A 
ATOM     23  N   UNL     1       0.793   1.715  -4.647  0.00  0.00    -0.310 N 
ATOM     24  H   UNL     1       1.613   1.509  -5.125  0.00  0.00    +0.170 HD
ATOM     25  C   UNL     1       0.724   1.479  -3.323  0.00  0.00    +0.260 A 
ATOM     26  O   UNL     1       1.678   1.012  -2.725  0.00  0.00    -0.267 OA
ATOM     27  C   UNL     1      -0.492   1.786  -2.631  0.00  0.00    +0.075 A 
ATOM     28  C   UNL     1      -0.791   1.612  -1.202  0.00  0.00    -0.023 A 
ATOM     29  C   UNL     1      -2.016   1.978  -0.788  0.00  0.00    -0.004 A 
ATOM     30  S   UNL     1      -2.837   2.567  -2.251  0.00  0.00    -0.073 S 
ATOM     31  C   UNL     1      -1.523   2.318  -3.416  0.00  0.00    +0.116 A 
ATOM     32  N   UNL     1      -1.381   2.524  -4.723  0.00  0.00    -0.226 NA
ATOM     33  C   UNL     1      -2.207   1.760   0.689  0.00  0.00    +0.043 C 
ATOM     34  C   UNL     1      -0.772   1.602   1.246  0.00  0.00    +0.010 C 
ATOM     35  C   UNL     1      -0.013   1.086   0.008  0.00  0.00    +0.037 C 
ENDBRANCH  21  22
ENDBRANCH  20  21
ENDBRANCH  19  20
ENDBRANCH   2  19
TORSDOF 5
