REMARK  Name = ZINC65426675
REMARK  8 active torsions:
REMARK  status: ('A' for Active; 'I' for Inactive)
REMARK    1  A    between atoms: C_1  and  C_2
REMARK    2  A    between atoms: C_2  and  C_3
REMARK    3  A    between atoms: C_6  and  C_15
REMARK    4  A    between atoms: C_13  and  O_14
REMARK    5  A    between atoms: C_15  and  N_16
REMARK    6  A    between atoms: C_18  and  C_24
REMARK    7  A    between atoms: C_20  and  C_22
REMARK    8  A    between atoms: C_20  and  C_23
REMARK                            x       y       z     vdW  Elec       q    Type
REMARK                         _______ _______ _______ _____ _____    ______ ____
ROOT
ATOM      1  C   UNL     1      -1.412  -0.526   0.013  0.00  0.00    -0.005 A 
ATOM      2  C   UNL     1      -1.986  -0.952  -1.150  0.00  0.00    +0.019 A 
ATOM      3  C   UNL     1      -3.299  -1.437  -1.140  0.00  0.00    +0.022 A 
ATOM      4  C   UNL     1      -3.940  -1.901  -2.372  0.00  0.00    -0.016 A 
ATOM      5  C   UNL     1      -5.216  -2.361  -2.297  0.00  0.00    +0.097 A 
ATOM      6  C   UNL     1      -5.883  -2.379  -1.055  0.00  0.00    +0.338 A 
ATOM      7  O   UNL     1      -7.027  -2.793  -1.002  0.00  0.00    -0.245 OA
ATOM      8  O   UNL     1      -5.290  -1.952   0.071  0.00  0.00    -0.422 OA
ATOM      9  C   UNL     1      -4.024  -1.483   0.066  0.00  0.00    +0.143 A 
ATOM     10  C   UNL     1      -3.425  -1.046   1.237  0.00  0.00    +0.092 A 
ATOM     11  C   UNL     1      -2.122  -0.575   1.210  0.00  0.00    +0.124 A 
ENDROOT
BRANCH   1  13
ATOM     12  C   UNL     1      -0.019   1.526   0.010  0.00  0.00    +0.009 C 
ATOM     13  C   UNL     1       0.002  -0.004   0.002  0.00  0.00    +0.035 C 
ENDBRANCH   1  13
BRANCH  11  14
ATOM     14  O   UNL     1      -1.536  -0.152   2.359  0.00  0.00    -0.506 OA
ATOM     15  H   UNL     1      -1.668   0.788   2.546  0.00  0.00    +0.292 HD
ENDBRANCH  11  14
BRANCH   4  16
ATOM     16  C   UNL     1      -3.204  -1.871  -3.687  0.00  0.00    +0.120 C 
BRANCH  16  17
ATOM     17  N   UNL     1      -3.342  -0.540  -4.293  0.00  0.00    -0.293 NA
ATOM     18  C   UNL     1      -2.651   0.479  -3.490  0.00  0.00    +0.116 C 
ATOM     19  C   UNL     1      -2.869   1.855  -4.124  0.00  0.00    +0.130 C 
ATOM     20  O   UNL     1      -2.408   1.829  -5.478  0.00  0.00    -0.368 OA
ATOM     21  C   UNL     1      -3.060   0.849  -6.289  0.00  0.00    +0.077 C 
ATOM     22  C   UNL     1      -2.844  -0.538  -5.677  0.00  0.00    +0.119 C 
ATOM     23  C   UNL     1      -4.559   1.152  -6.352  0.00  0.00    +0.042 C 
ATOM     24  C   UNL     1      -2.472   0.881  -7.701  0.00  0.00    +0.042 C 
ATOM     25  C   UNL     1      -2.087   2.910  -3.338  0.00  0.00    +0.039 C 
ENDBRANCH  16  17
ENDBRANCH   4  16
TORSDOF 4
