REMARK  Name = ZINC39686134
REMARK  8 active torsions:
REMARK  status: ('A' for Active; 'I' for Inactive)
REMARK    1  A    between atoms: C_1  and  C_2
REMARK    2  A    between atoms: C_6  and  C_8
REMARK    3  A    between atoms: C_8  and  C_9
REMARK    4  A    between atoms: C_13  and  C_22
REMARK    5  A    between atoms: N_24  and  C_25
REMARK    6  A    between atoms: C_31  and  C_33
REMARK    7  A    between atoms: C_33  and  C_34
REMARK    8  A    between atoms: C_33  and  C_35
REMARK                            x       y       z     vdW  Elec       q    Type
REMARK                         _______ _______ _______ _____ _____    ______ ____
ROOT
ATOM      1  C   UNL     1       4.435  -2.688   4.216  0.00  0.00    +0.220 C 
ATOM      2  O   UNL     1       5.540  -2.444   3.780  0.00  0.00    -0.275 OA
ATOM      3  N   UNL     1       4.295  -3.496   5.285  0.00  0.00    -0.300 N 
ATOM      4  C   UNL     1       3.039  -3.912   5.952  0.00  0.00    +0.121 C 
ATOM      5  C   UNL     1       3.260  -5.399   6.310  0.00  0.00    +0.100 C 
ATOM      6  C   UNL     1       4.788  -5.562   6.381  0.00  0.00    -0.004 C 
ATOM      7  C   UNL     1       5.364  -4.176   6.056  0.00  0.00    +0.115 C 
ATOM      8  C   UNL     1       5.260  -6.579   5.346  0.00  0.00    -0.010 C 
ATOM      9  C   UNL     1       6.774  -6.766   5.475  0.00  0.00    -0.082 C 
ATOM     10  N   UNL     1       7.098  -7.230   6.830  0.00  0.00    +0.379 N 
ATOM     11  C   UNL     1       6.725  -6.205   7.813  0.00  0.00    -0.082 C 
ATOM     12  C   UNL     1       5.209  -5.994   7.782  0.00  0.00    -0.010 C 
ATOM     13  H   UNL     1       6.590  -8.080   7.023  0.00  0.00    -0.086 HD
ATOM     14  H   UNL     1       8.089  -7.410   6.894  0.00  0.00    -0.086 HD
ENDROOT
BRANCH   5  15
ATOM     15  C   UNL     1       2.634  -5.716   7.643  0.00  0.00    +0.218 C 
ATOM     16  O   UNL     1       2.472  -4.837   8.462  0.00  0.00    -0.275 OA
ATOM     17  N   UNL     1       2.253  -6.978   7.925  0.00  0.00    -0.312 N 
ATOM     18  H   UNL     1       2.382  -7.682   7.270  0.00  0.00    +0.149 HD
BRANCH  17  19
ATOM     19  C   UNL     1       1.643  -7.287   9.222  0.00  0.00    +0.076 C 
ATOM     20  C   UNL     1       2.744  -7.542  10.254  0.00  0.00    +0.041 C 
ATOM     21  C   UNL     1       2.103  -7.831  11.616  0.00  0.00    +0.109 C 
ATOM     22  N   UNL     1       1.149  -8.937  11.464  0.00  0.00    -0.301 N 
ATOM     23  C   UNL     1       0.104  -8.834  10.437  0.00  0.00    +0.109 C 
ATOM     24  C   UNL     1       0.767  -8.534   9.088  0.00  0.00    +0.041 C 
ATOM     25  C   UNL     1       1.230 -10.027  12.253  0.00  0.00    +0.218 C 
ATOM     26  O   UNL     1       2.034 -10.060  13.161  0.00  0.00    -0.275 OA
BRANCH  25  27
ATOM     27  C   UNL     1       0.323 -11.205  12.007  0.00  0.00    +0.069 C 
ATOM     28  C   UNL     1       0.757 -12.377  12.890  0.00  0.00    +0.017 C 
ATOM     29  C   UNL     1      -1.118 -10.818  12.346  0.00  0.00    +0.017 C 
ENDBRANCH  25  27
ENDBRANCH  17  19
ENDBRANCH   5  15
BRANCH   1  30
ATOM     30  C   UNL     1       3.217  -2.086   3.563  0.00  0.00    +0.131 C 
BRANCH  30  36
ATOM     31  C   UNL     1       4.605   2.362   1.736  0.00  0.00    +0.044 C 
ATOM     32  C   UNL     1       4.307   0.900   1.526  0.00  0.00    -0.050 A 
ATOM     33  C   UNL     1       4.425   0.345   0.265  0.00  0.00    +0.003 A 
ATOM     34  C   UNL     1       4.152  -0.996   0.071  0.00  0.00    +0.001 A 
ATOM     35  C   UNL     1       3.761  -1.782   1.139  0.00  0.00    +0.004 A 
ATOM     36  C   UNL     1       3.644  -1.228   2.400  0.00  0.00    -0.038 A 
ATOM     37  C   UNL     1       3.921   0.112   2.594  0.00  0.00    +0.007 A 
ENDBRANCH  30  36
ENDBRANCH   1  30
TORSDOF 5
