REMARK  Name = ZINC05485110
REMARK  7 active torsions:
REMARK  status: ('A' for Active; 'I' for Inactive)
REMARK    1  A    between atoms: C_1  and  C_2
REMARK    2  A    between atoms: C_3  and  C_12
REMARK    3  A    between atoms: C_12  and  O_31
REMARK    4  A    between atoms: N_19  and  C_22
REMARK    5  A    between atoms: C_22  and  C_23
REMARK    6  A    between atoms: C_23  and  O_24
REMARK    7  A    between atoms: O_24  and  C_25
REMARK                            x       y       z     vdW  Elec       q    Type
REMARK                         _______ _______ _______ _____ _____    ______ ____
ROOT
ATOM      1  C   UNL     1      -5.227  -0.961   3.692  0.00  0.00    +0.197 C 
ATOM      2  C   UNL     1      -4.423  -2.170   3.273  0.00  0.00    +0.019 A 
ATOM      3  C   UNL     1      -3.957  -3.268   3.959  0.00  0.00    +0.009 A 
ATOM      4  C   UNL     1      -3.229  -4.240   3.295  0.00  0.00    +0.000 A 
ATOM      5  C   UNL     1      -2.973  -4.103   1.942  0.00  0.00    +0.002 A 
ATOM      6  C   UNL     1      -3.438  -3.003   1.252  0.00  0.00    +0.024 A 
ATOM      7  C   UNL     1      -4.177  -2.023   1.913  0.00  0.00    +0.043 A 
ATOM      8  N   UNL     1      -4.742  -0.836   1.446  0.00  0.00    -0.265 N 
ATOM      9  C   UNL     1      -5.376  -0.158   2.417  0.00  0.00    +0.261 C 
ATOM     10  O   UNL     1      -5.958   0.899   2.295  0.00  0.00    -0.271 OA
ENDROOT
BRANCH   1  13
ATOM     11  C   UNL     1      -6.504   0.739   5.953  0.00  0.00    +0.064 C 
ATOM     12  C   UNL     1      -5.025   0.572   5.714  0.00  0.00    +0.021 A 
ATOM     13  C   UNL     1      -4.482  -0.166   4.733  0.00  0.00    +0.025 A 
ATOM     14  C   UNL     1      -3.028  -0.046   4.862  0.00  0.00    +0.007 A 
ATOM     15  C   UNL     1      -1.944  -0.565   4.150  0.00  0.00    +0.010 A 
ATOM     16  C   UNL     1      -0.670  -0.256   4.534  0.00  0.00    +0.001 A 
ATOM     17  C   UNL     1      -0.444   0.570   5.627  0.00  0.00    +0.002 A 
ATOM     18  C   UNL     1      -1.498   1.093   6.343  0.00  0.00    +0.026 A 
ATOM     19  C   UNL     1      -2.804   0.791   5.970  0.00  0.00    +0.047 A 
ATOM     20  N   UNL     1      -4.038   1.146   6.467  0.00  0.00    -0.358 N 
ATOM     21  H   UNL     1      -4.185   1.721   7.234  0.00  0.00    +0.166 HD
ENDBRANCH   1  13
BRANCH   1  22
ATOM     22  O   UNL     1      -6.508  -1.358   4.185  0.00  0.00    -0.371 OA
ATOM     23  H   UNL     1      -7.018  -1.899   3.566  0.00  0.00    +0.212 HD
ENDBRANCH   1  22
BRANCH   8  24
ATOM     24  C   UNL     1      -4.658  -0.384   0.055  0.00  0.00    +0.154 C 
BRANCH  24  25
ATOM     25  C   UNL     1      -3.409   0.480  -0.127  0.00  0.00    +0.248 C 
BRANCH  25  26
ATOM     26  O   UNL     1      -2.243  -0.319   0.082  0.00  0.00    -0.490 OA
BRANCH  26  27
ATOM     27  C   UNL     1      -1.040   0.300  -0.043  0.00  0.00    +0.121 A 
ATOM     28  C   UNL     1       0.134  -0.415   0.146  0.00  0.00    +0.045 A 
ATOM     29  C   UNL     1       1.355   0.216   0.013  0.00  0.00    +0.004 A 
ATOM     30  C   UNL     1       1.409   1.561  -0.303  0.00  0.00    +0.000 A 
ATOM     31  C   UNL     1       0.241   2.278  -0.486  0.00  0.00    +0.004 A 
ATOM     32  C   UNL     1      -0.983   1.651  -0.354  0.00  0.00    +0.045 A 
ENDBRANCH  26  27
ENDBRANCH  25  26
ENDBRANCH  24  25
ENDBRANCH   8  24
TORSDOF 6
