REMARK  Name = ZINC54556863
REMARK  5 active torsions:
REMARK  status: ('A' for Active; 'I' for Inactive)
REMARK    1  A    between atoms: C_1  and  C_2
REMARK    2  A    between atoms: C_2  and  C_3
REMARK    3  A    between atoms: C_2  and  C_4
REMARK    4  A    between atoms: C_7  and  N_10
REMARK    5  A    between atoms: C_11  and  N_16
REMARK                            x       y       z     vdW  Elec       q    Type
REMARK                         _______ _______ _______ _____ _____    ______ ____
ROOT
ATOM      1  C   UNL     1      -1.433  -0.534   0.013  0.00  0.00    -0.008 C 
ATOM      2  C   UNL     1      -1.413  -2.063   0.004  0.00  0.00    +0.006 C 
ATOM      3  C   UNL     1      -2.848  -2.593   0.015  0.00  0.00    +0.027 C 
ATOM      4  C   UNL     1      -3.588  -2.086  -1.224  0.00  0.00    +0.109 C 
ATOM      5  C   UNL     1      -3.609  -0.556  -1.216  0.00  0.00    +0.027 C 
ATOM      6  C   UNL     1      -2.173  -0.027  -1.227  0.00  0.00    +0.006 C 
ENDROOT
BRANCH   4   7
ATOM      7  N   UNL     1      -2.902  -2.559  -2.429  0.00  0.00    -0.247 N 
ATOM      8  C   UNL     1      -3.440  -3.340  -3.401  0.00  0.00    +0.128 A 
ATOM      9  C   UNL     1      -2.474  -3.549  -4.339  0.00  0.00    +0.072 A 
ATOM     10  C   UNL     1      -1.322  -2.876  -3.924  0.00  0.00    +0.150 A 
ATOM     11  N   UNL     1      -1.577  -2.280  -2.788  0.00  0.00    -0.177 NA
ATOM     12  I   UNL     1      -2.680  -4.678  -6.092  0.00  0.00    -0.039 I 
BRANCH   8  13
ATOM     13  N   UNL     1      -4.740  -3.837  -3.433  0.00  0.00    -0.343 N 
ATOM     14  H   UNL     1      -5.356  -3.631  -2.713  0.00  0.00    +0.144 HD
ATOM     15  H   UNL     1      -5.030  -4.390  -4.176  0.00  0.00    +0.144 HD
ENDBRANCH   8  13
ENDBRANCH   4   7
BRANCH   1  17
ATOM     16  C   UNL     1      -0.019   1.526   0.010  0.00  0.00    +0.007 C 
ATOM     17  C   UNL     1       0.002  -0.004   0.002  0.00  0.00    -0.014 C 
ATOM     18  C   UNL     1       0.742  -0.511   1.242  0.00  0.00    +0.007 C 
ENDBRANCH   1  17
TORSDOF 3
