REMARK  Name = ZINC63846853
REMARK  4 active torsions:
REMARK  status: ('A' for Active; 'I' for Inactive)
REMARK    1  A    between atoms: C_4  and  N_7
REMARK    2  A    between atoms: C_11  and  C_13
REMARK    3  A    between atoms: C_13  and  C_14
REMARK    4  A    between atoms: C_20  and  C_22
REMARK                            x       y       z     vdW  Elec       q    Type
REMARK                         _______ _______ _______ _____ _____    ______ ____
ROOT
ATOM      1  C   UNL     1       3.648  -4.373   1.097  0.00  0.00    -0.005 C 
ATOM      2  C   UNL     1       2.868  -4.973  -0.074  0.00  0.00    +0.022 C 
ATOM      3  C   UNL     1       3.012  -6.498  -0.050  0.00  0.00    +0.108 C 
ATOM      4  N   UNL     1       2.595  -6.992   1.270  0.00  0.00    -0.297 N 
ATOM      5  C   UNL     1       3.219  -6.415   2.469  0.00  0.00    +0.108 C 
ATOM      6  C   UNL     1       3.072  -4.891   2.416  0.00  0.00    +0.022 C 
ATOM      7  C   UNL     1       1.658  -7.955   1.378  0.00  0.00    +0.248 C 
ATOM      8  O   UNL     1       1.390  -8.421   2.468  0.00  0.00    -0.270 OA
ENDROOT
BRANCH   7   9
ATOM      9  C   UNL     1       0.958  -8.444   0.172  0.00  0.00    +0.049 C 
ATOM     10  C   UNL     1       1.557  -9.356  -0.636  0.00  0.00    -0.003 C 
ATOM     11  C   UNL     1       0.786  -9.818  -1.857  0.00  0.00    +0.126 C 
ATOM     12  C   UNL     1      -0.588  -9.221  -2.073  0.00  0.00    +0.240 C 
ATOM     13  O   UNL     1      -1.257  -9.549  -3.031  0.00  0.00    -0.273 OA
ATOM     14  N   UNL     1      -1.055  -8.329  -1.193  0.00  0.00    -0.188 NA
ATOM     15  C   UNL     1      -0.380  -7.948  -0.144  0.00  0.00    +0.113 C 
ENDBRANCH   7   9
BRANCH   1  16
ATOM     16  C   UNL     1       3.535  -2.847   1.056  0.00  0.00    +0.043 C 
BRANCH  16  21
ATOM     17  N   UNL     1       4.121  -0.850  -0.257  0.00  0.00    -0.299 N 
ATOM     18  C   UNL     1       5.505  -0.334  -0.244  0.00  0.00    +0.206 C 
ATOM     19  N   UNL     1       6.321  -1.462  -0.762  0.00  0.00    -0.238 NA
ATOM     20  N   UNL     1       5.667  -2.641  -0.172  0.00  0.00    -0.235 NA
ATOM     21  C   UNL     1       4.223  -2.319  -0.205  0.00  0.00    +0.157 C 
ATOM     22  H   UNL     1       7.279  -1.388  -0.453  0.00  0.00    +0.142 HD
ATOM     23  H   UNL     1       5.979  -2.791   0.776  0.00  0.00    +0.143 HD
BRANCH  17  27
ATOM     24  C   UNL     1       0.622   1.403  -0.395  0.00  0.00    +0.000 A 
ATOM     25  C   UNL     1       1.851   2.037  -0.395  0.00  0.00    +0.002 A 
ATOM     26  C   UNL     1       3.013   1.293  -0.349  0.00  0.00    +0.023 A 
ATOM     27  C   UNL     1       2.947  -0.094  -0.303  0.00  0.00    +0.032 A 
ATOM     28  C   UNL     1       1.711  -0.727  -0.303  0.00  0.00    +0.023 A 
ATOM     29  C   UNL     1       0.552   0.023  -0.349  0.00  0.00    +0.002 A 
ENDBRANCH  17  27
ENDBRANCH  16  21
ENDBRANCH   1  16
TORSDOF 4
