REMARK  Name = ZINC57243887
REMARK  6 active torsions:
REMARK  status: ('A' for Active; 'I' for Inactive)
REMARK    1  A    between atoms: C_1  and  C_2
REMARK    2  A    between atoms: C_2  and  C_3
REMARK    3  A    between atoms: C_3  and  C_5
REMARK    4  A    between atoms: C_3  and  N_10
REMARK    5  A    between atoms: N_16  and  C_19
REMARK    6  A    between atoms: C_19  and  C_20
REMARK                            x       y       z     vdW  Elec       q    Type
REMARK                         _______ _______ _______ _____ _____    ______ ____
ROOT
ATOM      1  N   UNL     1       1.595   1.963   2.104  0.00  0.00    -0.292 N 
ATOM      2  C   UNL     1       2.518   1.116   1.608  0.00  0.00    +0.303 C 
ATOM      3  O   UNL     1       2.202  -0.017   1.303  0.00  0.00    -0.253 OA
ATOM      4  N   UNL     1       3.793   1.526   1.450  0.00  0.00    -0.283 N 
ATOM      5  C   UNL     1       4.788   0.660   0.800  0.00  0.00    +0.124 C 
ATOM      6  C   UNL     1       6.021   0.570   1.706  0.00  0.00    +0.104 C 
ATOM      7  N   UNL     1       6.490   1.925   2.026  0.00  0.00    -0.294 NA
ATOM      8  C   UNL     1       5.479   2.674   2.785  0.00  0.00    +0.104 C 
ATOM      9  C   UNL     1       4.223   2.852   1.917  0.00  0.00    +0.124 C 
ATOM     10  H   UNL     1       1.859   2.846   2.406  0.00  0.00    +0.151 HD
ENDROOT
BRANCH   1  11
ATOM     11  C   UNL     1       0.192   1.550   2.188  0.00  0.00    +0.111 C 
BRANCH  11  12
ATOM     12  C   UNL     1      -0.693   2.770   2.171  0.00  0.00    +0.010 A 
ATOM     13  C   UNL     1      -1.879   2.955   1.542  0.00  0.00    +0.013 A 
ATOM     14  C   UNL     1      -2.522   4.172   1.668  0.00  0.00    +0.008 A 
ATOM     15  C   UNL     1      -1.947   5.145   2.416  0.00  0.00    +0.045 A 
ATOM     16  S   UNL     1      -0.454   4.344   2.978  0.00  0.00    -0.100 S 
ENDBRANCH  11  12
BRANCH  11  18
ATOM     17  C   UNL     1       0.769  -0.527   3.451  0.00  0.00    +0.006 C 
ATOM     18  C   UNL     1      -0.034   0.775   3.488  0.00  0.00    +0.024 C 
ENDBRANCH  11  18
ENDBRANCH   1  11
BRANCH   7  19
ATOM     19  C   UNL     1       7.767   1.883   2.750  0.00  0.00    +0.139 C 
BRANCH  19  20
ATOM     20  C   UNL     1       8.337   3.275   2.845  0.00  0.00    +0.048 A 
ATOM     21  C   UNL     1       9.236   3.818   1.995  0.00  0.00    +0.115 A 
ATOM     22  N   UNL     1       9.488   5.090   2.432  0.00  0.00    -0.308 N 
ATOM     23  C   UNL     1      10.301   6.082   1.965  0.00  0.00    +0.092 A 
ATOM     24  C   UNL     1      10.365   7.272   2.599  0.00  0.00    +0.018 A 
ATOM     25  C   UNL     1       9.594   7.505   3.750  0.00  0.00    +0.005 A 
ATOM     26  C   UNL     1       8.780   6.525   4.225  0.00  0.00    +0.045 A 
ATOM     27  C   UNL     1       8.724   5.288   3.553  0.00  0.00    +0.115 A 
ATOM     28  N   UNL     1       8.033   4.179   3.779  0.00  0.00    -0.342 N 
ATOM     29  H   UNL     1       7.409   4.045   4.509  0.00  0.00    +0.167 HD
ENDBRANCH  19  20
ENDBRANCH   7  19
TORSDOF 5
