REMARK  Name = ZINC10519035
REMARK  7 active torsions:
REMARK  status: ('A' for Active; 'I' for Inactive)
REMARK    1  A    between atoms: C_1  and  C_2
REMARK    2  A    between atoms: C_7  and  S_24
REMARK    3  A    between atoms: N_11  and  S_12
REMARK    4  A    between atoms: S_12  and  C_15
REMARK    5  A    between atoms: C_18  and  C_21
REMARK    6  A    between atoms: C_21  and  C_23
REMARK    7  A    between atoms: S_24  and  N_27
REMARK                            x       y       z     vdW  Elec       q    Type
REMARK                         _______ _______ _______ _____ _____    ______ ____
ROOT
ATOM      1  C   UNL     1       3.284  -3.099  -1.304  0.00  0.00    +0.030 C 
ATOM      2  C   UNL     1       2.897  -2.328  -0.040  0.00  0.00    +0.099 C 
ATOM      3  C   UNL     1       3.558  -0.940  -0.038  0.00  0.00    +0.061 C 
ATOM      4  C   UNL     1       2.400   0.032  -0.021  0.00  0.00    -0.021 A 
ATOM      5  C   UNL     1       2.376   1.413  -0.014  0.00  0.00    +0.034 A 
ATOM      6  C   UNL     1       1.169   2.087   0.002  0.00  0.00    +0.105 A 
ATOM      7  C   UNL     1      -0.017   1.374   0.010  0.00  0.00    +0.030 A 
ATOM      8  C   UNL     1       0.002  -0.004   0.002  0.00  0.00    +0.027 A 
ATOM      9  C   UNL     1       1.218  -0.692  -0.014  0.00  0.00    +0.055 A 
ATOM     10  N   UNL     1       1.456  -2.067  -0.024  0.00  0.00    -0.200 N 
ENDROOT
BRANCH  10  11
ATOM     11  S   UNL     1       0.280  -3.234  -0.019  0.00  0.00    +0.075 S 
ATOM     12  O   UNL     1       0.874  -4.407   0.520  0.00  0.00    -0.150 OA
ATOM     13  O   UNL     1      -0.880  -2.639   0.546  0.00  0.00    -0.150 OA
BRANCH  11  14
ATOM     14  C   UNL     1      -0.106  -3.591  -1.701  0.00  0.00    +0.109 A 
ATOM     15  C   UNL     1      -1.106  -2.883  -2.343  0.00  0.00    +0.029 A 
ATOM     16  C   UNL     1      -1.410  -3.154  -3.661  0.00  0.00    +0.013 A 
ATOM     17  C   UNL     1      -0.713  -4.155  -4.344  0.00  0.00    +0.017 A 
ATOM     18  C   UNL     1       0.293  -4.870  -3.686  0.00  0.00    +0.013 A 
ATOM     19  C   UNL     1       0.589  -4.583  -2.370  0.00  0.00    +0.029 A 
BRANCH  17  20
ATOM     20  C   UNL     1      -1.036  -4.455  -5.748  0.00  0.00    +0.160 C 
ATOM     21  O   UNL     1      -0.430  -5.324  -6.337  0.00  0.00    -0.292 OA
ATOM     22  C   UNL     1      -2.121  -3.682  -6.453  0.00  0.00    +0.091 C 
ENDBRANCH  17  20
ENDBRANCH  11  14
ENDBRANCH  10  11
BRANCH   6  23
ATOM     23  S   UNL     1       1.140   3.848   0.011  0.00  0.00    +0.056 S 
ATOM     24  O   UNL     1       2.374   4.277  -0.549  0.00  0.00    -0.153 OA
ATOM     25  O   UNL     1      -0.117   4.237  -0.525  0.00  0.00    -0.153 OA
BRANCH  23  26
ATOM     26  N   UNL     1       1.147   4.330   1.596  0.00  0.00    -0.204 NA
ATOM     27  H   UNL     1       1.556   5.173   1.845  0.00  0.00    +0.144 HD
ATOM     28  H   UNL     1       0.743   3.768   2.275  0.00  0.00    +0.144 HD
ENDBRANCH  23  26
ENDBRANCH   6  23
TORSDOF 5
