REMARK  Name = ZINC39979109
REMARK  5 active torsions:
REMARK  status: ('A' for Active; 'I' for Inactive)
REMARK    1  A    between atoms: C_1  and  C_2
REMARK    2  A    between atoms: C_5  and  N_8
REMARK    3  A    between atoms: C_12  and  C_16
REMARK    4  A    between atoms: C_17  and  C_32
REMARK    5  A    between atoms: N_20  and  C_23
REMARK                            x       y       z     vdW  Elec       q    Type
REMARK                         _______ _______ _______ _____ _____    ______ ____
ROOT
ATOM      1  C   UNL     1       1.443  -7.033   1.152  0.00  0.00    +0.051 A 
ATOM      2  C   UNL     1       1.554  -8.132   1.925  0.00  0.00    +0.039 A 
ATOM      3  N   UNL     1       2.881  -8.422   2.076  0.00  0.00    -0.295 N 
ATOM      4  H   UNL     1       3.247  -9.162   2.585  0.00  0.00    +0.187 HD
ATOM      5  N   UNL     1       3.621  -7.465   1.368  0.00  0.00    -0.210 N 
ATOM      6  C   UNL     1       2.746  -6.614   0.794  0.00  0.00    +0.274 A 
ATOM      7  O   UNL     1       3.027  -5.656   0.097  0.00  0.00    -0.266 OA
ATOM      8  C   UNL     1       0.409  -8.908   2.523  0.00  0.00    +0.065 C 
ENDROOT
BRANCH   5   9
ATOM      9  C   UNL     1       5.081  -7.404   1.265  0.00  0.00    +0.302 C 
ATOM     10  N   UNL     1       5.600  -8.664   0.718  0.00  0.00    -0.345 N 
ATOM     11  C   UNL     1       6.391  -9.182   1.613  0.00  0.00    +0.062 A 
ATOM     12  C   UNL     1       7.191 -10.414   1.647  0.00  0.00    +0.027 A 
ATOM     13  C   UNL     1       7.933 -10.696   2.737  0.00  0.00    +0.002 A 
ATOM     14  C   UNL     1       7.977  -9.854   3.862  0.00  0.00    +0.002 A 
ATOM     15  C   UNL     1       7.281  -8.702   3.936  0.00  0.00    +0.027 A 
ATOM     16  C   UNL     1       6.438  -8.291   2.805  0.00  0.00    +0.062 A 
ATOM     17  N   UNL     1       5.674  -7.256   2.600  0.00  0.00    -0.345 N 
ATOM     18  H   UNL     1       5.392  -9.041  -0.151  0.00  0.00    +0.163 HD
ATOM     19  H   UNL     1       5.525  -6.522   3.216  0.00  0.00    +0.163 HD
ENDBRANCH   5   9
BRANCH   1  24
ATOM     20  N   UNL     1       0.059  -4.172  -0.021  0.00  0.00    -0.210 N 
ATOM     21  C   UNL     1      -0.030  -4.892  -1.146  0.00  0.00    +0.227 C 
ATOM     22  O   UNL     1      -0.134  -4.436  -2.265  0.00  0.00    -0.275 OA
ATOM     23  C   UNL     1       0.020  -6.364  -0.801  0.00  0.00    +0.114 C 
ATOM     24  C   UNL     1       0.155  -6.371   0.735  0.00  0.00    +0.122 C 
ATOM     25  C   UNL     1       0.172  -4.902   1.096  0.00  0.00    +0.234 C 
ATOM     26  O   UNL     1       0.271  -4.455   2.219  0.00  0.00    -0.274 OA
BRANCH  20  31
ATOM     27  C   UNL     1      -0.017   1.503   0.009  0.00  0.00    +0.044 C 
ATOM     28  C   UNL     1       0.003  -0.004   0.001  0.00  0.00    -0.050 A 
ATOM     29  C   UNL     1       1.070  -0.677  -0.565  0.00  0.00    +0.005 A 
ATOM     30  C   UNL     1       1.091  -2.058  -0.574  0.00  0.00    +0.024 A 
ATOM     31  C   UNL     1       0.040  -2.771  -0.013  0.00  0.00    +0.044 A 
ATOM     32  C   UNL     1      -1.030  -2.092   0.555  0.00  0.00    +0.024 A 
ATOM     33  C   UNL     1      -1.043  -0.711   0.565  0.00  0.00    +0.005 A 
ENDBRANCH  20  31
ENDBRANCH   1  24
TORSDOF 3
