REMARK  Name = ZINC08635490
REMARK  13 active torsions:
REMARK  status: ('A' for Active; 'I' for Inactive)
REMARK    1  A    between atoms: C_1  and  N_2
REMARK    2  A    between atoms: C_3  and  C_17
REMARK    3  A    between atoms: C_5  and  C_7
REMARK    4  A    between atoms: C_10  and  O_15
REMARK    5  A    between atoms: C_11  and  O_13
REMARK    6  A    between atoms: O_13  and  C_14
REMARK    7  A    between atoms: O_15  and  C_16
REMARK    8  A    between atoms: C_25  and  C_27
REMARK    9  A    between atoms: C_27  and  N_28
REMARK   10  A    between atoms: C_29  and  C_31
REMARK   11  A    between atoms: C_31  and  C_32
REMARK   12  A    between atoms: C_32  and  C_37
REMARK   13  A    between atoms: C_37  and  C_38
REMARK                            x       y       z     vdW  Elec       q    Type
REMARK                         _______ _______ _______ _____ _____    ______ ____
ROOT
ATOM      1  C   UNL     1       1.014   4.699   7.742  0.00  0.00    +0.024 C 
ATOM      2  C   UNL     1       1.109   4.820   6.219  0.00  0.00    -0.068 C 
ATOM      3  C   UNL     1       1.667   7.170   6.385  0.00  0.00    -0.078 C 
ATOM      4  C   UNL     1       1.588   7.117   7.913  0.00  0.00    -0.015 C 
ATOM      5  C   UNL     1       0.567   6.047   8.319  0.00  0.00    -0.007 C 
ATOM      6  C   UNL     1      -0.793   6.413   7.710  0.00  0.00    -0.010 C 
ATOM      7  C   UNL     1      -0.648   6.486   6.188  0.00  0.00    -0.051 C 
ATOM      8  N   UNL     1       0.743   6.185   5.786  0.00  0.00    +0.383 N 
ATOM      9  H   UNL     1       0.813   6.240   4.763  0.00  0.00    -0.081 HD
ENDROOT
BRANCH   1  12
ATOM     10  C   UNL     1      -0.114   4.104  10.564  0.00  0.00    +0.172 C 
ATOM     11  N   UNL     1      -0.476   3.387   9.338  0.00  0.00    -0.271 N 
ATOM     12  C   UNL     1       0.008   3.636   8.103  0.00  0.00    +0.041 A 
ATOM     13  C   UNL     1      -0.573   2.769   7.245  0.00  0.00    +0.053 A 
ATOM     14  C   UNL     1      -1.443   1.947   7.986  0.00  0.00    +0.093 A 
ATOM     15  N   UNL     1      -1.384   2.325   9.246  0.00  0.00    -0.171 NA
BRANCH  14  16
ATOM     16  C   UNL     1      -2.284   0.851   7.443  0.00  0.00    +0.006 A 
ATOM     17  C   UNL     1      -2.254   0.559   6.081  0.00  0.00    +0.014 A 
ATOM     18  C   UNL     1      -3.031  -0.464   5.577  0.00  0.00    +0.050 A 
ATOM     19  C   UNL     1      -3.852  -1.196   6.421  0.00  0.00    +0.162 A 
ATOM     20  C   UNL     1      -3.890  -0.904   7.782  0.00  0.00    +0.162 A 
ATOM     21  C   UNL     1      -3.108   0.117   8.293  0.00  0.00    +0.059 A 
BRANCH  20  22
ATOM     22  O   UNL     1      -4.696  -1.623   8.610  0.00  0.00    -0.491 OA
ATOM     23  C   UNL     1      -4.684  -1.270   9.994  0.00  0.00    +0.277 C 
ENDBRANCH  20  22
BRANCH  19  24
ATOM     24  O   UNL     1      -4.621  -2.199   5.920  0.00  0.00    -0.491 OA
ATOM     25  C   UNL     1      -4.533  -2.443   4.515  0.00  0.00    +0.277 C 
ENDBRANCH  19  24
ENDBRANCH  14  16
ENDBRANCH   1  12
BRANCH   7  26
ATOM     26  C   UNL     1      -1.586   5.468   5.536  0.00  0.00    +0.089 C 
BRANCH  26  27
ATOM     27  N   UNL     1      -1.376   5.468   4.086  0.00  0.00    -0.317 N 
ATOM     28  C   UNL     1      -2.097   4.644   3.301  0.00  0.00    +0.214 C 
ATOM     29  O   UNL     1      -2.920   3.902   3.794  0.00  0.00    -0.276 OA
ATOM     30  H   UNL     1      -0.718   6.061   3.692  0.00  0.00    +0.149 HD
BRANCH  28  31
ATOM     31  C   UNL     1      -1.881   4.644   1.809  0.00  0.00    +0.103 C 
BRANCH  31  32
ATOM     32  C   UNL     1      -2.711   3.527   1.174  0.00  0.00    -0.011 C 
ATOM     33  C   UNL     1      -2.549   3.556  -0.360  0.00  0.00    +0.008 C 
ATOM     34  C   UNL     1      -3.765   4.375  -0.859  0.00  0.00    +0.001 C 
ATOM     35  C   UNL     1      -4.900   3.912   0.087  0.00  0.00    +0.001 C 
ATOM     36  C   UNL     1      -4.210   3.754   1.458  0.00  0.00    +0.008 C 
BRANCH  32  37
ATOM     37  C   UNL     1      -2.271   2.168   1.722  0.00  0.00    +0.132 C 
BRANCH  37  38
ATOM     38  C   UNL     1      -0.868   1.871   1.260  0.00  0.00    +0.357 C 
ATOM     39  O   UNL     1      -0.247   2.701   0.638  0.00  0.00    -0.246 OA
ATOM     40  O   UNL     1      -0.307   0.684   1.539  0.00  0.00    -0.246 OA
ENDBRANCH  37  38
ENDBRANCH  32  37
ENDBRANCH  31  32
ENDBRANCH  28  31
ENDBRANCH  26  27
ENDBRANCH   7  26
TORSDOF 10
