REMARK  Name = ZINC39665444
REMARK  7 active torsions:
REMARK  status: ('A' for Active; 'I' for Inactive)
REMARK    1  A    between atoms: C_1  and  C_2
REMARK    2  A    between atoms: C_2  and  C_4
REMARK    3  A    between atoms: C_2  and  O_31
REMARK    4  A    between atoms: C_4  and  N_5
REMARK    5  A    between atoms: C_6  and  C_8
REMARK    6  A    between atoms: C_19  and  C_21
REMARK    7  A    between atoms: O_31  and  C_32
REMARK                            x       y       z     vdW  Elec       q    Type
REMARK                         _______ _______ _______ _____ _____    ______ ____
ROOT
ATOM      1  C   UNL     1       1.535  -4.325  -2.753  0.00  0.00    +0.100 C 
ATOM      2  C   UNL     1       0.161  -4.942  -3.097  0.00  0.00    +0.121 C 
ATOM      3  N   UNL     1       0.127  -4.977  -4.578  0.00  0.00    -0.295 N 
ATOM      4  C   UNL     1       1.503  -5.364  -4.970  0.00  0.00    +0.115 C 
ATOM      5  C   UNL     1       2.414  -4.607  -3.983  0.00  0.00    -0.004 C 
ATOM      6  C   UNL     1       2.889  -3.297  -4.604  0.00  0.00    -0.010 C 
ATOM      7  C   UNL     1       3.808  -3.604  -5.790  0.00  0.00    -0.082 C 
ATOM      8  N   UNL     1       4.955  -4.396  -5.331  0.00  0.00    +0.379 N 
ATOM      9  C   UNL     1       4.496  -5.693  -4.820  0.00  0.00    -0.082 C 
ATOM     10  C   UNL     1       3.607  -5.475  -3.593  0.00  0.00    -0.010 C 
ATOM     11  C   UNL     1      -0.919  -4.716  -5.387  0.00  0.00    +0.265 C 
ATOM     12  O   UNL     1      -1.964  -4.311  -4.917  0.00  0.00    -0.268 OA
ATOM     13  H   UNL     1       5.589  -4.545  -6.102  0.00  0.00    -0.086 HD
ATOM     14  H   UNL     1       5.434  -3.897  -4.597  0.00  0.00    -0.086 HD
ENDROOT
BRANCH  11  15
ATOM     15  C   UNL     1      -0.795  -4.923  -6.850  0.00  0.00    +0.126 A 
ATOM     16  C   UNL     1      -1.851  -4.535  -7.689  0.00  0.00    +0.033 A 
ATOM     17  C   UNL     1      -1.749  -4.720  -9.037  0.00  0.00    +0.012 A 
ATOM     18  C   UNL     1      -0.571  -5.300  -9.543  0.00  0.00    +0.000 A 
ATOM     19  C   UNL     1      -0.398  -5.518 -10.919  0.00  0.00    +0.010 A 
ATOM     20  C   UNL     1       0.755  -6.082 -11.373  0.00  0.00    +0.001 A 
ATOM     21  C   UNL     1       1.770  -6.446 -10.489  0.00  0.00    +0.002 A 
ATOM     22  C   UNL     1       1.639  -6.250  -9.149  0.00  0.00    +0.028 A 
ATOM     23  C   UNL     1       0.460  -5.670  -8.641  0.00  0.00    +0.072 A 
ATOM     24  N   UNL     1       0.307  -5.461  -7.333  0.00  0.00    -0.242 NA
ENDBRANCH  11  15
BRANCH   1  26
ATOM     25  N   UNL     1       2.345  -2.177  -1.833  0.00  0.00    -0.312 N 
ATOM     26  C   UNL     1       1.403  -2.840  -2.531  0.00  0.00    +0.218 C 
ATOM     27  O   UNL     1       0.448  -2.243  -2.982  0.00  0.00    -0.275 OA
ATOM     28  H   UNL     1       3.069  -2.664  -1.410  0.00  0.00    +0.149 HD
BRANCH  25  29
ATOM     29  C   UNL     1       2.274  -0.718  -1.710  0.00  0.00    +0.148 C 
BRANCH  29  31
ATOM     30  C   UNL     1       3.507   1.323  -0.964  0.00  0.00    +0.053 C 
ATOM     31  C   UNL     1       3.518  -0.207  -0.981  0.00  0.00    +0.187 C 
BRANCH  31  32
ATOM     32  O   UNL     1       3.519  -0.699   0.361  0.00  0.00    -0.488 OA
BRANCH  32  33
ATOM     33  C   UNL     1       4.725  -0.803   0.979  0.00  0.00    +0.121 A 
ATOM     34  C   UNL     1       5.870  -0.335   0.351  0.00  0.00    +0.045 A 
ATOM     35  C   UNL     1       7.095  -0.442   0.982  0.00  0.00    +0.004 A 
ATOM     36  C   UNL     1       7.179  -1.014   2.238  0.00  0.00    +0.000 A 
ATOM     37  C   UNL     1       6.040  -1.482   2.865  0.00  0.00    +0.004 A 
ATOM     38  C   UNL     1       4.812  -1.372   2.241  0.00  0.00    +0.045 A 
ENDBRANCH  32  33
ENDBRANCH  31  32
ENDBRANCH  29  31
ENDBRANCH  25  29
ENDBRANCH   1  26
TORSDOF 6
