REMARK  Name = ZINC13407141
REMARK  13 active torsions:
REMARK  status: ('A' for Active; 'I' for Inactive)
REMARK    1  A    between atoms: C_1  and  C_2
REMARK    2  A    between atoms: C_7  and  O_39
REMARK    3  A    between atoms: C_12  and  C_37
REMARK    4  A    between atoms: C_12  and  C_38
REMARK    5  A    between atoms: C_15  and  O_33
REMARK    6  A    between atoms: C_17  and  C_32
REMARK    7  A    between atoms: C_20  and  O_28
REMARK    8  A    between atoms: C_23  and  O_27
REMARK    9  A    between atoms: C_24  and  O_26
REMARK   10  A    between atoms: O_28  and  C_29
REMARK   11  A    between atoms: C_29  and  C_31
REMARK   12  A    between atoms: O_33  and  C_34
REMARK   13  A    between atoms: C_34  and  C_36
REMARK                            x       y       z     vdW  Elec       q    Type
REMARK                         _______ _______ _______ _____ _____    ______ ____
ROOT
ATOM      1  C   UNL     1       3.466  -0.023   2.485  0.00  0.00    +0.018 C 
ATOM      2  C   UNL     1       2.800   1.031   3.356  0.00  0.00    +0.087 C 
ATOM      3  C   UNL     1       2.092   2.091   2.529  0.00  0.00    +0.150 C 
ATOM      4  O   UNL     1       2.580   2.700   1.607  0.00  0.00    -0.296 OA
ATOM      5  C   UNL     1       0.712   2.268   3.125  0.00  0.00    +0.090 C 
ATOM      6  C   UNL     1       0.320   3.729   3.165  0.00  0.00    +0.131 C 
ATOM      7  C   UNL     1       0.081   4.212   1.727  0.00  0.00    +0.037 C 
ATOM      8  C   UNL     1      -1.118   3.473   1.140  0.00  0.00    +0.007 C 
ATOM      9  C   UNL     1      -1.517   4.067  -0.204  0.00  0.00    -0.031 C 
ATOM     10  C   UNL     1      -0.750   3.462  -1.375  0.00  0.00    +0.010 C 
ATOM     11  C   UNL     1      -0.856   1.940  -1.361  0.00  0.00    +0.046 C 
ATOM     12  C   UNL     1      -0.203   1.432  -0.072  0.00  0.00    +0.183 C 
ATOM     13  C   UNL     1      -0.936   1.965   1.151  0.00  0.00    +0.016 C 
ATOM     14  C   UNL     1      -0.327   1.405   2.431  0.00  0.00    +0.058 C 
ATOM     15  C   UNL     1       0.282   0.015   2.210  0.00  0.00    +0.184 C 
ATOM     16  C   UNL     1       0.837  -0.545   3.519  0.00  0.00    +0.083 C 
ATOM     17  C   UNL     1       1.713   0.444   4.281  0.00  0.00    +0.105 C 
ATOM     18  C   UNL     1       0.856   1.714   4.570  0.00  0.00    +0.163 C 
ATOM     19  C   UNL     1      -2.367   1.345   1.120  0.00  0.00    +0.015 C 
ATOM     20  C   UNL     1      -1.246   5.586  -0.229  0.00  0.00    +0.011 C 
ATOM     21  C   UNL     1      -3.027   3.914  -0.451  0.00  0.00    +0.011 C 
ENDROOT
BRANCH  18  22
ATOM     22  O   UNL     1      -0.398   1.380   5.153  0.00  0.00    -0.388 OA
ATOM     23  H   UNL     1      -0.334   1.033   6.054  0.00  0.00    +0.210 HD
ENDBRANCH  18  22
BRANCH  17  24
ATOM     24  O   UNL     1       2.264  -0.115   5.481  0.00  0.00    -0.385 OA
ATOM     25  H   UNL     1       2.814  -0.897   5.335  0.00  0.00    +0.210 HD
ENDBRANCH  17  24
BRANCH   6  26
ATOM     26  O   UNL     1      -0.871   3.896   3.930  0.00  0.00    -0.391 OA
ATOM     27  H   UNL     1      -1.178   4.811   3.985  0.00  0.00    +0.210 HD
ENDBRANCH   6  26
BRANCH  15  28
ATOM     28  O   UNL     1      -0.741  -0.911   1.744  0.00  0.00    -0.461 OA
BRANCH  28  29
ATOM     29  C   UNL     1      -0.339  -1.912   0.945  0.00  0.00    +0.304 C 
ATOM     30  O   UNL     1       0.827  -2.013   0.644  0.00  0.00    -0.251 OA
ATOM     31  C   UNL     1      -1.341  -2.909   0.423  0.00  0.00    +0.136 C 
ENDBRANCH  28  29
ENDBRANCH  15  28
BRANCH  12  32
ATOM     32  O   UNL     1       1.188   1.837  -0.076  0.00  0.00    -0.461 OA
BRANCH  32  33
ATOM     33  C   UNL     1       2.060   1.017  -0.685  0.00  0.00    +0.304 C 
ATOM     34  O   UNL     1       1.671  -0.005  -1.198  0.00  0.00    -0.251 OA
ATOM     35  C   UNL     1       3.524   1.373  -0.729  0.00  0.00    +0.136 C 
ENDBRANCH  32  33
ENDBRANCH  12  32
TORSDOF 7
