REMARK  Name = ZINC67292413
REMARK  4 active torsions:
REMARK  status: ('A' for Active; 'I' for Inactive)
REMARK    1  A    between atoms: C_5  and  N_7
REMARK    2  A    between atoms: C_9  and  C_19
REMARK    3  A    between atoms: N_21  and  C_22
REMARK    4  A    between atoms: C_22  and  C_23
REMARK                            x       y       z     vdW  Elec       q    Type
REMARK                         _______ _______ _______ _____ _____    ______ ____
ROOT
ATOM      1  N   UNL     1       1.280  -2.058   0.040  0.00  0.00    -0.324 N 
ATOM      2  C   UNL     1       0.152  -2.728   0.130  0.00  0.00    +0.212 A 
ATOM      3  C   UNL     1       0.146  -4.202   0.209  0.00  0.00    +0.097 A 
ATOM      4  C   UNL     1      -0.932  -4.797   0.851  0.00  0.00    +0.030 A 
ATOM      5  C   UNL     1      -1.966  -3.912   1.391  0.00  0.00    +0.019 A 
ATOM      6  C   UNL     1      -2.936  -4.399   2.274  0.00  0.00    +0.026 A 
ATOM      7  C   UNL     1      -3.895  -3.544   2.771  0.00  0.00    +0.019 A 
ATOM      8  C   UNL     1      -3.902  -2.206   2.401  0.00  0.00    +0.019 A 
ATOM      9  C   UNL     1      -2.952  -1.712   1.530  0.00  0.00    +0.048 A 
ATOM     10  C   UNL     1      -1.978  -2.555   1.016  0.00  0.00    +0.137 A 
ATOM     11  O   UNL     1      -1.043  -2.084   0.160  0.00  0.00    -0.439 OA
ATOM     12 BR   UNL     1      -5.210  -4.197   3.963  0.00  0.00    -0.050 Br
ATOM     13  H   UNL     1       2.125  -2.534   0.011  0.00  0.00    +0.169 HD
ENDROOT
BRANCH   1  18
ATOM     14  C   UNL     1       0.428   1.342  -0.984  0.00  0.00    +0.002 A 
ATOM     15  C   UNL     1       1.226   2.076  -0.125  0.00  0.00    +0.002 A 
ATOM     16  C   UNL     1       2.042   1.435   0.790  0.00  0.00    +0.022 A 
ATOM     17  C   UNL     1       2.066   0.056   0.851  0.00  0.00    +0.064 A 
ATOM     18  C   UNL     1       1.262  -0.692  -0.014  0.00  0.00    +0.060 A 
ATOM     19  C   UNL     1       0.441  -0.037  -0.935  0.00  0.00    +0.027 A 
ATOM     20 CL   UNL     1       3.091  -0.747   1.999  0.00  0.00    -0.081 Cl
ENDBRANCH   1  18
BRANCH   3  21
ATOM     21  C   UNL     1       1.237  -5.007  -0.368  0.00  0.00    +0.249 C 
ATOM     22  O   UNL     1       2.199  -4.457  -0.868  0.00  0.00    -0.270 OA
ATOM     23  N   UNL     1       1.169  -6.353  -0.341  0.00  0.00    -0.309 N 
ATOM     24  H   UNL     1       0.432  -6.792   0.112  0.00  0.00    +0.149 HD
BRANCH  23  25
ATOM     25  C   UNL     1       2.207  -7.152  -0.996  0.00  0.00    +0.136 C 
BRANCH  25  26
ATOM     26  C   UNL     1       1.893  -8.639  -0.818  0.00  0.00    +0.135 C 
ATOM     27  C   UNL     1       2.999  -9.504  -1.474  0.00  0.00    +0.035 C 
ATOM     28  C   UNL     1       2.863 -10.821  -0.663  0.00  0.00    +0.031 C 
ATOM     29  C   UNL     1       2.467 -10.304   0.737  0.00  0.00    +0.160 C 
ATOM     30  O   UNL     1       1.916  -8.991   0.575  0.00  0.00    -0.375 OA
ENDBRANCH  25  26
ENDBRANCH  23  25
ENDBRANCH   3  21
TORSDOF 4
