REMARK  Name = ZINC19756448
REMARK  7 active torsions:
REMARK  status: ('A' for Active; 'I' for Inactive)
REMARK    1  A    between atoms: C_1  and  C_2
REMARK    2  A    between atoms: C_4  and  C_25
REMARK    3  A    between atoms: C_6  and  N_8
REMARK    4  A    between atoms: C_9  and  C_11
REMARK    5  A    between atoms: C_11  and  N_12
REMARK    6  A    between atoms: C_14  and  C_24
REMARK    7  A    between atoms: C_20  and  N_23
REMARK                            x       y       z     vdW  Elec       q    Type
REMARK                         _______ _______ _______ _____ _____    ______ ____
ROOT
ATOM      1  N   UNL     1      -2.581   0.813  -0.262  0.00  0.00    -0.315 N 
ATOM      2  C   UNL     1      -1.578   1.872  -0.095  0.00  0.00    +0.150 C 
ATOM      3  C   UNL     1      -1.823   2.950  -1.158  0.00  0.00    +0.188 C 
ATOM      4  O   UNL     1      -1.623   2.353  -2.444  0.00  0.00    -0.486 OA
ATOM      5  C   UNL     1      -2.194   1.132  -2.647  0.00  0.00    +0.142 A 
ATOM      6  C   UNL     1      -2.664   0.368  -1.585  0.00  0.00    +0.074 A 
ATOM      7  C   UNL     1      -3.228  -0.878  -1.833  0.00  0.00    +0.049 A 
ATOM      8  C   UNL     1      -3.333  -1.351  -3.132  0.00  0.00    +0.027 A 
ATOM      9  C   UNL     1      -2.868  -0.580  -4.190  0.00  0.00    +0.026 A 
ATOM     10  C   UNL     1      -2.301   0.656  -3.945  0.00  0.00    +0.049 A 
ATOM     11  C   UNL     1      -0.837   4.103  -0.964  0.00  0.00    +0.053 C 
ENDROOT
BRANCH   8  12
ATOM     12  N   UNL     1      -3.906  -2.603  -3.378  0.00  0.00    -0.358 N 
ATOM     13  H   UNL     1      -3.989  -2.978  -4.409  0.00  0.00    +0.142 HD
ATOM     14  H   UNL     1      -4.274  -3.213  -2.540  0.00  0.00    +0.142 HD
ENDBRANCH   8  12
BRANCH   1  15
ATOM     15  C   UNL     1      -2.325  -0.304   0.657  0.00  0.00    +0.201 C 
BRANCH  15  17
ATOM     16  N   UNL     1      -0.697  -2.155   0.867  0.00  0.00    -0.284 N 
ATOM     17  C   UNL     1      -1.073  -1.028   0.231  0.00  0.00    +0.235 C 
ATOM     18  O   UNL     1      -0.405  -0.596  -0.684  0.00  0.00    -0.274 OA
ATOM     19  H   UNL     1      -1.346  -2.593   1.640  0.00  0.00    +0.155 HD
BRANCH  16  25
ATOM     20  C   UNL     1       1.966  -6.254   0.340  0.00  0.00    +0.044 C 
ATOM     21  C   UNL     1       1.837  -4.754   0.280  0.00  0.00    -0.048 A 
ATOM     22  C   UNL     1       2.921  -3.982  -0.095  0.00  0.00    +0.006 A 
ATOM     23  C   UNL     1       2.807  -2.605  -0.151  0.00  0.00    -0.048 A 
ATOM     24  C   UNL     1       1.609  -1.996   0.167  0.00  0.00    +0.026 A 
ATOM     25  C   UNL     1       0.518  -2.769   0.544  0.00  0.00    +0.034 A 
ATOM     26  C   UNL     1       0.638  -4.151   0.605  0.00  0.00    +0.026 A 
ATOM     27  C   UNL     1       3.991  -1.767  -0.560  0.00  0.00    +0.044 C 
ENDBRANCH  16  25
ENDBRANCH  15  17
ENDBRANCH   1  15
TORSDOF 4
