REMARK  Name = ZINC09050555
REMARK  8 active torsions:
REMARK  status: ('A' for Active; 'I' for Inactive)
REMARK    1  A    between atoms: C_1  and  C_2
REMARK    2  A    between atoms: C_2  and  N_51
REMARK    3  A    between atoms: C_3  and  C_4
REMARK    4  A    between atoms: C_3  and  N_51
REMARK    5  A    between atoms: C_5  and  C_6
REMARK    6  A    between atoms: C_5  and  N_51
REMARK    7  A    between atoms: C_7  and  O_28
REMARK    8  A    between atoms: C_14  and  C_15
REMARK                            x       y       z     vdW  Elec       q    Type
REMARK                         _______ _______ _______ _____ _____    ______ ____
ROOT
ATOM      1  C   UNL     1       1.447   5.081   1.207  0.00  0.00    +0.020 A 
ATOM      2  C   UNL     1       2.794   5.204   0.907  0.00  0.00    +0.122 A 
ATOM      3  C   UNL     1       3.551   4.084   0.575  0.00  0.00    +0.046 A 
ATOM      4  C   UNL     1       2.970   2.848   0.541  0.00  0.00    +0.019 A 
ATOM      5  C   UNL     1       1.615   2.709   0.842  0.00  0.00    +0.068 A 
ATOM      6  C   UNL     1       0.841   3.831   1.178  0.00  0.00    +0.144 A 
ATOM      7  O   UNL     1      -0.433   3.451   1.420  0.00  0.00    -0.451 OA
ATOM      8  C   UNL     1      -0.593   2.114   1.280  0.00  0.00    +0.176 C 
ATOM      9  C   UNL     1      -1.748   1.422   1.458  0.00  0.00    +0.061 C 
ATOM     10  C   UNL     1       0.708   1.548   0.896  0.00  0.00    +0.231 C 
ATOM     11  O   UNL     1       0.977   0.380   0.672  0.00  0.00    -0.283 OA
ENDROOT
BRANCH   9  12
ATOM     12  C   UNL     1      -2.954   2.114   1.927  0.00  0.00    +0.022 A 
ATOM     13  C   UNL     1      -3.039   3.510   1.851  0.00  0.00    +0.031 A 
ATOM     14  C   UNL     1      -4.177   4.151   2.289  0.00  0.00    +0.042 A 
ATOM     15  C   UNL     1      -5.232   3.422   2.816  0.00  0.00    +0.029 A 
ATOM     16  C   UNL     1      -5.159   2.044   2.903  0.00  0.00    +0.022 A 
ATOM     17  C   UNL     1      -4.028   1.381   2.461  0.00  0.00    +0.136 A 
ATOM     18  O   UNL     1      -3.946   0.028   2.533  0.00  0.00    -0.465 OA
ATOM     19  C   UNL     1      -4.879  -0.631   3.394  0.00  0.00    +0.395 C 
ATOM     20  O   UNL     1      -6.187  -0.109   3.135  0.00  0.00    -0.339 OA
ATOM     21  C   UNL     1      -6.318   1.272   3.483  0.00  0.00    +0.202 C 
ATOM     22 CL   UNL     1      -4.288   5.881   2.187  0.00  0.00    -0.084 Cl
ENDBRANCH   9  12
BRANCH   2  23
ATOM     23  O   UNL     1       3.381   6.428   0.937  0.00  0.00    -0.506 OA
ATOM     24  H   UNL     1       3.732   6.675   1.803  0.00  0.00    +0.292 HD
ENDBRANCH   2  23
BRANCH   1  25
ATOM     25  C   UNL     1       0.640   6.302   1.565  0.00  0.00    -0.036 C 
BRANCH  25  26
ATOM     26  N   UNL     1       0.470   6.345   3.033  0.00  0.00    +0.382 N 
ATOM     27  H   UNL     1       0.216   5.407   3.366  0.00  0.00    -0.081 HD
BRANCH  26  29
ATOM     28  C   UNL     1       2.123   8.171   3.239  0.00  0.00    -0.017 C 
ATOM     29  C   UNL     1       1.734   6.758   3.676  0.00  0.00    -0.082 C 
ENDBRANCH  26  29
BRANCH  26  30
ATOM     30  C   UNL     1      -0.610   7.289   3.388  0.00  0.00    -0.082 C 
ATOM     31  C   UNL     1      -0.915   7.151   4.881  0.00  0.00    -0.017 C 
ENDBRANCH  26  30
ENDBRANCH  25  26
ENDBRANCH   1  25
TORSDOF 6
