REMARK  Name = ZINC03235499
REMARK  4 active torsions:
REMARK  status: ('A' for Active; 'I' for Inactive)
REMARK    1  A    between atoms: C_4  and  N_7
REMARK    2  A    between atoms: N_7  and  N_8
REMARK    3  A    between atoms: N_27  and  N_30
REMARK    4  A    between atoms: N_30  and  C_31
REMARK                            x       y       z     vdW  Elec       q    Type
REMARK                         _______ _______ _______ _____ _____    ______ ____
ROOT
ATOM      1  N   UNL     1       3.637  -2.046  -0.150  0.00  0.00    -0.157 N 
ATOM      2  C   UNL     1       3.314  -2.859   0.864  0.00  0.00    +0.243 C 
ATOM      3  O   UNL     1       2.977  -2.500   1.972  0.00  0.00    -0.273 OA
ATOM      4  C   UNL     1       3.435  -4.296   0.406  0.00  0.00    +0.097 C 
ATOM      5  C   UNL     1       3.891  -4.171  -1.062  0.00  0.00    +0.097 C 
ATOM      6  C   UNL     1       3.973  -2.676  -1.282  0.00  0.00    +0.243 C 
ATOM      7  O   UNL     1       4.294  -2.136  -2.318  0.00  0.00    -0.273 OA
ATOM      8  C   UNL     1       2.821  -4.774  -1.980  0.00  0.00    +0.037 C 
ATOM      9  C   UNL     1       2.571  -6.206  -1.533  0.00  0.00    -0.026 C 
ATOM     10  C   UNL     1       2.176  -6.312  -0.266  0.00  0.00    -0.026 C 
ATOM     11  C   UNL     1       2.057  -4.965   0.473  0.00  0.00    +0.037 C 
ATOM     12  C   UNL     1       1.053  -4.087  -0.284  0.00  0.00    +0.097 C 
ATOM     13  C   UNL     1       1.517  -3.989  -1.786  0.00  0.00    +0.097 C 
ATOM     14  C   UNL     1       0.408  -4.667  -2.560  0.00  0.00    +0.243 C 
ATOM     15  O   UNL     1       0.369  -4.797  -3.764  0.00  0.00    -0.273 OA
ATOM     16  N   UNL     1      -0.524  -5.102  -1.702  0.00  0.00    -0.157 N 
ATOM     17  C   UNL     1      -0.276  -4.806  -0.365  0.00  0.00    +0.243 C 
ATOM     18  O   UNL     1      -0.971  -5.106   0.581  0.00  0.00    -0.273 OA
ENDROOT
BRANCH   1  19
ATOM     19  N   UNL     1       3.620  -0.649  -0.036  0.00  0.00    -0.255 N 
ATOM     20  H   UNL     1       2.775  -0.172  -0.044  0.00  0.00    +0.171 HD
BRANCH  19  24
ATOM     21  C   UNL     1       7.194   1.454   0.336  0.00  0.00    +0.000 A 
ATOM     22  C   UNL     1       5.999   2.140   0.214  0.00  0.00    +0.002 A 
ATOM     23  C   UNL     1       4.812   1.446   0.090  0.00  0.00    +0.024 A 
ATOM     24  C   UNL     1       4.819   0.056   0.088  0.00  0.00    +0.045 A 
ATOM     25  C   UNL     1       6.020  -0.629   0.211  0.00  0.00    +0.024 A 
ATOM     26  C   UNL     1       7.204   0.071   0.335  0.00  0.00    +0.002 A 
ENDBRANCH  19  24
ENDBRANCH   1  19
BRANCH  16  27
ATOM     27  N   UNL     1      -1.682  -5.773  -2.117  0.00  0.00    -0.255 N 
ATOM     28  H   UNL     1      -2.407  -5.279  -2.531  0.00  0.00    +0.171 HD
BRANCH  27  29
ATOM     29  C   UNL     1      -1.792  -7.153  -1.935  0.00  0.00    +0.045 A 
ATOM     30  C   UNL     1      -0.757  -7.861  -1.337  0.00  0.00    +0.024 A 
ATOM     31  C   UNL     1      -0.870  -9.226  -1.157  0.00  0.00    +0.002 A 
ATOM     32  C   UNL     1      -2.010  -9.888  -1.573  0.00  0.00    +0.000 A 
ATOM     33  C   UNL     1      -3.042  -9.186  -2.168  0.00  0.00    +0.002 A 
ATOM     34  C   UNL     1      -2.939  -7.821  -2.345  0.00  0.00    +0.024 A 
ENDBRANCH  27  29
ENDBRANCH  16  27
TORSDOF 4
