REMARK  Name = ZINC15062319
REMARK  7 active torsions:
REMARK  status: ('A' for Active; 'I' for Inactive)
REMARK    1  A    between atoms: C_1  and  C_2
REMARK    2  A    between atoms: C_2  and  C_4
REMARK    3  A    between atoms: C_2  and  N_55
REMARK    4  A    between atoms: C_4  and  N_5
REMARK    5  A    between atoms: C_10  and  C_11
REMARK    6  A    between atoms: C_10  and  N_55
REMARK    7  A    between atoms: C_12  and  C_21
REMARK                            x       y       z     vdW  Elec       q    Type
REMARK                         _______ _______ _______ _____ _____    ______ ____
ROOT
ATOM      1  C   UNL     1      -3.495  -1.472  -2.068  0.00  0.00    +0.039 A 
ATOM      2  C   UNL     1      -2.753  -2.619  -2.059  0.00  0.00    +0.146 A 
ATOM      3  N   UNL     1      -3.590  -3.659  -1.885  0.00  0.00    -0.223 NA
ATOM      4  C   UNL     1      -4.828  -3.203  -1.786  0.00  0.00    +0.139 A 
ATOM      5  N   UNL     1      -4.796  -1.835  -1.892  0.00  0.00    -0.303 N 
ATOM      6  C   UNL     1      -5.951  -1.108  -1.815  0.00  0.00    +0.113 A 
ATOM      7  C   UNL     1      -7.139  -1.723  -1.632  0.00  0.00    +0.058 A 
ATOM      8  C   UNL     1      -7.204  -3.123  -1.517  0.00  0.00    +0.025 A 
ATOM      9  C   UNL     1      -6.064  -3.859  -1.600  0.00  0.00    +0.048 A 
ATOM     10 CL   UNL     1      -8.594  -0.780  -1.538  0.00  0.00    -0.082 Cl
ENDROOT
BRANCH   2  11
ATOM     11  C   UNL     1      -1.288  -2.704  -2.212  0.00  0.00    +0.267 C 
ATOM     12  O   UNL     1      -0.645  -1.705  -2.471  0.00  0.00    -0.268 OA
ATOM     13  N   UNL     1      -0.662  -3.888  -2.063  0.00  0.00    -0.292 N 
ATOM     14  C   UNL     1       0.804  -3.994  -2.140  0.00  0.00    +0.113 C 
ATOM     15  C   UNL     1       1.310  -4.446  -0.765  0.00  0.00    +0.054 C 
ATOM     16  C   UNL     1       0.507  -5.615  -0.258  0.00  0.00    -0.041 A 
ATOM     17  C   UNL     1       1.073  -6.400   0.740  0.00  0.00    +0.004 A 
ATOM     18  C   UNL     1       0.387  -7.478   1.258  0.00  0.00    +0.000 A 
ATOM     19  C   UNL     1      -0.875  -7.783   0.783  0.00  0.00    +0.000 A 
ATOM     20  C   UNL     1      -1.438  -7.008  -0.210  0.00  0.00    +0.005 A 
ATOM     21  C   UNL     1      -0.747  -5.924  -0.735  0.00  0.00    -0.027 A 
ATOM     22  C   UNL     1      -1.415  -5.124  -1.825  0.00  0.00    +0.143 C 
ENDBRANCH   2  11
BRANCH   1  23
ATOM     23  C   UNL     1      -2.972  -0.069  -2.236  0.00  0.00    -0.025 C 
BRANCH  23  24
ATOM     24  N   UNL     1      -2.653   0.490  -0.908  0.00  0.00    +0.386 N 
ATOM     25  H   UNL     1      -3.503   0.501  -0.333  0.00  0.00    -0.085 HD
ATOM     26  H   UNL     1      -1.941  -0.096  -0.457  0.00  0.00    -0.085 HD
BRANCH  24  28
ATOM     27  C   UNL     1      -3.310   2.846  -1.104  0.00  0.00    -0.012 C 
ATOM     28  C   UNL     1      -2.138   1.866  -1.042  0.00  0.00    -0.053 C 
BRANCH  28  29
ATOM     29  C   UNL     1      -1.262   2.194   0.168  0.00  0.00    +0.129 C 
BRANCH  29  30
ATOM     30  N   UNL     1      -0.076   1.333   0.161  0.00  0.00    -0.254 N 
ATOM     31  C   UNL     1       1.208   1.730   0.194  0.00  0.00    +0.219 A 
ATOM     32  N   UNL     1       1.964   0.662   0.167  0.00  0.00    -0.223 NA
ATOM     33  C   UNL     1       1.202  -0.430   0.118  0.00  0.00    +0.244 A 
ATOM     34  N   UNL     1      -0.055  -0.070   0.112  0.00  0.00    -0.158 NA
ENDBRANCH  29  30
ENDBRANCH  28  29
ENDBRANCH  24  28
ENDBRANCH  23  24
ENDBRANCH   1  23
TORSDOF 6
