REMARK  Name = ZINC66609415
REMARK  3 active torsions:
REMARK  status: ('A' for Active; 'I' for Inactive)
REMARK    1  A    between atoms: C_6  and  N_11
REMARK    2  A    between atoms: C_12  and  C_14
REMARK    3  A    between atoms: C_16  and  N_24
REMARK                            x       y       z     vdW  Elec       q    Type
REMARK                         _______ _______ _______ _____ _____    ______ ____
ROOT
ATOM      1  N   UNL     1      -2.166  -0.497   0.980  0.00  0.00    -0.304 N 
ATOM      2  C   UNL     1      -3.084   0.422   0.621  0.00  0.00    +0.248 C 
ATOM      3  O   UNL     1      -3.083   0.873  -0.508  0.00  0.00    -0.270 OA
ATOM      4  H   UNL     1      -2.167  -0.857   1.881  0.00  0.00    +0.150 HD
ENDROOT
BRANCH   2   5
ATOM      5  C   UNL     1      -4.090   0.882   1.598  0.00  0.00    +0.084 A 
ATOM      6  C   UNL     1      -4.090   0.370   2.898  0.00  0.00    +0.049 A 
ATOM      7  C   UNL     1      -5.031   0.802   3.807  0.00  0.00    +0.131 A 
ATOM      8  C   UNL     1      -5.979   1.741   3.439  0.00  0.00    +0.082 A 
ATOM      9  C   UNL     1      -5.992   2.258   2.153  0.00  0.00    +0.165 A 
ATOM     10  C   UNL     1      -5.045   1.837   1.227  0.00  0.00    +0.174 A 
ATOM     11  O   UNL     1      -5.032   2.340  -0.034  0.00  0.00    -0.484 OA
ATOM     12  C   UNL     1      -6.221   3.005  -0.474  0.00  0.00    +0.270 C 
ATOM     13  C   UNL     1      -6.678   3.959   0.638  0.00  0.00    +0.270 C 
ATOM     14  O   UNL     1      -6.936   3.178   1.813  0.00  0.00    -0.485 OA
BRANCH   7  15
ATOM     15  N   UNL     1      -5.028   0.259   5.184  0.00  0.00    +0.057 N 
ATOM     16  O   UNL     1      -4.201  -0.562   5.509  0.00  0.00    -0.126 OA
ATOM     17  O   UNL     1      -5.852   0.635   5.984  0.00  0.00    -0.126 OA
ENDBRANCH   7  15
ENDBRANCH   2   5
BRANCH   1  23
ATOM     18  C   UNL     1      -0.017   1.402   0.010  0.00  0.00    +0.047 A 
ATOM     19  C   UNL     1       1.269   1.806  -0.000  0.00  0.00    +0.195 A 
ATOM     20  O   UNL     1       2.058   0.716  -0.013  0.00  0.00    -0.467 OA
ATOM     21  C   UNL     1       1.296  -0.384  -0.013  0.00  0.00    +0.110 A 
ATOM     22  C   UNL     1       0.002  -0.004   0.002  0.00  0.00    +0.014 A 
ATOM     23  C   UNL     1      -1.168  -0.953   0.011  0.00  0.00    +0.107 C 
ATOM     24  C   UNL     1      -0.658  -2.345   0.408  0.00  0.00    +0.027 C 
ATOM     25  C   UNL     1       0.564  -2.702  -0.443  0.00  0.00    +0.010 C 
ATOM     26  C   UNL     1       1.750  -1.824  -0.029  0.00  0.00    +0.075 C 
ENDBRANCH   1  23
TORSDOF 3
