REMARK  Name = ZINC35483881
REMARK  7 active torsions:
REMARK  status: ('A' for Active; 'I' for Inactive)
REMARK    1  A    between atoms: C_1  and  C_2
REMARK    2  A    between atoms: C_9  and  C_12
REMARK    3  A    between atoms: C_10  and  C_11
REMARK    4  A    between atoms: C_12  and  C_13
REMARK    5  A    between atoms: C_14  and  C_27
REMARK    6  A    between atoms: C_24  and  C_26
REMARK    7  A    between atoms: C_31  and  O_33
REMARK                            x       y       z     vdW  Elec       q    Type
REMARK                         _______ _______ _______ _____ _____    ______ ____
ROOT
ATOM      1  C   UNL     1      -0.322  -0.120   5.508  0.00  0.00    +0.078 C 
ATOM      2  C   UNL     1      -0.562   1.237   4.889  0.00  0.00    +0.152 C 
ATOM      3  N   UNL     1      -0.403   2.214   5.973  0.00  0.00    -0.230 N 
ATOM      4  C   UNL     1      -0.106   1.539   7.098  0.00  0.00    +0.293 C 
ATOM      5  O   UNL     1       0.090   2.047   8.185  0.00  0.00    -0.266 OA
ATOM      6  C   UNL     1      -0.060   0.090   6.819  0.00  0.00    +0.250 C 
ATOM      7  O   UNL     1       0.206  -0.876   7.730  0.00  0.00    -0.282 OA
ATOM      8  C   UNL     1      -0.535   3.592   5.858  0.00  0.00    +0.191 A 
ATOM      9  N   UNL     1      -0.829   4.335   4.799  0.00  0.00    -0.125 NA
ATOM     10  N   UNL     1      -0.911   5.591   4.871  0.00  0.00    -0.145 NA
ATOM     11  C   UNL     1      -0.710   6.245   5.998  0.00  0.00    +0.101 A 
ATOM     12  S   UNL     1      -0.367   4.873   7.097  0.00  0.00    -0.035 S 
ATOM     13  C   UNL     1      -0.762   7.724   6.283  0.00  0.00    +0.075 C 
ENDROOT
BRANCH   2  14
ATOM     14  C   UNL     1      -1.958   1.310   4.326  0.00  0.00    -0.019 A 
ATOM     15  C   UNL     1      -3.041   1.427   5.178  0.00  0.00    +0.006 A 
ATOM     16  C   UNL     1      -4.323   1.495   4.665  0.00  0.00    +0.004 A 
ATOM     17  C   UNL     1      -4.525   1.445   3.299  0.00  0.00    +0.045 A 
ATOM     18  C   UNL     1      -3.440   1.328   2.442  0.00  0.00    +0.117 A 
ATOM     19  C   UNL     1      -2.154   1.266   2.960  0.00  0.00    +0.051 A 
BRANCH  18  20
ATOM     20  O   UNL     1      -3.636   1.279   1.098  0.00  0.00    -0.507 OA
ATOM     21  H   UNL     1      -3.631   2.145   0.668  0.00  0.00    +0.292 HD
ENDBRANCH  18  20
ENDBRANCH   2  14
BRANCH   1  22
ATOM     22  C   UNL     1      -0.370  -1.415   4.822  0.00  0.00    +0.215 C 
ATOM     23  O   UNL     1      -0.787  -1.483   3.680  0.00  0.00    -0.285 OA
BRANCH  22  32
ATOM     24  C   UNL     1       2.080  -3.673   9.271  0.00  0.00    +0.047 C 
ATOM     25  C   UNL     1       1.582  -4.532   8.138  0.00  0.00    -0.008 A 
ATOM     26  C   UNL     1       1.720  -5.883   8.190  0.00  0.00    +0.008 A 
ATOM     27  C   UNL     1       1.251  -6.674   7.126  0.00  0.00    +0.018 A 
ATOM     28  C   UNL     1       0.666  -6.098   6.056  0.00  0.00    +0.093 A 
ATOM     29  N   UNL     1       0.520  -4.740   5.989  0.00  0.00    -0.303 N 
ATOM     30  C   UNL     1       0.962  -3.942   7.015  0.00  0.00    +0.141 A 
ATOM     31  N   UNL     1       0.699  -2.682   6.713  0.00  0.00    -0.224 NA
ATOM     32  C   UNL     1       0.088  -2.634   5.515  0.00  0.00    +0.133 A 
ATOM     33  C   UNL     1      -0.022  -3.924   5.043  0.00  0.00    +0.051 A 
ATOM     34  C   UNL     1      -0.642  -4.352   3.737  0.00  0.00    +0.066 C 
ENDBRANCH  22  32
ENDBRANCH   1  22
TORSDOF 4
