REMARK  Name = ZINC32099677
REMARK  5 active torsions:
REMARK  status: ('A' for Active; 'I' for Inactive)
REMARK    1  A    between atoms: C_4  and  C_25
REMARK    2  A    between atoms: C_7  and  C_15
REMARK    3  A    between atoms: C_9  and  C_11
REMARK    4  A    between atoms: C_15  and  C_17
REMARK    5  A    between atoms: C_15  and  O_24
REMARK                            x       y       z     vdW  Elec       q    Type
REMARK                         _______ _______ _______ _____ _____    ______ ____
ROOT
ATOM      1  C   UNL     1      -0.212   5.388  -2.640  0.00  0.00    +0.030 A 
ATOM      2  C   UNL     1       0.426   5.529  -3.836  0.00  0.00    +0.042 A 
ATOM      3  C   UNL     1      -0.268   5.941  -4.972  0.00  0.00    +0.034 A 
ATOM      4  C   UNL     1      -1.600   6.216  -4.920  0.00  0.00    +0.082 A 
ATOM      5  C   UNL     1      -2.293   6.082  -3.705  0.00  0.00    +0.084 A 
ATOM      6  C   UNL     1      -1.585   5.668  -2.550  0.00  0.00    +0.008 A 
ATOM      7  C   UNL     1      -2.282   5.530  -1.334  0.00  0.00    -0.010 A 
ATOM      8  C   UNL     1      -3.618   5.814  -1.322  0.00  0.00    +0.039 A 
ATOM      9  C   UNL     1      -4.253   6.222  -2.494  0.00  0.00    +0.145 A 
ATOM     10  N   UNL     1      -3.601   6.345  -3.625  0.00  0.00    -0.242 NA
ATOM     11 CL   UNL     1       2.125   5.189  -3.945  0.00  0.00    -0.084 Cl
ENDROOT
BRANCH   9  12
ATOM     12  C   UNL     1      -5.728   6.531  -2.460  0.00  0.00    +0.434 C 
ATOM     13  F   UNL     1      -5.914   7.884  -2.157  0.00  0.00    -0.164 F 
ATOM     14  F   UNL     1      -6.292   6.250  -3.709  0.00  0.00    -0.164 F 
ATOM     15  F   UNL     1      -6.346   5.745  -1.481  0.00  0.00    -0.164 F 
ENDBRANCH   9  12
BRANCH   4  16
ATOM     16  C   UNL     1      -2.329   6.661  -6.162  0.00  0.00    +0.419 C 
ATOM     17  F   UNL     1      -1.432   6.717  -7.234  0.00  0.00    -0.166 F 
ATOM     18  F   UNL     1      -3.350   5.751  -6.455  0.00  0.00    -0.166 F 
ATOM     19  F   UNL     1      -2.881   7.929  -5.949  0.00  0.00    -0.166 F 
ENDBRANCH   4  16
BRANCH   7  20
ATOM     20  C   UNL     1      -1.574   5.087  -0.080  0.00  0.00    +0.131 C 
BRANCH  20  21
ATOM     21  C   UNL     1      -1.520   3.559  -0.037  0.00  0.00    -0.038 C 
ATOM     22  C   UNL     1      -0.801   3.110   1.237  0.00  0.00    -0.013 C 
ATOM     23  C   UNL     1      -0.731   1.580   1.267  0.00  0.00    -0.003 C 
ATOM     24  C   UNL     1      -0.013   1.086   0.008  0.00  0.00    -0.019 C 
ATOM     25  C   UNL     1      -0.754   1.594  -1.231  0.00  0.00    -0.082 C 
ATOM     26  N   UNL     1      -0.793   3.061  -1.212  0.00  0.00    +0.383 N 
ATOM     27  H   UNL     1      -1.293   3.411  -2.128  0.00  0.00    -0.085 HD
ATOM     28  H   UNL     1       0.240   3.439  -1.191  0.00  0.00    -0.085 HD
ENDBRANCH  20  21
BRANCH  20  29
ATOM     29  O   UNL     1      -2.281   5.572   1.063  0.00  0.00    -0.389 OA
ATOM     30  H   UNL     1      -1.911   5.347   2.074  0.00  0.00    +0.210 HD
ENDBRANCH  20  29
ENDBRANCH   7  20
TORSDOF 5
