REMARK  Name = ZINC08253999
REMARK  5 active torsions:
REMARK  status: ('A' for Active; 'I' for Inactive)
REMARK    1  A    between atoms: C_5  and  C_7
REMARK    2  A    between atoms: N_9  and  C_12
REMARK    3  A    between atoms: C_12  and  C_13
REMARK    4  A    between atoms: C_21  and  C_23
REMARK    5  A    between atoms: N_25  and  C_26
REMARK                            x       y       z     vdW  Elec       q    Type
REMARK                         _______ _______ _______ _____ _____    ______ ____
ROOT
ATOM      1  C   UNL     1      -0.700   3.028   1.283  0.00  0.00    -0.046 C 
ATOM      2  C   UNL     1      -1.461   3.591   0.078  0.00  0.00    -0.010 C 
ATOM      3  C   UNL     1      -1.963   2.424  -0.781  0.00  0.00    -0.004 C 
ATOM      4  C   UNL     1      -2.871   1.537   0.081  0.00  0.00    -0.015 C 
ATOM      5  C   UNL     1      -2.071   1.032   1.284  0.00  0.00    -0.078 C 
ATOM      6  C   UNL     1      -0.013   1.086   0.008  0.00  0.00    -0.065 C 
ATOM      7  C   UNL     1      -0.754   1.593  -1.232  0.00  0.00    +0.061 C 
ATOM      8  N   UNL     1      -0.687   1.550   1.239  0.00  0.00    +0.383 N 
ATOM      9  H   UNL     1      -0.172   1.197   2.055  0.00  0.00    -0.081 HD
ENDROOT
BRANCH   7  10
ATOM     10  C   UNL     1       0.171   2.450  -2.058  0.00  0.00    +0.215 C 
ATOM     11  O   UNL     1      -0.111   3.610  -2.277  0.00  0.00    -0.276 OA
ATOM     12  N   UNL     1       1.310   1.929  -2.553  0.00  0.00    -0.312 N 
ATOM     13  H   UNL     1       1.535   1.001  -2.378  0.00  0.00    +0.149 HD
BRANCH  12  14
ATOM     14  C   UNL     1       2.209   2.761  -3.356  0.00  0.00    +0.073 C 
ATOM     15  C   UNL     1       1.745   2.754  -4.814  0.00  0.00    +0.022 C 
ATOM     16  C   UNL     1       2.684   3.624  -5.652  0.00  0.00    +0.002 C 
ATOM     17  C   UNL     1       4.107   3.068  -5.566  0.00  0.00    +0.000 C 
ATOM     18  C   UNL     1       4.571   3.075  -4.109  0.00  0.00    +0.002 C 
ATOM     19  C   UNL     1       3.632   2.205  -3.270  0.00  0.00    +0.022 C 
ENDBRANCH  12  14
ENDBRANCH   7  10
BRANCH   1  20
ATOM     20  C   UNL     1       0.742   3.539   1.260  0.00  0.00    +0.130 C 
BRANCH  20  23
ATOM     21  C   UNL     1       2.873   2.201   3.830  0.00  0.00    +0.131 A 
ATOM     22  C   UNL     1       2.590   2.393   2.508  0.00  0.00    +0.140 A 
ATOM     23  N   UNL     1       1.436   3.096   2.472  0.00  0.00    -0.253 N 
ATOM     24  N   UNL     1       1.047   3.305   3.680  0.00  0.00    -0.065 NA
ATOM     25  N   UNL     1       1.876   2.788   4.516  0.00  0.00    -0.128 NA
BRANCH  21  30
ATOM     26  C   UNL     1       5.278   0.702   6.291  0.00  0.00    +0.004 A 
ATOM     27  C   UNL     1       6.200   0.164   5.403  0.00  0.00    +0.020 A 
ATOM     28  C   UNL     1       6.000   0.312   4.044  0.00  0.00    +0.111 A 
ATOM     29  N   UNL     1       4.947   0.956   3.582  0.00  0.00    -0.253 NA
ATOM     30  C   UNL     1       4.042   1.485   4.396  0.00  0.00    +0.092 A 
ATOM     31  C   UNL     1       4.185   1.377   5.778  0.00  0.00    +0.030 A 
ENDBRANCH  21  30
ENDBRANCH  20  23
ENDBRANCH   1  20
TORSDOF 5
