REMARK  Name = ZINC65589063
REMARK  4 active torsions:
REMARK  status: ('A' for Active; 'I' for Inactive)
REMARK    1  A    between atoms: C_1  and  N_2
REMARK    2  A    between atoms: N_2  and  C_3
REMARK    3  A    between atoms: C_3  and  C_4
REMARK    4  A    between atoms: N_11  and  C_12
REMARK                            x       y       z     vdW  Elec       q    Type
REMARK                         _______ _______ _______ _____ _____    ______ ____
ROOT
ATOM      1  C   UNL     1      -0.018   1.461   0.010  0.00  0.00    +0.134 C 
ATOM      2  N   UNL     1       0.002  -0.004   0.002  0.00  0.00    -0.284 N 
ATOM      3  C   UNL     1       0.000  -0.672  -1.169  0.00  0.00    +0.303 C 
ATOM      4  O   UNL     1       0.017  -1.887  -1.175  0.00  0.00    -0.253 OA
ATOM      5  N   UNL     1      -0.020   0.009  -2.332  0.00  0.00    -0.292 N 
ATOM      6  H   UNL     1      -0.033   0.978  -2.327  0.00  0.00    +0.151 HD
ENDROOT
BRANCH   5   7
ATOM      7  C   UNL     1      -0.022  -0.717  -3.605  0.00  0.00    +0.105 C 
ATOM      8  C   UNL     1      -0.625   0.162  -4.721  0.00  0.00    +0.032 C 
ATOM      9  C   UNL     1       0.203  -0.255  -5.955  0.00  0.00    +0.037 C 
ATOM     10  C   UNL     1       1.526  -0.738  -5.399  0.00  0.00    -0.042 A 
ATOM     11  C   UNL     1       1.396  -1.006  -4.047  0.00  0.00    -0.024 A 
ATOM     12  C   UNL     1       2.485  -1.465  -3.326  0.00  0.00    +0.006 A 
ATOM     13  C   UNL     1       3.702  -1.658  -3.951  0.00  0.00    +0.000 A 
ATOM     14  C   UNL     1       3.833  -1.392  -5.301  0.00  0.00    +0.000 A 
ATOM     15  C   UNL     1       2.746  -0.930  -6.025  0.00  0.00    +0.004 A 
ENDBRANCH   5   7
BRANCH   2  16
ATOM     16  C   UNL     1       0.024  -0.743   1.267  0.00  0.00    +0.151 C 
BRANCH  16  17
ATOM     17  C   UNL     1      -1.389  -1.016   1.714  0.00  0.00    +0.007 A 
ATOM     18  C   UNL     1      -2.180  -2.082   1.440  0.00  0.00    +0.013 A 
ATOM     19  C   UNL     1      -3.458  -2.121   1.965  0.00  0.00    +0.008 A 
ATOM     20  C   UNL     1      -3.883  -1.091   2.738  0.00  0.00    +0.045 A 
ATOM     21  S   UNL     1      -2.453  -0.023   2.748  0.00  0.00    -0.100 S 
ENDBRANCH  16  17
ENDBRANCH   2  16
TORSDOF 3
