REMARK  Name = ZINC51377174
REMARK  14 active torsions:
REMARK  status: ('A' for Active; 'I' for Inactive)
REMARK    1  A    between atoms: C_1  and  C_2
REMARK    2  A    between atoms: C_2  and  C_3
REMARK    3  A    between atoms: C_2  and  C_4
REMARK    4  A    between atoms: C_2  and  C_5
REMARK    5  A    between atoms: C_8  and  C_11
REMARK    6  A    between atoms: C_11  and  N_12
REMARK    7  A    between atoms: N_12  and  C_13
REMARK    8  A    between atoms: N_12  and  C_14
REMARK    9  A    between atoms: C_14  and  C_15
REMARK   10  A    between atoms: N_17  and  C_18
REMARK   11  A    between atoms: C_18  and  C_19
REMARK   12  A    between atoms: C_22  and  O_25
REMARK   13  A    between atoms: O_25  and  C_26
REMARK   14  A    between atoms: C_26  and  C_27
REMARK                            x       y       z     vdW  Elec       q    Type
REMARK                         _______ _______ _______ _____ _____    ______ ____
ROOT
ATOM      1  C   UNL     1       3.211  -0.250  -8.075  0.00  0.00    +0.197 C 
ATOM      2  O   UNL     1       2.555   0.751  -7.880  0.00  0.00    -0.278 OA
ATOM      3  N   UNL     1       3.857  -0.415  -9.246  0.00  0.00    -0.313 N 
ATOM      4  H   UNL     1       4.382  -1.215  -9.402  0.00  0.00    +0.149 HD
ENDROOT
BRANCH   1   5
ATOM      5  C   UNL     1       3.305  -1.309  -7.007  0.00  0.00    +0.019 C 
BRANCH   5   6
ATOM      6  N   UNL     1       2.520  -0.895  -5.837  0.00  0.00    +0.386 N 
ATOM      7  C   UNL     1       1.097  -0.833  -6.198  0.00  0.00    -0.095 C 
ATOM      8  H   UNL     1       2.829   0.015  -5.529  0.00  0.00    -0.081 HD
BRANCH   6   9
ATOM      9  C   UNL     1       2.707  -1.868  -4.752  0.00  0.00    -0.043 C 
BRANCH   9  13
ATOM     10  C   UNL     1       0.707  -0.490  -1.238  0.00  0.00    -0.042 A 
ATOM     11  C   UNL     1       0.036  -1.284  -2.148  0.00  0.00    +0.004 A 
ATOM     12  C   UNL     1       0.683  -1.730  -3.286  0.00  0.00    +0.002 A 
ATOM     13  C   UNL     1       2.001  -1.381  -3.513  0.00  0.00    -0.064 A 
ATOM     14  C   UNL     1       2.672  -0.586  -2.603  0.00  0.00    +0.002 A 
ATOM     15  C   UNL     1       2.024  -0.137  -1.467  0.00  0.00    +0.004 A 
BRANCH  10  17
ATOM     16  C   UNL     1      -0.019   1.526   0.010  0.00  0.00    +0.015 C 
ATOM     17  C   UNL     1       0.002  -0.004   0.002  0.00  0.00    -0.013 C 
ATOM     18  C   UNL     1       0.742  -0.511   1.242  0.00  0.00    +0.015 C 
ATOM     19  C   UNL     1      -1.433  -0.534   0.013  0.00  0.00    +0.015 C 
ENDBRANCH  10  17
ENDBRANCH   9  13
ENDBRANCH   6   9
ENDBRANCH   5   6
ENDBRANCH   1   5
BRANCH   3  20
ATOM     20  C   UNL     1       3.765   0.615 -10.284  0.00  0.00    +0.139 C 
BRANCH  20  21
ATOM     21  C   UNL     1       4.571   0.190 -11.485  0.00  0.00    -0.030 A 
ATOM     22  C   UNL     1       5.907   0.536 -11.577  0.00  0.00    +0.009 A 
ATOM     23  C   UNL     1       6.647   0.148 -12.677  0.00  0.00    +0.046 A 
ATOM     24  C   UNL     1       6.050  -0.589 -13.690  0.00  0.00    +0.121 A 
ATOM     25  C   UNL     1       4.710  -0.934 -13.595  0.00  0.00    +0.046 A 
ATOM     26  C   UNL     1       3.975  -0.548 -12.490  0.00  0.00    +0.009 A 
BRANCH  24  27
ATOM     27  O   UNL     1       6.776  -0.971 -14.773  0.00  0.00    -0.483 OA
BRANCH  27  28
ATOM     28  C   UNL     1       6.096  -1.727 -15.776  0.00  0.00    +0.324 C 
BRANCH  28  29
ATOM     29  C   UNL     1       7.053  -2.058 -16.892  0.00  0.00    +0.248 C 
ATOM     30  O   UNL     1       8.205  -1.683 -16.833  0.00  0.00    -0.272 OA
ATOM     31  N   UNL     1       6.630  -2.770 -17.954  0.00  0.00    -0.327 N 
ATOM     32  H   UNL     1       5.708  -3.070 -18.001  0.00  0.00    +0.145 HD
ATOM     33  H   UNL     1       7.246  -2.983 -18.672  0.00  0.00    +0.145 HD
ENDBRANCH  28  29
ENDBRANCH  27  28
ENDBRANCH  24  27
ENDBRANCH  20  21
ENDBRANCH   3  20
TORSDOF 10
