REMARK  Name = ZINC36617341
REMARK  9 active torsions:
REMARK  status: ('A' for Active; 'I' for Inactive)
REMARK    1  A    between atoms: C_1  and  C_2
REMARK    2  A    between atoms: C_3  and  C_8
REMARK    3  A    between atoms: N_5  and  C_7
REMARK    4  A    between atoms: C_8  and  C_9
REMARK    5  A    between atoms: C_9  and  C_11
REMARK    6  A    between atoms: C_9  and  N_12
REMARK    7  A    between atoms: C_13  and  C_15
REMARK    8  A    between atoms: C_17  and  C_25
REMARK    9  A    between atoms: C_21  and  C_24
REMARK                            x       y       z     vdW  Elec       q    Type
REMARK                         _______ _______ _______ _____ _____    ______ ____
ROOT
ATOM      1  C   UNL     1       4.566  -2.366  -2.503  0.00  0.00    +0.053 A 
ATOM      2  C   UNL     1       4.136  -3.495  -1.814  0.00  0.00    +0.045 A 
ATOM      3  C   UNL     1       4.865  -4.684  -1.933  0.00  0.00    +0.111 A 
ATOM      4  N   UNL     1       5.954  -4.753  -2.687  0.00  0.00    -0.207 NA
ATOM      5  C   UNL     1       6.405  -3.709  -3.362  0.00  0.00    +0.260 A 
ATOM      6  C   UNL     1       5.725  -2.479  -3.300  0.00  0.00    +0.076 A 
ATOM      7  C   UNL     1       6.463  -1.549  -4.152  0.00  0.00    +0.091 A 
ATOM      8  N   UNL     1       7.468  -2.199  -4.655  0.00  0.00    -0.080 NA
ATOM      9  O   UNL     1       7.463  -3.529  -4.179  0.00  0.00    -0.334 OA
ATOM     10  C   UNL     1       6.120  -0.103  -4.400  0.00  0.00    +0.070 C 
ENDROOT
BRANCH   3  11
ATOM     11  C   UNL     1       4.414  -5.884  -1.204  0.00  0.00    +0.153 A 
ATOM     12  C   UNL     1       5.021  -7.103  -1.218  0.00  0.00    +0.051 A 
ATOM     13  C   UNL     1       4.256  -7.945  -0.388  0.00  0.00    +0.042 A 
ATOM     14  C   UNL     1       3.232  -7.209   0.087  0.00  0.00    +0.196 A 
ATOM     15  O   UNL     1       3.333  -5.964  -0.403  0.00  0.00    -0.461 OA
ENDBRANCH   3  11
BRANCH   1  17
ATOM     16  N   UNL     1       2.483  -1.091  -2.314  0.00  0.00    -0.308 N 
ATOM     17  C   UNL     1       3.827  -1.087  -2.408  0.00  0.00    +0.245 C 
ATOM     18  O   UNL     1       4.433  -0.034  -2.415  0.00  0.00    -0.270 OA
ATOM     19  H   UNL     1       1.999  -1.931  -2.308  0.00  0.00    +0.149 HD
BRANCH  16  20
ATOM     20  C   UNL     1       1.752   0.175  -2.220  0.00  0.00    +0.075 C 
ATOM     21  C   UNL     1       1.505   0.728  -3.625  0.00  0.00    +0.028 C 
BRANCH  20  22
ATOM     22  C   UNL     1       0.411  -0.060  -1.522  0.00  0.00    +0.060 C 
BRANCH  22  25
ATOM     23  C   UNL     1       0.888   1.871   0.945  0.00  0.00    +0.068 C 
ATOM     24  C   UNL     1       0.864   0.364   0.992  0.00  0.00    +0.063 A 
ATOM     25  C   UNL     1       0.654  -0.487  -0.097  0.00  0.00    -0.005 A 
ATOM     26  C   UNL     1       0.707  -1.762   0.354  0.00  0.00    +0.112 A 
ATOM     27  N   UNL     1       0.942  -1.718   1.682  0.00  0.00    -0.274 N 
ATOM     28  N   UNL     1       1.042  -0.372   2.058  0.00  0.00    -0.176 NA
ATOM     29  C   UNL     1       1.075  -2.874   2.572  0.00  0.00    +0.172 C 
ENDBRANCH  22  25
ENDBRANCH  20  22
ENDBRANCH  16  20
ENDBRANCH   1  17
TORSDOF 5
