REMARK  Name = ZINC39702013
REMARK  4 active torsions:
REMARK  status: ('A' for Active; 'I' for Inactive)
REMARK    1  A    between atoms: C_1  and  C_2
REMARK    2  A    between atoms: N_16  and  N_17
REMARK    3  A    between atoms: C_18  and  C_19
REMARK    4  A    between atoms: C_18  and  C_20
REMARK                            x       y       z     vdW  Elec       q    Type
REMARK                         _______ _______ _______ _____ _____    ______ ____
ROOT
ATOM      1  C   UNL     1       1.853   1.517  -0.529  0.00  0.00    +0.046 C 
ATOM      2  C   UNL     1       1.714   0.017  -0.506  0.00  0.00    -0.027 A 
ATOM      3  C   UNL     1       1.898  -0.704  -1.635  0.00  0.00    +0.005 A 
ATOM      4  C   UNL     1       1.774  -2.100  -1.647  0.00  0.00    +0.001 A 
ATOM      5  C   UNL     1       1.493  -2.813  -0.532  0.00  0.00    +0.012 A 
ATOM      6  C   UNL     1       1.311  -2.163   0.709  0.00  0.00    +0.025 A 
ATOM      7  C   UNL     1       1.141  -2.600   1.998  0.00  0.00    +0.117 C 
ATOM      8  C   UNL     1       0.752  -1.360   2.796  0.00  0.00    +0.253 C 
ATOM      9  N   UNL     1       1.117  -0.233   1.948  0.00  0.00    -0.358 N 
ATOM     10  C   UNL     1       1.383  -0.679   0.743  0.00  0.00    +0.049 A 
ATOM     11  N   UNL     1       1.501  -1.435   4.052  0.00  0.00    -0.219 NA
ATOM     12  C   UNL     1       1.838  -2.620   4.501  0.00  0.00    +0.252 C 
ATOM     13  N   UNL     1       1.582  -3.775   3.842  0.00  0.00    -0.111 NA
ATOM     14  N   UNL     1       1.263  -3.789   2.590  0.00  0.00    -0.146 NA
ATOM     15  N   UNL     1       2.489  -2.694   5.714  0.00  0.00    -0.204 N 
ATOM     16  H   UNL     1       2.751  -3.556   6.072  0.00  0.00    +0.177 HD
ATOM     17  H   UNL     1       1.161   0.695   2.228  0.00  0.00    +0.162 HD
ENDROOT
BRANCH  15  18
ATOM     18  N   UNL     1       2.773  -1.523   6.429  0.00  0.00    -0.184 NA
ATOM     19  C   UNL     1       3.482  -1.582   7.519  0.00  0.00    +0.070 C 
ATOM     20  C   UNL     1       3.651  -0.354   8.376  0.00  0.00    +0.068 C 
BRANCH  19  21
ATOM     21  C   UNL     1       4.118  -2.843   7.913  0.00  0.00    +0.036 A 
ATOM     22  C   UNL     1       4.399  -3.319   9.182  0.00  0.00    +0.018 A 
ATOM     23  C   UNL     1       5.007  -4.547   9.299  0.00  0.00    +0.023 A 
ATOM     24  C   UNL     1       5.310  -5.249   8.175  0.00  0.00    +0.055 A 
ATOM     25  S   UNL     1       4.723  -4.168   6.881  0.00  0.00    -0.080 S 
ATOM     26 BR   UNL     1       6.138  -6.942   8.020  0.00  0.00    -0.043 Br
ENDBRANCH  19  21
ENDBRANCH  15  18
TORSDOF 2
