REMARK  Name = ZINC66445487
REMARK  4 active torsions:
REMARK  status: ('A' for Active; 'I' for Inactive)
REMARK    1  A    between atoms: C_3  and  S_8
REMARK    2  A    between atoms: S_8  and  N_11
REMARK    3  A    between atoms: N_11  and  C_12
REMARK    4  A    between atoms: C_19  and  C_21
REMARK                            x       y       z     vdW  Elec       q    Type
REMARK                         _______ _______ _______ _____ _____    ______ ____
ROOT
ATOM      1  C   UNL     1       5.500   3.254   1.859  0.00  0.00    +0.076 A 
ATOM      2  C   UNL     1       6.298   3.748   0.829  0.00  0.00    +0.029 A 
ATOM      3  C   UNL     1       7.448   4.431   1.107  0.00  0.00    +0.032 A 
ATOM      4  C   UNL     1       7.833   4.639   2.434  0.00  0.00    +0.089 A 
ATOM      5  C   UNL     1       7.030   4.143   3.475  0.00  0.00    +0.068 A 
ATOM      6  C   UNL     1       5.861   3.455   3.181  0.00  0.00    +0.054 A 
ATOM      7  N   UNL     1       7.663   4.502   4.649  0.00  0.00    -0.340 N 
ATOM      8  C   UNL     1       8.792   5.183   4.308  0.00  0.00    +0.137 A 
ATOM      9  N   UNL     1       8.892   5.263   3.014  0.00  0.00    -0.230 NA
ATOM     10  H   UNL     1       7.359   4.306   5.549  0.00  0.00    +0.167 HD
ENDROOT
BRANCH   8  11
ATOM     11  C   UNL     1       9.782   5.759   5.288  0.00  0.00    +0.184 C 
ATOM     12  C   UNL     1      11.212   5.256   4.966  0.00  0.00    +0.042 C 
ATOM     13  C   UNL     1      12.070   6.391   5.588  0.00  0.00    +0.031 C 
ATOM     14  C   UNL     1      11.192   7.637   5.344  0.00  0.00    +0.161 C 
ATOM     15  O   UNL     1       9.845   7.187   5.151  0.00  0.00    -0.369 OA
ENDBRANCH   8  11
BRANCH   1  16
ATOM     16  N   UNL     1       4.326   2.557   1.557  0.00  0.00    -0.098 NA
BRANCH  16  17
ATOM     17  S   UNL     1       3.891   2.314  -0.023  0.00  0.00    +0.092 S 
ATOM     18  O   UNL     1       4.872   1.456  -0.587  0.00  0.00    -0.148 OA
ATOM     19  O   UNL     1       3.596   3.595  -0.564  0.00  0.00    -0.148 OA
BRANCH  17  22
ATOM     20  C   UNL     1      -0.017   1.378   0.010  0.00  0.00    +0.003 A 
ATOM     21  C   UNL     1       1.171   2.086   0.002  0.00  0.00    +0.029 A 
ATOM     22  C   UNL     1       2.378   1.412  -0.013  0.00  0.00    +0.112 A 
ATOM     23  C   UNL     1       2.398   0.029  -0.021  0.00  0.00    +0.048 A 
ATOM     24  C   UNL     1       1.210  -0.679  -0.013  0.00  0.00    +0.043 A 
ATOM     25  C   UNL     1       0.002  -0.004   0.002  0.00  0.00    +0.020 A 
ATOM     26 CL   UNL     1       1.234  -2.415  -0.024  0.00  0.00    -0.083 Cl
ENDBRANCH  17  22
ENDBRANCH  16  17
ENDBRANCH   1  16
TORSDOF 4
