REMARK  Name = ZINC58644803
REMARK  8 active torsions:
REMARK  status: ('A' for Active; 'I' for Inactive)
REMARK    1  A    between atoms: C_1  and  C_2
REMARK    2  A    between atoms: C_2  and  C_3
REMARK    3  A    between atoms: C_3  and  C_5
REMARK    4  A    between atoms: C_3  and  C_6
REMARK    5  A    between atoms: C_9  and  C_12
REMARK    6  A    between atoms: C_12  and  C_14
REMARK    7  A    between atoms: C_12  and  N_19
REMARK    8  A    between atoms: C_20  and  C_22
REMARK                            x       y       z     vdW  Elec       q    Type
REMARK                         _______ _______ _______ _____ _____    ______ ____
ROOT
ATOM      1  N   UNL     1      -1.133  -6.670   1.853  0.00  0.00    -0.300 N 
ATOM      2  C   UNL     1      -0.600  -7.871   2.153  0.00  0.00    +0.250 C 
ATOM      3  O   UNL     1      -0.380  -8.676   1.268  0.00  0.00    -0.270 OA
ATOM      4  H   UNL     1      -1.378  -6.057   2.564  0.00  0.00    +0.150 HD
ENDROOT
BRANCH   2   5
ATOM      5  C   UNL     1      -0.285  -8.208   3.550  0.00  0.00    +0.102 A 
ATOM      6  C   UNL     1       0.370  -9.390   3.868  0.00  0.00    +0.031 A 
ATOM      7  C   UNL     1       0.652  -9.669   5.223  0.00  0.00    +0.037 A 
ATOM      8  C   UNL     1       0.289  -8.779   6.219  0.00  0.00    +0.030 A 
ATOM      9  N   UNL     1      -0.353  -7.633   5.911  0.00  0.00    -0.325 N 
ATOM     10  H   UNL     1      -0.604  -7.028   6.626  0.00  0.00    +0.169 HD
ATOM     11  C   UNL     1      -0.649  -7.303   4.644  0.00  0.00    +0.261 A 
ATOM     12  O   UNL     1      -1.223  -6.256   4.404  0.00  0.00    -0.267 OA
ATOM     13  C   UNL     1       0.601  -9.051   7.668  0.00  0.00    +0.054 C 
ATOM     14  C   UNL     1       0.788 -10.543   7.924  0.00  0.00    +0.014 C 
ATOM     15  C   UNL     1       1.862 -11.089   6.974  0.00  0.00    +0.080 C 
ATOM     16  C   UNL     1       1.337 -10.928   5.563  0.00  0.00    +0.165 C 
ATOM     17  O   UNL     1       1.474 -11.809   4.740  0.00  0.00    -0.292 OA
ENDBRANCH   2   5
BRANCH   1  18
ATOM     18  C   UNL     1      -1.343  -6.290   0.454  0.00  0.00    +0.140 C 
BRANCH  18  22
ATOM     19  C   UNL     1      -1.353  -2.031   0.119  0.00  0.00    -0.045 A 
ATOM     20  C   UNL     1      -0.728  -2.799  -0.846  0.00  0.00    +0.004 A 
ATOM     21  C   UNL     1      -0.725  -4.177  -0.738  0.00  0.00    +0.006 A 
ATOM     22  C   UNL     1      -1.345  -4.787   0.336  0.00  0.00    -0.022 A 
ATOM     23  C   UNL     1      -1.969  -4.020   1.302  0.00  0.00    +0.006 A 
ATOM     24  C   UNL     1      -1.969  -2.641   1.196  0.00  0.00    +0.004 A 
BRANCH  19  25
ATOM     25  C   UNL     1      -1.356  -0.529   0.001  0.00  0.00    +0.016 C 
ATOM     26  C   UNL     1      -2.055  -0.121  -1.298  0.00  0.00    +0.012 C 
BRANCH  25  28
ATOM     27  C   UNL     1       0.080   1.515  -0.006  0.00  0.00    +0.004 C 
ATOM     28  C   UNL     1       0.085  -0.015  -0.012  0.00  0.00    +0.004 C 
ENDBRANCH  25  28
ENDBRANCH  19  25
ENDBRANCH  18  22
BRANCH  18  29
ATOM     29  C   UNL     1      -2.665  -6.833  -0.022  0.00  0.00    +0.014 A 
ATOM     30  C   UNL     1      -2.979  -7.391  -1.217  0.00  0.00    +0.013 A 
ATOM     31  C   UNL     1      -4.273  -7.826  -1.434  0.00  0.00    +0.008 A 
ATOM     32  C   UNL     1      -5.190  -7.681  -0.446  0.00  0.00    +0.045 A 
ATOM     33  S   UNL     1      -4.223  -6.917   0.846  0.00  0.00    -0.099 S 
ENDBRANCH  18  29
ENDBRANCH   1  18
TORSDOF 6
