REMARK  Name = ZINC37358014
REMARK  8 active torsions:
REMARK  status: ('A' for Active; 'I' for Inactive)
REMARK    1  A    between atoms: C_1  and  N_2
REMARK    2  A    between atoms: C_3  and  N_29
REMARK    3  A    between atoms: C_5  and  C_22
REMARK    4  A    between atoms: N_14  and  C_17
REMARK    5  A    between atoms: C_17  and  C_18
REMARK    6  A    between atoms: C_18  and  N_19
REMARK    7  A    between atoms: N_19  and  C_20
REMARK    8  A    between atoms: N_19  and  C_21
REMARK                            x       y       z     vdW  Elec       q    Type
REMARK                         _______ _______ _______ _____ _____    ______ ____
ROOT
ATOM      1  C   UNL     1      -1.048   1.181  -0.100  0.00  0.00    +0.174 C 
ATOM      2  N   UNL     1      -0.468  -0.164  -0.059  0.00  0.00    -0.251 N 
ATOM      3  C   UNL     1      -0.031  -0.850  -1.130  0.00  0.00    +0.126 A 
ATOM      4  C   UNL     1       0.444  -2.075  -0.677  0.00  0.00    +0.086 A 
ATOM      5  C   UNL     1       1.019  -3.220  -1.272  0.00  0.00    +0.089 A 
ATOM      6  N   UNL     1       1.358  -4.234  -0.486  0.00  0.00    -0.214 NA
ATOM      7  C   UNL     1       1.174  -4.200   0.830  0.00  0.00    +0.220 A 
ATOM      8  N   UNL     1       0.646  -3.175   1.466  0.00  0.00    -0.193 NA
ATOM      9  C   UNL     1       0.258  -2.079   0.785  0.00  0.00    +0.188 A 
ATOM     10  N   UNL     1      -0.280  -0.923   1.102  0.00  0.00    -0.149 NA
ATOM     11  N   UNL     1       1.558  -5.303   1.572  0.00  0.00    -0.297 N 
ATOM     12  C   UNL     1       2.159  -6.478   0.923  0.00  0.00    +0.123 C 
ATOM     13  C   UNL     1       3.459  -6.827   1.655  0.00  0.00    +0.103 C 
ATOM     14  N   UNL     1       3.183  -6.983   3.089  0.00  0.00    -0.301 NA
ATOM     15  C   UNL     1       2.707  -5.726   3.681  0.00  0.00    +0.103 C 
ATOM     16  C   UNL     1       1.381  -5.329   3.032  0.00  0.00    +0.123 C 
ENDROOT
BRANCH   5  17
ATOM     17  C   UNL     1       1.236  -3.288  -2.735  0.00  0.00    +0.001 A 
ATOM     18  C   UNL     1       1.798  -2.204  -3.410  0.00  0.00    +0.011 A 
ATOM     19  C   UNL     1       1.998  -2.272  -4.773  0.00  0.00    +0.020 A 
ATOM     20  C   UNL     1       1.642  -3.414  -5.471  0.00  0.00    +0.041 A 
ATOM     21  C   UNL     1       1.084  -4.494  -4.806  0.00  0.00    +0.020 A 
ATOM     22  C   UNL     1       0.885  -4.438  -3.442  0.00  0.00    +0.011 A 
ATOM     23 CL   UNL     1       1.896  -3.494  -7.187  0.00  0.00    -0.084 Cl
ENDBRANCH   5  17
BRANCH   3  24
ATOM     24  N   UNL     1      -0.052  -0.415  -2.442  0.00  0.00    -0.343 N 
ATOM     25  H   UNL     1      -0.146   0.530  -2.638  0.00  0.00    +0.144 HD
ATOM     26  H   UNL     1       0.027  -1.056  -3.166  0.00  0.00    +0.144 HD
ENDBRANCH   3  24
BRANCH  14  27
ATOM     27  C   UNL     1       4.365  -7.486   3.802  0.00  0.00    +0.066 C 
BRANCH  27  28
ATOM     28  C   UNL     1       3.975  -7.871   5.230  0.00  0.00    -0.064 C 
BRANCH  28  29
ATOM     29  N   UNL     1       5.157  -8.373   5.942  0.00  0.00    +0.377 N 
ATOM     30  C   UNL     1       6.139  -7.290   6.086  0.00  0.00    -0.097 C 
ATOM     31  C   UNL     1       4.760  -8.854   7.272  0.00  0.00    -0.097 C 
ATOM     32  H   UNL     1       5.568  -9.132   5.419  0.00  0.00    -0.083 HD
ENDBRANCH  28  29
ENDBRANCH  27  28
ENDBRANCH  14  27
TORSDOF 5
