REMARK  Name = ZINC45440112
REMARK  5 active torsions:
REMARK  status: ('A' for Active; 'I' for Inactive)
REMARK    1  A    between atoms: C_7  and  C_11
REMARK    2  A    between atoms: C_11  and  C_12
REMARK    3  A    between atoms: N_14  and  N_15
REMARK    4  A    between atoms: N_18  and  C_19
REMARK    5  A    between atoms: C_24  and  C_27
REMARK                            x       y       z     vdW  Elec       q    Type
REMARK                         _______ _______ _______ _____ _____    ______ ____
ROOT
ATOM      1  N   UNL     1      -0.995  -4.895  -2.989  0.00  0.00    -0.218 N 
ATOM      2  C   UNL     1      -1.838  -5.918  -3.231  0.00  0.00    +0.316 C 
ATOM      3  O   UNL     1      -2.180  -6.167  -4.371  0.00  0.00    -0.251 OA
ATOM      4  N   UNL     1      -2.303  -6.665  -2.210  0.00  0.00    -0.295 N 
ATOM      5  H   UNL     1      -0.661  -4.357  -3.724  0.00  0.00    +0.174 HD
ATOM      6  H   UNL     1      -2.030  -6.466  -1.301  0.00  0.00    +0.151 HD
ENDROOT
BRANCH   4   7
ATOM      7  C   UNL     1      -3.219  -7.777  -2.473  0.00  0.00    +0.075 C 
ATOM      8  C   UNL     1      -4.653  -7.249  -2.546  0.00  0.00    +0.022 C 
ATOM      9  C   UNL     1      -5.022  -6.588  -1.217  0.00  0.00    +0.002 C 
ATOM     10  C   UNL     1      -4.914  -7.615  -0.089  0.00  0.00    +0.012 C 
ATOM     11  C   UNL     1      -3.480  -8.143  -0.015  0.00  0.00    +0.095 C 
ATOM     12  C   UNL     1      -3.111  -8.805  -1.345  0.00  0.00    +0.034 C 
BRANCH  11  13
ATOM     13  C   UNL     1      -3.372  -9.171   1.113  0.00  0.00    +0.393 C 
ATOM     14  F   UNL     1      -4.247 -10.233   0.861  0.00  0.00    -0.170 F 
ATOM     15  F   UNL     1      -2.060  -9.654   1.180  0.00  0.00    -0.170 F 
ATOM     16  F   UNL     1      -3.709  -8.567   2.328  0.00  0.00    -0.170 F 
ENDBRANCH  11  13
ENDBRANCH   4   7
BRANCH   1  19
ATOM     17  C   UNL     1       0.242  -3.584  -1.434  0.00  0.00    +0.234 C 
ATOM     18  O   UNL     1       0.660  -2.913  -2.353  0.00  0.00    -0.274 OA
ATOM     19  N   UNL     1      -0.601  -4.607  -1.676  0.00  0.00    -0.233 N 
ATOM     20  H   UNL     1      -0.935  -5.145  -0.941  0.00  0.00    +0.173 HD
BRANCH  17  21
ATOM     21  C   UNL     1       0.666  -3.275  -0.021  0.00  0.00    +0.134 C 
BRANCH  21  28
ATOM     22  C   UNL     1      -0.017   1.362   0.009  0.00  0.00    +0.001 A 
ATOM     23  C   UNL     1       1.170   2.083   0.002  0.00  0.00    +0.002 A 
ATOM     24  C   UNL     1       2.386   1.436  -0.013  0.00  0.00    +0.026 A 
ATOM     25  C   UNL     1       2.428   0.046  -0.021  0.00  0.00    +0.047 A 
ATOM     26  C   UNL     1       1.223  -0.681  -0.013  0.00  0.00    +0.003 A 
ATOM     27  C   UNL     1       0.002  -0.004   0.002  0.00  0.00    +0.010 A 
ATOM     28  C   UNL     1       1.604  -2.095  -0.025  0.00  0.00    -0.014 A 
ATOM     29  C   UNL     1       2.945  -2.141  -0.038  0.00  0.00    +0.087 A 
ATOM     30  N   UNL     1       3.455  -0.871  -0.036  0.00  0.00    -0.360 N 
ATOM     31  H   UNL     1       4.399  -0.650  -0.044  0.00  0.00    +0.165 HD
ENDBRANCH  21  28
ENDBRANCH  17  21
ENDBRANCH   1  19
TORSDOF 5
