REMARK  Name = ZINC49735128
REMARK  7 active torsions:
REMARK  status: ('A' for Active; 'I' for Inactive)
REMARK    1  A    between atoms: C_1  and  C_2
REMARK    2  A    between atoms: C_2  and  C_3
REMARK    3  A    between atoms: C_3  and  C_4
REMARK    4  A    between atoms: C_4  and  N_5
REMARK    5  A    between atoms: C_24  and  C_27
REMARK    6  A    between atoms: C_32  and  O_33
REMARK    7  A    between atoms: O_33  and  C_34
REMARK                            x       y       z     vdW  Elec       q    Type
REMARK                         _______ _______ _______ _____ _____    ______ ____
ROOT
ATOM      1  N   UNL     1       1.438  -2.980  -2.379  0.00  0.00    -0.249 N 
ATOM      2  C   UNL     1       0.723  -3.229  -3.495  0.00  0.00    +0.259 C 
ATOM      3  O   UNL     1      -0.466  -3.477  -3.433  0.00  0.00    -0.269 OA
ATOM      4  C   UNL     1       1.422  -3.192  -4.792  0.00  0.00    +0.116 C 
ATOM      5  C   UNL     1       2.863  -2.883  -4.770  0.00  0.00    +0.256 C 
ATOM      6  N   UNL     1       3.447  -2.655  -3.576  0.00  0.00    -0.263 N 
ATOM      7  H   UNL     1       4.395  -2.450  -3.543  0.00  0.00    +0.157 HD
ATOM      8  C   UNL     1       2.748  -2.700  -2.433  0.00  0.00    +0.146 C 
ATOM      9  S   UNL     1       3.572  -2.391  -0.965  0.00  0.00    -0.018 S 
ATOM     10  O   UNL     1       3.508  -2.835  -5.801  0.00  0.00    -0.270 OA
ATOM     11  C   UNL     1       0.755  -3.438  -5.979  0.00  0.00    +0.027 C 
ATOM     12  N   UNL     1      -0.525  -3.314  -5.924  0.00  0.00    -0.316 N 
ATOM     13  C   UNL     1      -1.659  -3.608  -6.630  0.00  0.00    +0.045 A 
ATOM     14  C   UNL     1      -2.854  -3.451  -5.907  0.00  0.00    +0.024 A 
ATOM     15  C   UNL     1      -4.081  -3.704  -6.471  0.00  0.00    +0.002 A 
ATOM     16  C   UNL     1      -4.154  -4.127  -7.786  0.00  0.00    +0.001 A 
ATOM     17  C   UNL     1      -2.996  -4.285  -8.509  0.00  0.00    +0.016 A 
ATOM     18  C   UNL     1      -1.737  -4.030  -7.949  0.00  0.00    +0.030 A 
ATOM     19  S   UNL     1      -0.357  -4.274  -8.993  0.00  0.00    -0.115 S 
ATOM     20  C   UNL     1       1.004  -4.863  -7.998  0.00  0.00    +0.090 C 
ATOM     21  C   UNL     1       1.623  -3.800  -7.131  0.00  0.00    +0.071 C 
ATOM     22  H   UNL     1      -0.768  -2.858  -5.103  0.00  0.00    +0.152 HD
ENDROOT
BRANCH  20  23
ATOM     23  C   UNL     1       2.068  -5.412  -8.914  0.00  0.00    +0.008 A 
ATOM     24  C   UNL     1       2.815  -6.507  -8.528  0.00  0.00    +0.008 A 
ATOM     25  C   UNL     1       3.791  -7.011  -9.367  0.00  0.00    +0.001 A 
ATOM     26  C   UNL     1       4.021  -6.420 -10.596  0.00  0.00    +0.004 A 
ATOM     27  C   UNL     1       3.276  -5.325 -10.988  0.00  0.00    +0.046 A 
ATOM     28  C   UNL     1       2.293  -4.821 -10.149  0.00  0.00    +0.124 A 
BRANCH  28  29
ATOM     29  O   UNL     1       1.555  -3.746 -10.534  0.00  0.00    -0.495 OA
ATOM     30  C   UNL     1       1.841  -3.189 -11.818  0.00  0.00    +0.277 C 
ENDBRANCH  28  29
ENDBRANCH  20  23
BRANCH   1  31
ATOM     31  C   UNL     1       0.766  -3.010  -1.077  0.00  0.00    +0.116 C 
BRANCH  31  32
ATOM     32  C   UNL     1       0.227  -1.616  -0.749  0.00  0.00    +0.019 C 
BRANCH  32  34
ATOM     33  C   UNL     1      -1.013  -0.254   0.938  0.00  0.00    +0.004 C 
ATOM     34  C   UNL     1      -0.474  -1.647   0.610  0.00  0.00    -0.002 C 
ENDBRANCH  32  34
ENDBRANCH  31  32
ENDBRANCH   1  31
TORSDOF 5
