REMARK  Name = ZINC05348940
REMARK  11 active torsions:
REMARK  status: ('A' for Active; 'I' for Inactive)
REMARK    1  A    between atoms: C_1  and  C_2
REMARK    2  A    between atoms: C_2  and  N_58
REMARK    3  A    between atoms: C_3  and  C_4
REMARK    4  A    between atoms: C_3  and  N_58
REMARK    5  A    between atoms: C_5  and  C_6
REMARK    6  A    between atoms: C_5  and  N_58
REMARK    7  A    between atoms: C_6  and  N_7
REMARK    8  A    between atoms: C_13  and  C_23
REMARK    9  A    between atoms: C_18  and  O_22
REMARK   10  A    between atoms: C_26  and  O_29
REMARK   11  A    between atoms: O_29  and  C_30
REMARK                            x       y       z     vdW  Elec       q    Type
REMARK                         _______ _______ _______ _____ _____    ______ ____
ROOT
ATOM      1  N   UNL     1       0.587   0.453  -0.000  0.00  0.00    -0.320 N 
ATOM      2  C   UNL     1       1.922   0.210  -0.026  0.00  0.00    +0.204 A 
ATOM      3  N   UNL     1       2.790   1.180  -0.023  0.00  0.00    -0.202 NA
ATOM      4  C   UNL     1       2.419   2.474   0.003  0.00  0.00    +0.229 A 
ATOM      5  C   UNL     1       1.097   2.799   0.031  0.00  0.00    +0.066 A 
ATOM      6  C   UNL     1       0.137   1.759   0.031  0.00  0.00    +0.115 A 
ATOM      7  C   UNL     1       0.641   4.230   0.059  0.00  0.00    +0.091 C 
ATOM      8  C   UNL     1       1.773   5.134   0.468  0.00  0.00    +0.007 A 
ATOM      9  C   UNL     1       1.497   6.421   0.893  0.00  0.00    +0.012 A 
ATOM     10  C   UNL     1       2.523   7.264   1.271  0.00  0.00    +0.046 A 
ATOM     11  C   UNL     1       3.838   6.820   1.225  0.00  0.00    +0.120 A 
ATOM     12  C   UNL     1       4.117   5.532   0.800  0.00  0.00    +0.092 A 
ATOM     13  C   UNL     1       3.083   4.685   0.418  0.00  0.00    +0.138 A 
ATOM     14  O   UNL     1       3.373   3.430   0.000  0.00  0.00    -0.437 OA
ATOM     15  H   UNL     1      -1.876   1.375   0.052  0.00  0.00    +0.157 HD
ATOM     16  N   UNL     1      -1.157   2.100   0.056  0.00  0.00    -0.384 N 
ATOM     17  H   UNL     1      -1.427   3.090   0.078  0.00  0.00    +0.157 HD
ENDROOT
BRANCH   7  18
ATOM     18  C   UNL     1       0.158   4.626  -1.313  0.00  0.00    -0.035 A 
ATOM     19  C   UNL     1       1.022   4.573  -2.391  0.00  0.00    +0.008 A 
ATOM     20  C   UNL     1       0.580   4.930  -3.650  0.00  0.00    +0.046 A 
ATOM     21  C   UNL     1      -0.729   5.353  -3.830  0.00  0.00    +0.120 A 
ATOM     22  C   UNL     1      -1.593   5.411  -2.746  0.00  0.00    +0.046 A 
ATOM     23  C   UNL     1      -1.147   5.047  -1.490  0.00  0.00    +0.008 A 
BRANCH  21  24
ATOM     24  O   UNL     1      -1.165   5.711  -5.067  0.00  0.00    -0.495 OA
ATOM     25  C   UNL     1      -0.221   5.627  -6.137  0.00  0.00    +0.277 C 
ENDBRANCH  21  24
ENDBRANCH   7  18
BRANCH  11  26
ATOM     26  O   UNL     1       4.849   7.648   1.598  0.00  0.00    -0.507 OA
ATOM     27  H   UNL     1       5.073   7.598   2.537  0.00  0.00    +0.292 HD
ENDBRANCH  11  26
BRANCH   1  28
ATOM     28  C   UNL     1      -0.367  -0.658  -0.005  0.00  0.00    +0.106 C 
BRANCH  28  29
ATOM     29  C   UNL     1      -0.817  -0.937  -1.441  0.00  0.00    -0.057 C 
BRANCH  29  30
ATOM     30  N   UNL     1      -1.665  -2.148  -1.445  0.00  0.00    +0.380 N 
ATOM     31  H   UNL     1      -1.246  -2.851  -0.825  0.00  0.00    -0.082 HD
BRANCH  30  33
ATOM     32  C   UNL     1      -3.801  -3.118  -0.752  0.00  0.00    -0.017 C 
ATOM     33  C   UNL     1      -3.018  -1.819  -0.949  0.00  0.00    -0.082 C 
ENDBRANCH  30  33
BRANCH  30  34
ATOM     34  C   UNL     1      -1.749  -2.702  -2.812  0.00  0.00    -0.082 C 
ATOM     35  C   UNL     1      -0.449  -3.448  -3.120  0.00  0.00    -0.017 C 
ENDBRANCH  30  34
ENDBRANCH  29  30
ENDBRANCH  28  29
ENDBRANCH   1  28
TORSDOF 8
