REMARK  Name = ZINC09075551
REMARK  11 active torsions:
REMARK  status: ('A' for Active; 'I' for Inactive)
REMARK    1  A    between atoms: C_1  and  C_2
REMARK    2  A    between atoms: C_2  and  C_3
REMARK    3  A    between atoms: C_8  and  C_28
REMARK    4  A    between atoms: C_9  and  C_23
REMARK    5  A    between atoms: C_12  and  C_15
REMARK    6  A    between atoms: C_13  and  O_14
REMARK    7  A    between atoms: C_15  and  N_70
REMARK    8  A    between atoms: C_20  and  C_22
REMARK    9  A    between atoms: C_23  and  O_25
REMARK   10  A    between atoms: O_25  and  C_26
REMARK   11  A    between atoms: C_26  and  C_27
REMARK                            x       y       z     vdW  Elec       q    Type
REMARK                         _______ _______ _______ _____ _____    ______ ____
ROOT
ATOM      1  C   UNL     1      -6.993  -3.797  -1.968  0.00  0.00    -0.005 A 
ATOM      2  C   UNL     1      -5.797  -3.149  -2.083  0.00  0.00    +0.022 A 
ATOM      3  C   UNL     1      -5.348  -2.333  -1.043  0.00  0.00    +0.065 A 
ATOM      4  C   UNL     1      -4.065  -1.616  -1.139  0.00  0.00    +0.201 A 
ATOM      5  O   UNL     1      -3.355  -1.710  -2.124  0.00  0.00    -0.286 OA
ATOM      6  C   UNL     1      -3.677  -0.781   0.019  0.00  0.00    +0.079 A 
ATOM      7  C   UNL     1      -4.532  -0.716   1.098  0.00  0.00    +0.223 A 
ATOM      8  O   UNL     1      -5.694  -1.388   1.129  0.00  0.00    -0.447 OA
ATOM      9  C   UNL     1      -6.122  -2.175   0.122  0.00  0.00    +0.144 A 
ATOM     10  C   UNL     1      -7.336  -2.842   0.221  0.00  0.00    +0.021 A 
ATOM     11  C   UNL     1      -7.767  -3.647  -0.819  0.00  0.00    +0.125 A 
ENDROOT
BRANCH   6  12
ATOM     12  C   UNL     1      -2.404  -0.028   0.016  0.00  0.00    -0.007 A 
ATOM     13  C   UNL     1      -2.417   1.368   0.026  0.00  0.00    +0.012 A 
ATOM     14  C   UNL     1      -1.229   2.067   0.019  0.00  0.00    +0.050 A 
ATOM     15  C   UNL     1      -0.017   1.388   0.010  0.00  0.00    +0.162 A 
ATOM     16  C   UNL     1       0.002  -0.004   0.002  0.00  0.00    +0.163 A 
ATOM     17  C   UNL     1      -1.187  -0.711   0.004  0.00  0.00    +0.058 A 
ATOM     18  O   UNL     1       1.181  -0.684  -0.007  0.00  0.00    -0.485 OA
ATOM     19  C   UNL     1       2.347   0.054  -0.387  0.00  0.00    +0.270 C 
ATOM     20  C   UNL     1       2.334   1.392   0.365  0.00  0.00    +0.270 C 
ATOM     21  O   UNL     1       1.143   2.099   0.002  0.00  0.00    -0.485 OA
ENDBRANCH   6  12
BRANCH   1  23
ATOM     22  C   UNL     1      -8.415  -3.877  -3.999  0.00  0.00    +0.009 C 
ATOM     23  C   UNL     1      -7.479  -4.678  -3.090  0.00  0.00    +0.035 C 
ENDBRANCH   1  23
BRANCH  11  24
ATOM     24  O   UNL     1      -8.954  -4.298  -0.718  0.00  0.00    -0.506 OA
ATOM     25  H   UNL     1      -8.888  -5.178  -0.323  0.00  0.00    +0.292 HD
ENDBRANCH  11  24
BRANCH   7  26
ATOM     26  C   UNL     1      -4.159   0.118   2.255  0.00  0.00    +0.376 C 
ATOM     27  O   UNL     1      -3.112   0.735   2.247  0.00  0.00    -0.241 OA
BRANCH  26  28
ATOM     28  O   UNL     1      -4.980   0.197   3.321  0.00  0.00    -0.459 OA
BRANCH  28  29
ATOM     29  C   UNL     1      -4.549   1.037   4.424  0.00  0.00    +0.229 C 
ATOM     30  C   UNL     1      -5.601   1.001   5.534  0.00  0.00    +0.048 C 
ENDBRANCH  28  29
ENDBRANCH  26  28
ENDBRANCH   7  26
BRANCH  10  31
ATOM     31  C   UNL     1      -8.182  -2.689   1.459  0.00  0.00    -0.035 C 
BRANCH  31  38
ATOM     32  C   UNL     1      -9.744  -1.593  -0.031  0.00  0.00    -0.078 C 
ATOM     33  C   UNL     1     -10.577  -0.324  -0.230  0.00  0.00    -0.019 C 
ATOM     34  C   UNL     1     -11.635  -0.237   0.873  0.00  0.00    -0.003 C 
ATOM     35  C   UNL     1     -10.941  -0.248   2.238  0.00  0.00    -0.016 C 
ATOM     36  C   UNL     1     -10.097  -1.518   2.365  0.00  0.00    -0.071 C 
ATOM     37  C   UNL     1      -9.386  -1.524   3.720  0.00  0.00    -0.013 C 
ATOM     38  N   UNL     1      -9.083  -1.530   1.290  0.00  0.00    +0.384 N 
ATOM     39  H   UNL     1      -8.529  -0.667   1.345  0.00  0.00    -0.081 HD
ENDBRANCH  31  38
ENDBRANCH  10  31
TORSDOF 8
