REMARK  Name = ZINC09603244
REMARK  8 active torsions:
REMARK  status: ('A' for Active; 'I' for Inactive)
REMARK    1  A    between atoms: C_1  and  N_2
REMARK    2  A    between atoms: N_2  and  C_3
REMARK    3  A    between atoms: C_4  and  N_19
REMARK    4  A    between atoms: N_5  and  C_12
REMARK    5  A    between atoms: C_12  and  C_13
REMARK    6  A    between atoms: C_20  and  C_22
REMARK    7  A    between atoms: C_26  and  S_28
REMARK    8  A    between atoms: S_28  and  N_31
REMARK                            x       y       z     vdW  Elec       q    Type
REMARK                         _______ _______ _______ _____ _____    ______ ____
ROOT
ATOM      1  C   UNL     1      -5.820   3.409   4.430  0.00  0.00    +0.140 A 
ATOM      2  C   UNL     1      -6.409   4.587   4.843  0.00  0.00    +0.128 A 
ATOM      3  N   UNL     1      -7.782   4.673   4.883  0.00  0.00    -0.276 N 
ATOM      4  C   UNL     1      -8.540   3.619   4.530  0.00  0.00    +0.331 A 
ATOM      5  O   UNL     1      -9.752   3.713   4.576  0.00  0.00    -0.246 OA
ATOM      6  N   UNL     1      -7.983   2.462   4.129  0.00  0.00    -0.273 N 
ATOM      7  H   UNL     1      -8.570   1.694   3.873  0.00  0.00    +0.173 HD
ATOM      8  C   UNL     1      -6.644   2.327   4.069  0.00  0.00    +0.277 A 
ATOM      9  O   UNL     1      -6.149   1.274   3.704  0.00  0.00    -0.266 OA
ENDROOT
BRANCH   1  11
ATOM     10  C   UNL     1      -3.612   3.542   5.574  0.00  0.00    +0.139 C 
ATOM     11  N   UNL     1      -4.415   3.291   4.375  0.00  0.00    -0.263 N 
ATOM     12  C   UNL     1      -3.813   2.947   3.220  0.00  0.00    +0.251 C 
ATOM     13  O   UNL     1      -2.613   2.749   3.195  0.00  0.00    -0.270 OA
BRANCH  12  14
ATOM     14  C   UNL     1      -4.610   2.810   1.982  0.00  0.00    +0.039 A 
ATOM     15  C   UNL     1      -5.847   3.447   1.871  0.00  0.00    +0.013 A 
ATOM     16  C   UNL     1      -6.586   3.315   0.714  0.00  0.00    +0.003 A 
ATOM     17  C   UNL     1      -6.104   2.554  -0.336  0.00  0.00    +0.028 A 
ATOM     18  C   UNL     1      -4.879   1.919  -0.232  0.00  0.00    +0.106 A 
ATOM     19  C   UNL     1      -4.132   2.039   0.922  0.00  0.00    +0.041 A 
BRANCH  18  20
ATOM     20  S   UNL     1      -4.274   0.951  -1.574  0.00  0.00    +0.061 S 
ATOM     21  O   UNL     1      -5.409   0.548  -2.328  0.00  0.00    -0.153 OA
ATOM     22  O   UNL     1      -3.356   0.018  -1.021  0.00  0.00    -0.153 OA
BRANCH  20  23
ATOM     23  N   UNL     1      -3.393   1.961  -2.548  0.00  0.00    -0.177 NA
ATOM     24  C   UNL     1      -3.921   2.732  -3.683  0.00  0.00    +0.109 C 
ATOM     25  C   UNL     1      -2.737   3.504  -4.303  0.00  0.00    +0.018 C 
ATOM     26  C   UNL     1      -1.507   2.680  -3.840  0.00  0.00    +0.018 C 
ATOM     27  C   UNL     1      -1.949   2.230  -2.425  0.00  0.00    +0.109 C 
ENDBRANCH  20  23
ENDBRANCH  18  20
ENDBRANCH  12  14
ENDBRANCH   1  11
BRANCH   2  28
ATOM     28  N   UNL     1      -5.635   5.662   5.208  0.00  0.00    -0.343 N 
ATOM     29  H   UNL     1      -4.678   5.646   5.048  0.00  0.00    +0.144 HD
ATOM     30  H   UNL     1      -6.044   6.435   5.625  0.00  0.00    +0.144 HD
ENDBRANCH   2  28
BRANCH   3  31
ATOM     31  C   UNL     1      -8.421   5.917   5.316  0.00  0.00    +0.163 C 
BRANCH  31  32
ATOM     32  C   UNL     1      -8.625   5.884   6.809  0.00  0.00    -0.028 A 
ATOM     33  C   UNL     1      -9.798   5.376   7.335  0.00  0.00    +0.005 A 
ATOM     34  C   UNL     1      -9.983   5.341   8.704  0.00  0.00    +0.000 A 
ATOM     35  C   UNL     1      -9.000   5.824   9.547  0.00  0.00    +0.000 A 
ATOM     36  C   UNL     1      -7.829   6.337   9.021  0.00  0.00    +0.000 A 
ATOM     37  C   UNL     1      -7.642   6.367   7.652  0.00  0.00    +0.005 A 
ENDBRANCH  31  32
ENDBRANCH   3  31
TORSDOF 7
