REMARK  Name = ZINC13139991
REMARK  7 active torsions:
REMARK  status: ('A' for Active; 'I' for Inactive)
REMARK    1  A    between atoms: C_1  and  C_2
REMARK    2  A    between atoms: C_2  and  C_3
REMARK    3  A    between atoms: C_3  and  C_29
REMARK    4  A    between atoms: C_8  and  C_10
REMARK    5  A    between atoms: C_15  and  O_16
REMARK    6  A    between atoms: N_19  and  C_22
REMARK    7  A    between atoms: C_22  and  C_23
REMARK                            x       y       z     vdW  Elec       q    Type
REMARK                         _______ _______ _______ _____ _____    ______ ____
ROOT
ATOM      1  C   UNL     1      -1.117   1.478  -0.674  0.00  0.00    +0.048 C 
ATOM      2  C   UNL     1       0.062   1.038   0.084  0.00  0.00    +0.086 C 
ATOM      3  C   UNL     1      -0.354   1.344   1.578  0.00  0.00    +0.077 C 
ATOM      4  C   UNL     1      -1.723   0.653   1.511  0.00  0.00    -0.023 C 
ATOM      5  C   UNL     1       0.800   0.613   2.210  0.00  0.00    +0.225 C 
ATOM      6  O   UNL     1       0.787  -0.017   3.246  0.00  0.00    -0.275 OA
ATOM      7  N   UNL     1       1.864   0.804   1.376  0.00  0.00    -0.237 N 
ATOM      8  C   UNL     1       1.491   1.245   0.131  0.00  0.00    +0.225 C 
ATOM      9  O   UNL     1       2.202   1.706  -0.736  0.00  0.00    -0.275 OA
ATOM     10  N   UNL     1      -2.263   1.141   0.210  0.00  0.00    +0.396 N 
ATOM     11  H   UNL     1      -2.833   0.407  -0.226  0.00  0.00    -0.083 HD
ATOM     12  H   UNL     1      -2.840   1.976   0.365  0.00  0.00    -0.083 HD
ENDROOT
BRANCH   4  13
ATOM     13  C   UNL     1      -2.597   1.089   2.659  0.00  0.00    -0.019 A 
ATOM     14  C   UNL     1      -2.271   2.217   3.387  0.00  0.00    +0.005 A 
ATOM     15  C   UNL     1      -3.072   2.616   4.441  0.00  0.00    +0.000 A 
ATOM     16  C   UNL     1      -4.202   1.889   4.768  0.00  0.00    +0.004 A 
ATOM     17  C   UNL     1      -4.532   0.761   4.043  0.00  0.00    +0.045 A 
ATOM     18  C   UNL     1      -3.732   0.360   2.982  0.00  0.00    +0.118 A 
BRANCH  18  19
ATOM     19  O   UNL     1      -4.058  -0.746   2.264  0.00  0.00    -0.507 OA
ATOM     20  H   UNL     1      -3.741  -1.574   2.650  0.00  0.00    +0.292 HD
ENDBRANCH  18  19
ENDBRANCH   4  13
BRANCH   1  21
ATOM     21  C   UNL     1      -1.047   2.959  -0.944  0.00  0.00    +0.346 C 
ATOM     22  O   UNL     1       0.024   3.518  -0.973  0.00  0.00    -0.248 OA
ATOM     23  O   UNL     1      -2.175   3.657  -1.153  0.00  0.00    -0.248 OA
ENDBRANCH   1  21
BRANCH   1  25
ATOM     24  C   UNL     1      -2.466   1.174  -2.755  0.00  0.00    +0.003 C 
ATOM     25  C   UNL     1      -1.232   0.699  -1.986  0.00  0.00    -0.004 C 
ENDBRANCH   1  25
BRANCH   7  26
ATOM     26  C   UNL     1       3.256   0.567   1.769  0.00  0.00    +0.151 C 
BRANCH  26  27
ATOM     27  C   UNL     1       3.837   1.831   2.349  0.00  0.00    -0.030 A 
ATOM     28  C   UNL     1       4.473   2.740   1.524  0.00  0.00    +0.005 A 
ATOM     29  C   UNL     1       5.003   3.901   2.055  0.00  0.00    +0.000 A 
ATOM     30  C   UNL     1       4.905   4.149   3.411  0.00  0.00    +0.000 A 
ATOM     31  C   UNL     1       4.273   3.237   4.236  0.00  0.00    +0.000 A 
ATOM     32  C   UNL     1       3.739   2.078   3.705  0.00  0.00    +0.005 A 
ENDBRANCH  26  27
ENDBRANCH   7  26
TORSDOF 6
