REMARK  Name = ZINC21841246
REMARK  9 active torsions:
REMARK  status: ('A' for Active; 'I' for Inactive)
REMARK    1  A    between atoms: C_1  and  C_2
REMARK    2  A    between atoms: C_3  and  C_14
REMARK    3  A    between atoms: N_5  and  C_7
REMARK    4  A    between atoms: C_14  and  N_15
REMARK    5  A    between atoms: N_15  and  C_16
REMARK    6  A    between atoms: C_18  and  C_24
REMARK    7  A    between atoms: C_18  and  C_25
REMARK    8  A    between atoms: C_20  and  C_22
REMARK    9  A    between atoms: C_20  and  C_23
REMARK                            x       y       z     vdW  Elec       q    Type
REMARK                         _______ _______ _______ _____ _____    ______ ____
ROOT
ATOM      1  C   UNL     1       0.026   5.553  -2.553  0.00  0.00    +0.121 C 
ENDROOT
BRANCH   1   4
ATOM      2  C   UNL     1      -2.453   7.413  -1.903  0.00  0.00    +0.068 C 
ATOM      3  C   UNL     1      -1.065   7.883  -2.256  0.00  0.00    +0.066 A 
ATOM      4  C   UNL     1       0.029   7.060  -2.543  0.00  0.00    +0.026 A 
ATOM      5  C   UNL     1       1.091   7.856  -2.816  0.00  0.00    +0.137 A 
ATOM      6  N   UNL     1       0.678   9.145  -2.699  0.00  0.00    -0.221 N 
ATOM      7  N   UNL     1      -0.677   9.130  -2.344  0.00  0.00    -0.170 NA
ATOM      8 CL   UNL     1       2.689   7.326  -3.237  0.00  0.00    -0.062 Cl
BRANCH   6   9
ATOM      9  C   UNL     1       1.467  10.286  -2.898  0.00  0.00    +0.067 A 
ATOM     10  C   UNL     1       2.806  10.279  -2.531  0.00  0.00    +0.028 A 
ATOM     11  C   UNL     1       3.582  11.403  -2.733  0.00  0.00    +0.002 A 
ATOM     12  C   UNL     1       3.024  12.539  -3.290  0.00  0.00    +0.000 A 
ATOM     13  C   UNL     1       1.690  12.551  -3.652  0.00  0.00    +0.002 A 
ATOM     14  C   UNL     1       0.909  11.428  -3.457  0.00  0.00    +0.028 A 
ENDBRANCH   6   9
ENDBRANCH   1   4
BRANCH   1  15
ATOM     15  N   UNL     1       0.376   5.054  -1.216  0.00  0.00    -0.309 NA
ATOM     16  H   UNL     1       1.377   5.417  -0.940  0.00  0.00    +0.123 HD
BRANCH  15  17
ATOM     17  C   UNL     1       0.383   3.582  -1.188  0.00  0.00    +0.051 C 
ATOM     18  C   UNL     1       1.307   3.104  -0.068  0.00  0.00    +0.006 C 
ATOM     19  C   UNL     1       1.318   1.579  -0.002  0.00  0.00    -0.072 C 
ATOM     20  N   UNL     1      -0.012   1.005   0.008  0.00  0.00    +0.386 N 
ATOM     21  C   UNL     1      -1.049   1.551  -0.842  0.00  0.00    -0.072 C 
ATOM     22  C   UNL     1      -1.030   3.077  -0.900  0.00  0.00    +0.006 C 
ATOM     23  C   UNL     1      -0.958   0.983  -2.263  0.00  0.00    -0.010 C 
ATOM     24  C   UNL     1      -2.418   1.125  -0.266  0.00  0.00    -0.010 C 
ATOM     25  C   UNL     1       2.027   1.175   1.309  0.00  0.00    -0.010 C 
ATOM     26  C   UNL     1       2.153   1.022  -1.161  0.00  0.00    -0.010 C 
ATOM     27  H   UNL     1       0.043  -0.052  -0.292  0.00  0.00    -0.084 HD
ATOM     28  H   UNL     1      -0.435   1.078   1.020  0.00  0.00    -0.084 HD
ENDBRANCH  15  17
ENDBRANCH   1  15
TORSDOF 4
