REMARK  Name = ZINC36026051
REMARK  10 active torsions:
REMARK  status: ('A' for Active; 'I' for Inactive)
REMARK    1  A    between atoms: C_1  and  C_2
REMARK    2  A    between atoms: C_2  and  O_3
REMARK    3  A    between atoms: O_3  and  C_4
REMARK    4  A    between atoms: C_4  and  C_6
REMARK    5  A    between atoms: C_7  and  C_25
REMARK    6  A    between atoms: N_8  and  C_22
REMARK    7  A    between atoms: C_12  and  C_14
REMARK    8  A    between atoms: C_22  and  C_23
REMARK    9  A    between atoms: C_25  and  N_26
REMARK   10  A    between atoms: C_32  and  C_34
REMARK                            x       y       z     vdW  Elec       q    Type
REMARK                         _______ _______ _______ _____ _____    ______ ____
ROOT
ATOM      1  C   UNL     1       1.604  -2.243  -2.904  0.00  0.00    +0.080 C 
ATOM      2  C   UNL     1       1.871  -3.556  -3.070  0.00  0.00    +0.041 C 
ATOM      3  N   UNL     1       2.706  -3.986  -4.061  0.00  0.00    -0.254 N 
ATOM      4  C   UNL     1       3.315  -3.165  -4.927  0.00  0.00    +0.307 C 
ATOM      5  O   UNL     1       4.042  -3.641  -5.777  0.00  0.00    -0.252 OA
ATOM      6  N   UNL     1       3.147  -1.828  -4.887  0.00  0.00    -0.288 N 
ATOM      7  C   UNL     1       2.258  -1.264  -3.857  0.00  0.00    +0.145 C 
ATOM      8  H   UNL     1       3.598  -1.252  -5.524  0.00  0.00    +0.151 HD
ENDROOT
BRANCH   7   9
ATOM      9  C   UNL     1       1.167  -0.491  -4.552  0.00  0.00    -0.004 A 
ATOM     10  C   UNL     1       0.659  -0.942  -5.756  0.00  0.00    +0.008 A 
ATOM     11  C   UNL     1      -0.342  -0.234  -6.393  0.00  0.00    +0.020 A 
ATOM     12  C   UNL     1      -0.838   0.927  -5.826  0.00  0.00    +0.042 A 
ATOM     13  C   UNL     1      -0.331   1.378  -4.621  0.00  0.00    +0.040 A 
ATOM     14  C   UNL     1       0.668   0.666  -3.981  0.00  0.00    +0.048 A 
ATOM     15 CL   UNL     1       1.301   1.229  -2.465  0.00  0.00    -0.083 Cl
ATOM     16 CL   UNL     1      -2.095   1.817  -6.627  0.00  0.00    -0.083 Cl
ENDBRANCH   7   9
BRANCH   1  17
ATOM     17  C   UNL     1       0.738  -1.797  -1.878  0.00  0.00    +0.339 C 
ATOM     18  O   UNL     1       1.199  -1.358  -0.841  0.00  0.00    -0.245 OA
BRANCH  17  19
ATOM     19  O   UNL     1      -0.599  -1.858  -2.049  0.00  0.00    -0.462 OA
BRANCH  19  21
ATOM     20  C   UNL     1      -2.889  -1.537  -1.347  0.00  0.00    +0.048 C 
ATOM     21  C   UNL     1      -1.413  -1.390  -0.972  0.00  0.00    +0.229 C 
ENDBRANCH  19  21
ENDBRANCH  17  19
ENDBRANCH   1  17
BRANCH   3  22
ATOM     22  C   UNL     1       2.951  -5.425  -4.184  0.00  0.00    +0.141 C 
BRANCH  22  23
ATOM     23  C   UNL     1       2.001  -6.011  -5.196  0.00  0.00    -0.015 C 
ATOM     24  C   UNL     1       2.467  -6.666  -6.230  0.00  0.00    +0.005 C 
ENDBRANCH  22  23
ENDBRANCH   3  22
BRANCH   2  25
ATOM     25  C   UNL     1       1.236  -4.564  -2.147  0.00  0.00    +0.136 C 
BRANCH  25  26
ATOM     26  N   UNL     1       2.276  -5.197  -1.324  0.00  0.00    -0.294 NA
ATOM     27  C   UNL     1       2.803  -4.256  -0.327  0.00  0.00    +0.104 C 
ATOM     28  C   UNL     1       4.002  -4.890   0.386  0.00  0.00    +0.123 C 
ATOM     29  N   UNL     1       3.590  -6.197   0.920  0.00  0.00    -0.299 N 
ATOM     30  C   UNL     1       2.929  -7.144   0.010  0.00  0.00    +0.123 C 
ATOM     31  C   UNL     1       1.772  -6.421  -0.688  0.00  0.00    +0.104 C 
ATOM     32  C   UNL     1       3.813  -6.518   2.210  0.00  0.00    +0.219 C 
ATOM     33  O   UNL     1       4.361  -5.725   2.947  0.00  0.00    -0.275 OA
BRANCH  32  34
ATOM     34  C   UNL     1       3.383  -7.863   2.737  0.00  0.00    +0.075 C 
ATOM     35  C   UNL     1       2.233  -7.892   3.745  0.00  0.00    +0.013 C 
ATOM     36  C   UNL     1       3.665  -8.168   4.209  0.00  0.00    +0.013 C 
ENDBRANCH  32  34
ENDBRANCH  25  26
ENDBRANCH   2  25
TORSDOF 9
