REMARK  Name = ZINC06894880
REMARK  5 active torsions:
REMARK  status: ('A' for Active; 'I' for Inactive)
REMARK    1  A    between atoms: C_1  and  C_2
REMARK    2  A    between atoms: C_2  and  C_4
REMARK    3  A    between atoms: C_8  and  N_10
REMARK    4  A    between atoms: C_11  and  C_13
REMARK    5  A    between atoms: N_28  and  C_31
REMARK                            x       y       z     vdW  Elec       q    Type
REMARK                         _______ _______ _______ _____ _____    ______ ____
ROOT
ATOM      1  C   UNL     1       2.977   0.516   1.230  0.00  0.00    +0.076 C 
ATOM      2  C   UNL     1       3.893  -0.604   0.701  0.00  0.00    -0.003 C 
ATOM      3  C   UNL     1       4.050  -0.340  -0.808  0.00  0.00    -0.066 C 
ATOM      4  C   UNL     1       3.799  -1.657  -1.568  0.00  0.00    -0.017 C 
ATOM      5  C   UNL     1       2.477  -1.437  -2.338  0.00  0.00    -0.020 C 
ATOM      6  C   UNL     1       1.805  -0.283  -1.551  0.00  0.00    -0.077 C 
ATOM      7  C   UNL     1       2.642   1.378   0.010  0.00  0.00    +0.052 C 
ATOM      8  C   UNL     1       1.199   1.807   0.029  0.00  0.00    -0.027 A 
ATOM      9  C   UNL     1       0.008   1.116   0.026  0.00  0.00    +0.004 A 
ATOM     10  C   UNL     1      -1.192   1.805   0.042  0.00  0.00    +0.000 A 
ATOM     11  C   UNL     1      -1.190   3.188   0.073  0.00  0.00    +0.002 A 
ATOM     12  C   UNL     1       0.000   3.884   0.076  0.00  0.00    +0.024 A 
ATOM     13  C   UNL     1       1.213   3.198   0.055  0.00  0.00    +0.038 A 
ATOM     14  N   UNL     1       2.527   3.668   0.054  0.00  0.00    -0.275 N 
ATOM     15  C   UNL     1       3.425   2.666   0.028  0.00  0.00    +0.214 C 
ATOM     16  O   UNL     1       4.633   2.777   0.022  0.00  0.00    -0.276 OA
ATOM     17  C   UNL     1       2.887   5.088   0.077  0.00  0.00    +0.138 C 
ATOM     18  N   UNL     1       2.964   0.549  -1.166  0.00  0.00    +0.394 N 
ATOM     19  H   UNL     1       3.238   1.151  -1.952  0.00  0.00    -0.079 HD
ENDROOT
BRANCH   1  21
ATOM     20  N   UNL     1       1.087   0.557   2.825  0.00  0.00    -0.285 N 
ATOM     21  C   UNL     1       1.719  -0.072   1.815  0.00  0.00    +0.220 C 
ATOM     22  O   UNL     1       1.275  -1.113   1.377  0.00  0.00    -0.275 OA
ATOM     23  H   UNL     1       1.394   1.429   3.121  0.00  0.00    +0.155 HD
BRANCH  20  28
ATOM     24  C   UNL     1      -2.157   0.128   4.527  0.00  0.00    +0.019 A 
ATOM     25  C   UNL     1      -2.186  -1.263   4.678  0.00  0.00    +0.011 A 
ATOM     26  C   UNL     1      -1.136  -2.028   4.215  0.00  0.00    +0.002 A 
ATOM     27  C   UNL     1      -0.052  -1.426   3.602  0.00  0.00    +0.023 A 
ATOM     28  C   UNL     1      -0.013  -0.045   3.447  0.00  0.00    +0.034 A 
ATOM     29  C   UNL     1      -1.059   0.735   3.912  0.00  0.00    +0.034 A 
BRANCH  24  31
ATOM     30  C   UNL     1      -4.455   0.290   5.688  0.00  0.00    +0.091 C 
ATOM     31  C   UNL     1      -3.275   0.948   5.020  0.00  0.00    +0.160 C 
ATOM     32  O   UNL     1      -3.248   2.153   4.888  0.00  0.00    -0.292 OA
ENDBRANCH  24  31
ENDBRANCH  20  28
ENDBRANCH   1  21
TORSDOF 3
