REMARK  Name = ZINC40428529
REMARK  4 active torsions:
REMARK  status: ('A' for Active; 'I' for Inactive)
REMARK    1  A    between atoms: C_1  and  C_2
REMARK    2  A    between atoms: C_4  and  O_10
REMARK    3  A    between atoms: C_5  and  N_9
REMARK    4  A    between atoms: O_10  and  C_11
REMARK                            x       y       z     vdW  Elec       q    Type
REMARK                         _______ _______ _______ _____ _____    ______ ____
ROOT
ATOM      1  C   UNL     1       4.720  -3.026  -3.095  0.00  0.00    +0.088 C 
ATOM      2  C   UNL     1       3.489  -3.333  -2.281  0.00  0.00    +0.132 A 
ATOM      3  N   UNL     1       2.326  -2.855  -2.675  0.00  0.00    -0.196 NA
ATOM      4  C   UNL     1       1.219  -3.104  -1.986  0.00  0.00    +0.246 A 
ATOM      5  C   UNL     1       1.305  -3.884  -0.828  0.00  0.00    +0.125 A 
ATOM      6  C   UNL     1       2.553  -4.366  -0.451  0.00  0.00    +0.157 A 
ATOM      7  N   UNL     1       3.608  -4.076  -1.200  0.00  0.00    -0.219 NA
ATOM      8 CL   UNL     1       2.726  -5.340   0.976  0.00  0.00    -0.060 Cl
ENDROOT
BRANCH   5   9
ATOM      9  N   UNL     1       0.164  -4.172  -0.068  0.00  0.00    -0.351 N 
ATOM     10  H   UNL     1      -0.701  -3.828  -0.343  0.00  0.00    +0.143 HD
ATOM     11  H   UNL     1       0.238  -4.714   0.732  0.00  0.00    +0.143 HD
ENDBRANCH   5   9
BRANCH   4  12
ATOM     12  O   UNL     1       0.025  -2.609  -2.397  0.00  0.00    -0.436 OA
BRANCH  12  13
ATOM     13  C   UNL     1       0.016  -1.773  -3.467  0.00  0.00    +0.138 A 
ATOM     14  C   UNL     1       0.063  -0.408  -3.285  0.00  0.00    +0.047 A 
ATOM     15  C   UNL     1       0.053   0.457  -4.376  0.00  0.00    +0.004 A 
ATOM     16  C   UNL     1      -0.002  -0.017  -5.651  0.00  0.00    +0.010 A 
ATOM     17  C   UNL     1      -0.051  -1.401  -5.879  0.00  0.00    +0.004 A 
ATOM     18  C   UNL     1      -0.036  -2.291  -4.774  0.00  0.00    +0.027 A 
ATOM     19  C   UNL     1      -0.080  -3.672  -5.030  0.00  0.00    +0.032 A 
ATOM     20  C   UNL     1      -0.129  -4.096  -6.324  0.00  0.00    +0.111 A 
ATOM     21  N   UNL     1      -0.136  -3.243  -7.340  0.00  0.00    -0.263 NA
ATOM     22  C   UNL     1      -0.109  -1.941  -7.174  0.00  0.00    +0.119 A 
ENDBRANCH  12  13
ENDBRANCH   4  12
TORSDOF 3
