REMARK  Name = ZINC13072548
REMARK  5 active torsions:
REMARK  status: ('A' for Active; 'I' for Inactive)
REMARK    1  A    between atoms: C_1  and  C_2
REMARK    2  A    between atoms: C_2  and  C_29
REMARK    3  A    between atoms: C_13  and  C_15
REMARK    4  A    between atoms: C_15  and  S_16
REMARK    5  A    between atoms: S_16  and  C_17
REMARK                            x       y       z     vdW  Elec       q    Type
REMARK                         _______ _______ _______ _____ _____    ______ ____
ROOT
ATOM      1  C   UNL     1       6.789   7.736   0.250  0.00  0.00    +0.042 C 
ATOM      2  C   UNL     1       5.648   8.647  -0.207  0.00  0.00    +0.113 C 
ATOM      3  C   UNL     1       5.681   9.926   0.583  0.00  0.00    +0.241 C 
ATOM      4  O   UNL     1       6.743  10.359   0.977  0.00  0.00    -0.273 OA
ATOM      5  N   UNL     1       4.545  10.594   0.861  0.00  0.00    -0.282 N 
ATOM      6  C   UNL     1       3.303  10.090   0.462  0.00  0.00    +0.055 A 
ATOM      7  C   UNL     1       2.172  10.890   0.487  0.00  0.00    +0.025 A 
ATOM      8  C   UNL     1       0.951  10.369   0.098  0.00  0.00    +0.002 A 
ATOM      9  C   UNL     1       0.853   9.053  -0.316  0.00  0.00    +0.002 A 
ATOM     10  C   UNL     1       1.977   8.248  -0.346  0.00  0.00    +0.025 A 
ATOM     11  C   UNL     1       3.201   8.763   0.040  0.00  0.00    +0.059 A 
ATOM     12  N   UNL     1       4.361   7.973   0.016  0.00  0.00    -0.255 N 
ATOM     13  C   UNL     1       4.297   6.639   0.198  0.00  0.00    +0.231 C 
ATOM     14  O   UNL     1       5.316   5.983   0.241  0.00  0.00    -0.274 OA
ATOM     15  C   UNL     1       5.809   8.965  -1.695  0.00  0.00    +0.042 C 
ATOM     16  H   UNL     1       4.589  11.434   1.344  0.00  0.00    +0.155 HD
ENDROOT
BRANCH  13  17
ATOM     17  C   UNL     1       2.958   5.962   0.347  0.00  0.00    +0.172 C 
BRANCH  17  18
ATOM     18  S   UNL     1       3.190   4.322   1.077  0.00  0.00    -0.096 S 
BRANCH  18  19
ATOM     19  C   UNL     1       1.516   3.774   1.136  0.00  0.00    +0.109 A 
ATOM     20  C   UNL     1       1.194   2.489   1.655  0.00  0.00    +0.043 A 
ATOM     21  C   UNL     1       2.105   1.465   2.191  0.00  0.00    -0.025 A 
ATOM     22  C   UNL     1       1.547   0.324   2.626  0.00  0.00    -0.004 A 
ATOM     23  S   UNL     1      -0.199   0.529   2.353  0.00  0.00    -0.073 S 
ATOM     24  C   UNL     1      -0.172   2.157   1.653  0.00  0.00    +0.113 A 
ATOM     25  N   UNL     1      -1.084   2.993   1.192  0.00  0.00    -0.228 NA
ATOM     26  C   UNL     1      -0.727   4.174   0.726  0.00  0.00    +0.223 A 
ATOM     27  N   UNL     1       0.538   4.552   0.698  0.00  0.00    -0.229 NA
ATOM     28  C   UNL     1       2.571  -0.644   3.155  0.00  0.00    +0.043 C 
ATOM     29  C   UNL     1       3.830   0.217   3.396  0.00  0.00    +0.010 C 
ATOM     30  C   UNL     1       3.620   1.366   2.391  0.00  0.00    +0.037 C 
ENDBRANCH  18  19
ENDBRANCH  17  18
ENDBRANCH  13  17
TORSDOF 3
