REMARK  Name = ZINC13591292
REMARK  5 active torsions:
REMARK  status: ('A' for Active; 'I' for Inactive)
REMARK    1  A    between atoms: C_1  and  N_2
REMARK    2  A    between atoms: C_8  and  C_18
REMARK    3  A    between atoms: C_13  and  S_15
REMARK    4  A    between atoms: S_15  and  C_16
REMARK    5  A    between atoms: N_30  and  C_33
REMARK                            x       y       z     vdW  Elec       q    Type
REMARK                         _______ _______ _______ _____ _____    ______ ____
ROOT
ATOM      1  C   UNL     1       2.592  -2.516  -0.608  0.00  0.00    +0.143 C 
ATOM      2  N   UNL     1       1.277  -1.947  -0.299  0.00  0.00    -0.224 N 
ATOM      3  C   UNL     1       0.192  -2.748  -0.318  0.00  0.00    +0.260 C 
ATOM      4  O   UNL     1       0.293  -3.931  -0.586  0.00  0.00    -0.269 OA
ATOM      5  C   UNL     1      -1.119  -2.152  -0.004  0.00  0.00    +0.117 C 
ATOM      6  C   UNL     1      -2.274  -2.911  -0.003  0.00  0.00    +0.030 C 
ATOM      7  C   UNL     1      -2.173  -4.406  -0.120  0.00  0.00    +0.083 C 
ATOM      8  C   UNL     1      -3.223  -5.099   0.753  0.00  0.00    +0.148 C 
ATOM      9  N   UNL     1      -4.500  -4.404   0.592  0.00  0.00    -0.224 N 
ATOM     10  C   UNL     1      -4.596  -3.083   0.303  0.00  0.00    +0.219 A 
ATOM     11  N   UNL     1      -5.863  -2.773   0.248  0.00  0.00    -0.187 NA
ATOM     12  C   UNL     1      -6.603  -3.866   0.483  0.00  0.00    +0.210 A 
ATOM     13  N   UNL     1      -5.801  -4.889   0.695  0.00  0.00    -0.141 NA
ATOM     14  N   UNL     1      -3.474  -2.291   0.108  0.00  0.00    -0.286 N 
ATOM     15  C   UNL     1      -1.144  -0.712   0.309  0.00  0.00    +0.260 C 
ATOM     16  O   UNL     1      -2.188  -0.149   0.578  0.00  0.00    -0.269 OA
ATOM     17  N   UNL     1       0.023  -0.035   0.289  0.00  0.00    -0.224 N 
ATOM     18  C   UNL     1       1.181  -0.644  -0.000  0.00  0.00    +0.317 C 
ATOM     19  O   UNL     1       2.198   0.021   0.004  0.00  0.00    -0.252 OA
ATOM     20  C   UNL     1       0.025   1.397   0.596  0.00  0.00    +0.143 C 
ATOM     21  H   UNL     1      -3.546  -1.325   0.051  0.00  0.00    +0.155 HD
ENDROOT
BRANCH   8  22
ATOM     22  C   UNL     1      -3.369  -6.536   0.325  0.00  0.00    +0.002 A 
ATOM     23  C   UNL     1      -3.734  -6.974  -0.891  0.00  0.00    +0.089 A 
ATOM     24  N   UNL     1      -3.757  -8.342  -0.907  0.00  0.00    -0.360 N 
ATOM     25  H   UNL     1      -3.991  -8.886  -1.675  0.00  0.00    +0.165 HD
ATOM     26  C   UNL     1      -3.399  -8.831   0.330  0.00  0.00    +0.047 A 
ATOM     27  C   UNL     1      -3.134  -7.721   1.154  0.00  0.00    +0.005 A 
ATOM     28  C   UNL     1      -2.738  -7.915   2.478  0.00  0.00    +0.010 A 
ATOM     29  C   UNL     1      -2.607  -9.185   2.967  0.00  0.00    +0.001 A 
ATOM     30  C   UNL     1      -2.862 -10.283   2.158  0.00  0.00    +0.002 A 
ATOM     31  C   UNL     1      -3.263 -10.113   0.850  0.00  0.00    +0.026 A 
ENDBRANCH   8  22
BRANCH  12  32
ATOM     32  S   UNL     1      -8.364  -3.925   0.504  0.00  0.00    -0.088 S 
ATOM     33  C   UNL     1      -8.864  -2.219   0.145  0.00  0.00    +0.093 C 
ENDBRANCH  12  32
TORSDOF 2
