REMARK  Name = ZINC66263858
REMARK  7 active torsions:
REMARK  status: ('A' for Active; 'I' for Inactive)
REMARK    1  A    between atoms: C_1  and  C_2
REMARK    2  A    between atoms: C_2  and  C_3
REMARK    3  A    between atoms: C_2  and  C_4
REMARK    4  A    between atoms: C_2  and  C_5
REMARK    5  A    between atoms: N_10  and  C_12
REMARK    6  A    between atoms: C_12  and  C_13
REMARK    7  A    between atoms: N_15  and  C_16
REMARK                            x       y       z     vdW  Elec       q    Type
REMARK                         _______ _______ _______ _____ _____    ______ ____
ROOT
ATOM      1  C   UNL     1       3.756   1.314  -3.765  0.00  0.00    +0.239 C 
ATOM      2  O   UNL     1       4.309   0.709  -2.870  0.00  0.00    -0.273 OA
ATOM      3  N   UNL     1       4.435   2.236  -4.475  0.00  0.00    -0.283 N 
ATOM      4  H   UNL     1       4.013   2.673  -5.232  0.00  0.00    +0.155 HD
ENDROOT
BRANCH   3   5
ATOM      5  C   UNL     1       5.750   2.565  -4.120  0.00  0.00    +0.056 A 
ATOM      6  C   UNL     1       6.597   1.587  -3.612  0.00  0.00    +0.074 A 
ATOM      7  C   UNL     1       7.895   1.918  -3.264  0.00  0.00    +0.164 A 
ATOM      8  C   UNL     1       8.348   3.221  -3.422  0.00  0.00    +0.163 A 
ATOM      9  C   UNL     1       7.505   4.195  -3.927  0.00  0.00    +0.071 A 
ATOM     10  C   UNL     1       6.208   3.866  -4.282  0.00  0.00    +0.066 A 
ATOM     11 CL   UNL     1       5.150   5.084  -4.923  0.00  0.00    -0.082 Cl
ATOM     12  O   UNL     1       9.631   3.534  -3.075  0.00  0.00    -0.488 OA
ATOM     13  C   UNL     1       9.931   3.486  -1.679  0.00  0.00    +0.232 C 
ATOM     14  C   UNL     1      10.280   2.070  -1.250  0.00  0.00    +0.082 C 
ATOM     15  C   UNL     1       9.105   1.115  -1.393  0.00  0.00    +0.232 C 
ATOM     16  O   UNL     1       8.737   0.967  -2.765  0.00  0.00    -0.488 OA
ENDBRANCH   3   5
BRANCH   1  17
ATOM     17  C   UNL     1       2.310   1.033  -4.083  0.00  0.00    +0.243 C 
BRANCH  17  23
ATOM     18  C   UNL     1       0.709  -0.515  -1.258  0.00  0.00    +0.067 A 
ATOM     19  C   UNL     1       0.855  -1.893  -1.487  0.00  0.00    +0.031 A 
ATOM     20  C   UNL     1       1.507  -2.296  -2.617  0.00  0.00    +0.073 A 
ATOM     21  C   UNL     1       1.995  -1.297  -3.488  0.00  0.00    +0.268 A 
ATOM     22  O   UNL     1       2.584  -1.605  -4.511  0.00  0.00    -0.266 OA
ATOM     23  N   UNL     1       1.802  -0.001  -3.177  0.00  0.00    -0.220 N 
ATOM     24  N   UNL     1       1.181   0.351  -2.110  0.00  0.00    -0.172 NA
BRANCH  18  26
ATOM     25  C   UNL     1      -0.036   1.496  -0.012  0.00  0.00    +0.017 C 
ATOM     26  C   UNL     1      -0.006  -0.034  -0.021  0.00  0.00    +0.006 C 
ATOM     27  C   UNL     1       0.731  -0.537   1.222  0.00  0.00    +0.017 C 
ATOM     28  C   UNL     1      -1.438  -0.572  -0.017  0.00  0.00    +0.017 C 
ENDBRANCH  18  26
ENDBRANCH  17  23
ENDBRANCH   1  17
TORSDOF 4
