REMARK  Name = ZINC08063776
REMARK  5 active torsions:
REMARK  status: ('A' for Active; 'I' for Inactive)
REMARK    1  A    between atoms: C_6  and  S_11
REMARK    2  A    between atoms: S_11  and  C_12
REMARK    3  A    between atoms: C_15  and  S_21
REMARK    4  A    between atoms: C_17  and  N_18
REMARK    5  A    between atoms: S_21  and  N_24
REMARK                            x       y       z     vdW  Elec       q    Type
REMARK                         _______ _______ _______ _____ _____    ______ ____
ROOT
ATOM      1  C   UNL     1       6.408   3.025  -0.084  0.00  0.00    +0.043 A 
ATOM      2  C   UNL     1       6.157   1.662  -0.185  0.00  0.00    +0.019 A 
ATOM      3  C   UNL     1       7.210   0.770  -0.232  0.00  0.00    +0.030 A 
ATOM      4  C   UNL     1       8.513   1.232  -0.178  0.00  0.00    +0.107 A 
ATOM      5  C   UNL     1       8.766   2.587  -0.077  0.00  0.00    +0.062 A 
ATOM      6  C   UNL     1       7.718   3.486  -0.035  0.00  0.00    +0.142 A 
ENDROOT
BRANCH   6   7
ATOM      7  N   UNL     1       7.990   4.937   0.067  0.00  0.00    +0.058 N 
ATOM      8  O   UNL     1       9.138   5.340   0.110  0.00  0.00    -0.126 OA
ATOM      9  O   UNL     1       7.065   5.729   0.108  0.00  0.00    -0.126 OA
ENDBRANCH   6   7
BRANCH   4  10
ATOM     10  S   UNL     1       9.853   0.089  -0.238  0.00  0.00    +0.056 S 
ATOM     11  O   UNL     1      10.962   0.731   0.378  0.00  0.00    -0.153 OA
ATOM     12  O   UNL     1       9.345  -1.157   0.217  0.00  0.00    -0.153 OA
BRANCH  10  13
ATOM     13  N   UNL     1      10.251  -0.115  -1.833  0.00  0.00    -0.204 NA
ATOM     14  H   UNL     1      11.165  -0.322  -2.082  0.00  0.00    +0.144 HD
ATOM     15  H   UNL     1       9.570  -0.028  -2.518  0.00  0.00    +0.144 HD
ENDBRANCH  10  13
ENDBRANCH   4  10
BRANCH   1  16
ATOM     16  S   UNL     1       5.067   4.167  -0.025  0.00  0.00    -0.087 S 
BRANCH  16  22
ATOM     17  C   UNL     1       3.868   6.609   6.119  0.00  0.00    +0.001 A 
ATOM     18  C   UNL     1       3.062   7.266   5.191  0.00  0.00    +0.001 A 
ATOM     19  C   UNL     1       3.116   6.950   3.868  0.00  0.00    +0.008 A 
ATOM     20  C   UNL     1       4.000   5.950   3.427  0.00  0.00    -0.017 A 
ATOM     21  C   UNL     1       4.082   5.598   2.071  0.00  0.00    +0.023 A 
ATOM     22  C   UNL     1       4.961   4.612   1.677  0.00  0.00    +0.013 A 
ATOM     23  C   UNL     1       5.771   3.961   2.616  0.00  0.00    +0.015 A 
ATOM     24  C   UNL     1       5.710   4.284   3.934  0.00  0.00    +0.009 A 
ATOM     25  C   UNL     1       4.824   5.285   4.370  0.00  0.00    -0.018 A 
ATOM     26  C   UNL     1       4.740   5.639   5.728  0.00  0.00    +0.008 A 
ENDBRANCH  16  22
ENDBRANCH   1  16
TORSDOF 5
