REMARK  Name = ZINC67558067
REMARK  10 active torsions:
REMARK  status: ('A' for Active; 'I' for Inactive)
REMARK    1  A    between atoms: C_1  and  C_2
REMARK    2  A    between atoms: C_5  and  O_8
REMARK    3  A    between atoms: O_8  and  C_9
REMARK    4  A    between atoms: C_9  and  C_10
REMARK    5  A    between atoms: C_10  and  C_12
REMARK    6  A    between atoms: C_10  and  N_13
REMARK    7  A    between atoms: N_16  and  C_17
REMARK    8  A    between atoms: C_17  and  C_18
REMARK    9  A    between atoms: C_21  and  S_23
REMARK   10  A    between atoms: S_23  and  N_26
REMARK                            x       y       z     vdW  Elec       q    Type
REMARK                         _______ _______ _______ _____ _____    ______ ____
ROOT
ATOM      1  N   UNL     1       1.344  -6.688   0.389  0.00  0.00    -0.294 N 
ATOM      2  C   UNL     1       1.825  -7.937   0.544  0.00  0.00    +0.300 C 
ATOM      3  O   UNL     1       1.220  -8.742   1.225  0.00  0.00    -0.253 OA
ATOM      4  N   UNL     1       2.979  -8.294  -0.055  0.00  0.00    -0.295 N 
ATOM      5  H   UNL     1       1.827  -6.046  -0.154  0.00  0.00    +0.151 HD
ATOM      6  H   UNL     1       3.462  -7.652  -0.598  0.00  0.00    +0.151 HD
ENDROOT
BRANCH   1   7
ATOM      7  C   UNL     1       0.090  -6.300   1.040  0.00  0.00    +0.109 C 
ATOM      8  C   UNL     1      -1.091  -6.708   0.157  0.00  0.00    +0.031 C 
BRANCH   7   9
ATOM      9  C   UNL     1       0.072  -4.785   1.249  0.00  0.00    +0.251 C 
BRANCH   9  10
ATOM     10  O   UNL     1       0.057  -4.129  -0.021  0.00  0.00    -0.490 OA
BRANCH  10  15
ATOM     11  C   UNL     1      -0.018   1.503   0.010  0.00  0.00    +0.044 C 
ATOM     12  C   UNL     1       0.002  -0.004   0.002  0.00  0.00    -0.050 A 
ATOM     13  C   UNL     1       0.006  -0.688  -1.200  0.00  0.00    +0.007 A 
ATOM     14  C   UNL     1       0.024  -2.069  -1.210  0.00  0.00    +0.046 A 
ATOM     15  C   UNL     1       0.039  -2.770  -0.013  0.00  0.00    +0.121 A 
ATOM     16  C   UNL     1       0.036  -2.082   1.191  0.00  0.00    +0.046 A 
ATOM     17  C   UNL     1       0.023  -0.701   1.196  0.00  0.00    +0.007 A 
ENDBRANCH  10  15
ENDBRANCH   9  10
ENDBRANCH   7   9
ENDBRANCH   1   7
BRANCH   4  18
ATOM     18  C   UNL     1       3.502  -9.652   0.114  0.00  0.00    +0.148 C 
BRANCH  18  19
ATOM     19  C   UNL     1       4.793  -9.792  -0.652  0.00  0.00    +0.009 A 
ATOM     20  C   UNL     1       6.062  -9.563  -0.235  0.00  0.00    +0.015 A 
ATOM     21  C   UNL     1       7.104  -9.760  -1.121  0.00  0.00    +0.036 A 
ATOM     22  C   UNL     1       6.827 -10.177  -2.381  0.00  0.00    +0.142 A 
ATOM     23  S   UNL     1       5.046 -10.309  -2.342  0.00  0.00    -0.072 S 
BRANCH  22  24
ATOM     24  S   UNL     1       7.935 -10.508  -3.710  0.00  0.00    +0.062 S 
ATOM     25  O   UNL     1       7.186 -10.362  -4.909  0.00  0.00    -0.153 OA
ATOM     26  O   UNL     1       9.114  -9.757  -3.452  0.00  0.00    -0.153 OA
BRANCH  24  27
ATOM     27  N   UNL     1       8.359 -12.105  -3.607  0.00  0.00    -0.203 NA
ATOM     28  H   UNL     1       7.997 -12.659  -2.898  0.00  0.00    +0.144 HD
ATOM     29  H   UNL     1       8.970 -12.487  -4.257  0.00  0.00    +0.144 HD
ENDBRANCH  24  27
ENDBRANCH  22  24
ENDBRANCH  18  19
ENDBRANCH   4  18
TORSDOF 8
