REMARK  Name = ZINC20831597
REMARK  6 active torsions:
REMARK  status: ('A' for Active; 'I' for Inactive)
REMARK    1  A    between atoms: C_4  and  C_7
REMARK    2  A    between atoms: C_10  and  S_13
REMARK    3  A    between atoms: N_11  and  N_12
REMARK    4  A    between atoms: S_13  and  C_14
REMARK    5  A    between atoms: C_14  and  C_15
REMARK    6  A    between atoms: N_17  and  C_18
REMARK                            x       y       z     vdW  Elec       q    Type
REMARK                         _______ _______ _______ _____ _____    ______ ____
ROOT
ATOM      1  S   UNL     1      -0.888   1.685  -1.458  0.00  0.00    -0.075 S 
ENDROOT
BRANCH   1   5
ATOM      2  C   UNL     1       0.962   0.411  -4.655  0.00  0.00    +0.182 A 
ATOM      3  N   UNL     1       1.689  -0.088  -3.683  0.00  0.00    -0.127 NA
ATOM      4  N   UNL     1       1.196   0.252  -2.547  0.00  0.00    -0.121 NA
ATOM      5  C   UNL     1       0.122   0.990  -2.724  0.00  0.00    +0.209 A 
ATOM      6  N   UNL     1      -0.068   1.112  -4.070  0.00  0.00    -0.224 N 
BRANCH   2  10
ATOM      7  C   UNL     1       1.646  -0.062  -8.821  0.00  0.00    +0.000 A 
ATOM      8  C   UNL     1       2.296  -0.886  -7.918  0.00  0.00    +0.001 A 
ATOM      9  C   UNL     1       2.078  -0.737  -6.564  0.00  0.00    +0.011 A 
ATOM     10  C   UNL     1       1.200   0.246  -6.105  0.00  0.00    +0.021 A 
ATOM     11  C   UNL     1       0.544   1.070  -7.021  0.00  0.00    +0.011 A 
ATOM     12  C   UNL     1       0.775   0.915  -8.373  0.00  0.00    +0.001 A 
ENDBRANCH   2  10
BRANCH   6  13
ATOM     13  N   UNL     1      -1.069   1.791  -4.705  0.00  0.00    -0.295 N 
ATOM     14  H   UNL     1      -1.837   2.314  -4.116  0.00  0.00    +0.163 HD
ATOM     15  H   UNL     1      -1.107   1.814  -5.804  0.00  0.00    +0.163 HD
ENDBRANCH   6  13
ENDBRANCH   1   5
BRANCH   1  16
ATOM     16  C   UNL     1      -0.013   1.086   0.008  0.00  0.00    +0.173 C 
BRANCH  16  17
ATOM     17  C   UNL     1      -0.718   1.572   1.248  0.00  0.00    +0.224 C 
ATOM     18  O   UNL     1      -1.714   2.256   1.150  0.00  0.00    -0.275 OA
ATOM     19  N   UNL     1      -0.242   1.246   2.466  0.00  0.00    -0.308 N 
ATOM     20  H   UNL     1       0.662   0.625   2.555  0.00  0.00    +0.149 HD
BRANCH  19  21
ATOM     21  C   UNL     1      -0.927   1.718   3.671  0.00  0.00    +0.103 C 
ATOM     22  C   UNL     1       0.075   1.801   4.821  0.00  0.00    +0.027 C 
ATOM     23  C   UNL     1      -0.696   2.085   6.115  0.00  0.00    +0.007 C 
ATOM     24  C   UNL     1      -1.500   0.838   6.479  0.00  0.00    +0.035 C 
ATOM     25  C   UNL     1      -2.314   0.370   5.301  0.00  0.00    -0.042 A 
ATOM     26  C   UNL     1      -2.046   0.769   4.011  0.00  0.00    -0.024 A 
ATOM     27  C   UNL     1      -2.826   0.289   2.967  0.00  0.00    +0.006 A 
ATOM     28  C   UNL     1      -3.869  -0.580   3.213  0.00  0.00    +0.000 A 
ATOM     29  C   UNL     1      -4.141  -0.976   4.509  0.00  0.00    +0.000 A 
ATOM     30  C   UNL     1      -3.366  -0.502   5.548  0.00  0.00    +0.004 A 
ENDBRANCH  19  21
ENDBRANCH  16  17
ENDBRANCH   1  16
TORSDOF 6
