REMARK  Name = ZINC16049831
REMARK  3 active torsions:
REMARK  status: ('A' for Active; 'I' for Inactive)
REMARK    1  A    between atoms: C_12  and  S_15
REMARK    2  A    between atoms: S_15  and  C_16
REMARK    3  A    between atoms: C_16  and  C_17
REMARK                            x       y       z     vdW  Elec       q    Type
REMARK                         _______ _______ _______ _____ _____    ______ ____
ROOT
ATOM      1  C   UNL     1      -0.013   1.076   0.008  0.00  0.00    +0.001 A 
ATOM      2  C   UNL     1      -1.224   1.750   0.017  0.00  0.00    +0.002 A 
ATOM      3  C   UNL     1      -1.259   3.128   0.030  0.00  0.00    +0.026 A 
ATOM      4  C   UNL     1      -0.073   3.856   0.022  0.00  0.00    +0.050 A 
ATOM      5  C   UNL     1       1.152   3.172   0.008  0.00  0.00    +0.029 A 
ATOM      6  C   UNL     1       1.173   1.779   0.000  0.00  0.00    +0.012 A 
ATOM      7  C   UNL     1       2.204   4.203   0.003  0.00  0.00    +0.137 A 
ATOM      8  C   UNL     1       1.539   5.447   0.015  0.00  0.00    +0.162 A 
ATOM      9  N   UNL     1       0.185   5.217   0.027  0.00  0.00    -0.338 N 
ATOM     10  H   UNL     1      -0.493   5.909   0.036  0.00  0.00    +0.167 HD
ATOM     11  N   UNL     1       2.274   6.554   0.014  0.00  0.00    -0.201 NA
ATOM     12  C   UNL     1       3.597   6.455   0.001  0.00  0.00    +0.212 A 
ATOM     13  N   UNL     1       4.200   5.271  -0.011  0.00  0.00    -0.122 NA
ATOM     14  N   UNL     1       3.528   4.172  -0.010  0.00  0.00    -0.143 NA
ENDROOT
BRANCH  12  15
ATOM     15  S   UNL     1       4.573   7.922  -0.002  0.00  0.00    -0.080 S 
BRANCH  15  16
ATOM     16  C   UNL     1       6.231   7.197  -0.021  0.00  0.00    +0.112 C 
BRANCH  16  17
ATOM     17  C   UNL     1       7.261   8.297  -0.026  0.00  0.00    -0.036 A 
ATOM     18  C   UNL     1       7.745   8.796   1.169  0.00  0.00    +0.004 A 
ATOM     19  C   UNL     1       8.690   9.804   1.166  0.00  0.00    +0.001 A 
ATOM     20  C   UNL     1       9.152  10.315  -0.033  0.00  0.00    +0.015 A 
ATOM     21  C   UNL     1       8.668   9.816  -1.229  0.00  0.00    +0.018 A 
ATOM     22  C   UNL     1       7.726   8.803  -1.225  0.00  0.00    +0.019 A 
ATOM     23 BR   UNL     1       9.299  10.514  -2.869  0.00  0.00    -0.050 Br
ENDBRANCH  16  17
ENDBRANCH  15  16
ENDBRANCH  12  15
TORSDOF 3
