REMARK  Name = ZINC17114368
REMARK  5 active torsions:
REMARK  status: ('A' for Active; 'I' for Inactive)
REMARK    1  A    between atoms: C_1  and  C_2
REMARK    2  A    between atoms: C_2  and  C_4
REMARK    3  A    between atoms: C_2  and  O_19
REMARK    4  A    between atoms: N_6  and  N_7
REMARK    5  A    between atoms: O_19  and  C_20
REMARK                            x       y       z     vdW  Elec       q    Type
REMARK                         _______ _______ _______ _____ _____    ______ ____
ROOT
ATOM      1  C   UNL     1       2.370  -3.932  -0.957  0.00  0.00    +0.270 C 
ATOM      2  O   UNL     1       1.284  -4.261  -1.383  0.00  0.00    -0.270 OA
ATOM      3  N   UNL     1       3.452  -4.696  -1.207  0.00  0.00    -0.221 N 
ATOM      4  H   UNL     1       4.321  -4.433  -0.865  0.00  0.00    +0.174 HD
ENDROOT
BRANCH   3   5
ATOM      5  N   UNL     1       3.321  -5.870  -1.960  0.00  0.00    -0.137 N 
ATOM      6  C   UNL     1       3.720  -5.997  -3.242  0.00  0.00    +0.263 C 
ATOM      7  O   UNL     1       4.239  -5.149  -3.937  0.00  0.00    -0.271 OA
ATOM      8  C   UNL     1       3.382  -7.418  -3.631  0.00  0.00    +0.114 C 
ATOM      9  C   UNL     1       4.649  -8.180  -4.006  0.00  0.00    +0.035 C 
ATOM     10  C   UNL     1       4.290  -9.623  -4.369  0.00  0.00    +0.003 C 
ATOM     11  C   UNL     1       3.308  -9.624  -5.543  0.00  0.00    +0.000 C 
ATOM     12  C   UNL     1       2.034  -8.877  -5.143  0.00  0.00    +0.003 C 
ATOM     13  C   UNL     1       2.383  -7.430  -4.783  0.00  0.00    +0.035 C 
ATOM     14  N   UNL     1       2.779  -7.986  -2.419  0.00  0.00    -0.284 N 
ATOM     15  C   UNL     1       2.791  -7.008  -1.494  0.00  0.00    +0.326 C 
ATOM     16  O   UNL     1       2.366  -7.142  -0.363  0.00  0.00    -0.251 OA
ATOM     17  H   UNL     1       2.441  -8.888  -2.307  0.00  0.00    +0.151 HD
ENDBRANCH   3   5
BRANCH   1  19
ATOM     18  C   UNL     1       3.050  -3.011   1.243  0.00  0.00    +0.062 C 
ATOM     19  C   UNL     1       2.510  -2.669  -0.147  0.00  0.00    +0.257 C 
BRANCH  19  20
ATOM     20  O   UNL     1       1.234  -2.040  -0.020  0.00  0.00    -0.480 OA
BRANCH  20  21
ATOM     21  C   UNL     1       1.226  -0.699   0.200  0.00  0.00    +0.123 A 
ATOM     22  C   UNL     1       2.419  -0.021   0.404  0.00  0.00    +0.046 A 
ATOM     23  C   UNL     1       2.409   1.342   0.628  0.00  0.00    +0.005 A 
ATOM     24  C   UNL     1       1.211   2.032   0.649  0.00  0.00    +0.020 A 
ATOM     25  C   UNL     1       0.019   1.359   0.446  0.00  0.00    +0.044 A 
ATOM     26  C   UNL     1       0.025  -0.005   0.222  0.00  0.00    +0.065 A 
ATOM     27 CL   UNL     1      -1.483   2.228   0.473  0.00  0.00    -0.083 Cl
ENDBRANCH  20  21
ENDBRANCH  19  20
ENDBRANCH   1  19
TORSDOF 4
