REMARK  Name = ZINC20929288
REMARK  8 active torsions:
REMARK  status: ('A' for Active; 'I' for Inactive)
REMARK    1  A    between atoms: C_1  and  C_2
REMARK    2  A    between atoms: C_5  and  N_8
REMARK    3  A    between atoms: N_12  and  S_25
REMARK    4  A    between atoms: C_14  and  C_15
REMARK    5  A    between atoms: C_14  and  C_16
REMARK    6  A    between atoms: N_18  and  C_19
REMARK    7  A    between atoms: S_25  and  C_28
REMARK    8  A    between atoms: C_31  and  C_34
REMARK                            x       y       z     vdW  Elec       q    Type
REMARK                         _______ _______ _______ _____ _____    ______ ____
ROOT
ATOM      1  N   UNL     1       0.266  -0.274  -4.814  0.00  0.00    -0.255 N 
ATOM      2  C   UNL     1      -0.478  -1.003  -5.647  0.00  0.00    +0.236 C 
ATOM      3  O   UNL     1      -0.336  -2.208  -5.646  0.00  0.00    -0.274 OA
ATOM      4  C   UNL     1      -1.485  -0.400  -6.588  0.00  0.00    +0.205 C 
ATOM      5  N   UNL     1      -1.708   1.004  -6.212  0.00  0.00    -0.165 NA
ATOM      6  C   UNL     1      -0.522   1.805  -5.863  0.00  0.00    +0.145 C 
ATOM      7  C   UNL     1       0.143   1.167  -4.641  0.00  0.00    +0.129 C 
ATOM      8  C   UNL     1       1.535   1.773  -4.453  0.00  0.00    +0.043 C 
ENDROOT
BRANCH   1  13
ATOM      9  C   UNL     1       4.185  -2.975  -1.728  0.00  0.00    +0.044 C 
ATOM     10  C   UNL     1       3.144  -2.257  -2.548  0.00  0.00    -0.050 A 
ATOM     11  C   UNL     1       1.801  -2.458  -2.286  0.00  0.00    +0.005 A 
ATOM     12  C   UNL     1       0.845  -1.802  -3.036  0.00  0.00    +0.024 A 
ATOM     13  C   UNL     1       1.233  -0.940  -4.053  0.00  0.00    +0.037 A 
ATOM     14  C   UNL     1       2.582  -0.745  -4.317  0.00  0.00    +0.024 A 
ATOM     15  C   UNL     1       3.534  -1.400  -3.560  0.00  0.00    +0.005 A 
ENDBRANCH   1  13
BRANCH   7  16
ATOM     16  C   UNL     1      -0.691   1.450  -3.418  0.00  0.00    +0.238 C 
ATOM     17  O   UNL     1      -1.489   2.364  -3.427  0.00  0.00    -0.273 OA
ATOM     18  N   UNL     1      -0.550   0.688  -2.316  0.00  0.00    -0.311 N 
ATOM     19  H   UNL     1       0.229  -0.087  -2.279  0.00  0.00    +0.149 HD
BRANCH  18  20
ATOM     20  C   UNL     1      -1.435   0.893  -1.166  0.00  0.00    +0.073 C 
ATOM     21  C   UNL     1      -0.780   0.317   0.091  0.00  0.00    +0.022 C 
ATOM     22  C   UNL     1      -1.704   0.531   1.291  0.00  0.00    +0.002 C 
ATOM     23  C   UNL     1      -3.037  -0.177   1.041  0.00  0.00    +0.000 C 
ATOM     24  C   UNL     1      -3.692   0.398  -0.216  0.00  0.00    +0.002 C 
ATOM     25  C   UNL     1      -2.768   0.185  -1.416  0.00  0.00    +0.022 C 
ENDBRANCH  18  20
ENDBRANCH   7  16
BRANCH   5  26
ATOM     26  S   UNL     1      -3.229   1.658  -6.182  0.00  0.00    +0.061 S 
ATOM     27  O   UNL     1      -4.121   0.596  -5.871  0.00  0.00    -0.153 OA
ATOM     28  O   UNL     1      -3.148   2.839  -5.397  0.00  0.00    -0.153 OA
BRANCH  26  29
ATOM     29  C   UNL     1      -3.608   2.170  -7.825  0.00  0.00    +0.106 A 
ATOM     30  C   UNL     1      -3.202   3.413  -8.272  0.00  0.00    +0.029 A 
ATOM     31  C   UNL     1      -3.496   3.813  -9.562  0.00  0.00    +0.005 A 
ATOM     32  C   UNL     1      -4.204   2.974 -10.402  0.00  0.00    -0.050 A 
ATOM     33  C   UNL     1      -4.615   1.733  -9.953  0.00  0.00    +0.005 A 
ATOM     34  C   UNL     1      -4.317   1.331  -8.664  0.00  0.00    +0.029 A 
ATOM     35  C   UNL     1      -4.529   3.413 -11.806  0.00  0.00    +0.044 C 
ENDBRANCH  26  29
ENDBRANCH   5  26
TORSDOF 5
