REMARK  Name = ZINC20710155
REMARK  8 active torsions:
REMARK  status: ('A' for Active; 'I' for Inactive)
REMARK    1  A    between atoms: C_1  and  C_2
REMARK    2  A    between atoms: C_2  and  C_3
REMARK    3  A    between atoms: C_2  and  C_4
REMARK    4  A    between atoms: C_4  and  C_5
REMARK    5  A    between atoms: N_7  and  C_8
REMARK    6  A    between atoms: C_21  and  C_24
REMARK    7  A    between atoms: C_26  and  N_31
REMARK    8  A    between atoms: C_29  and  O_30
REMARK                            x       y       z     vdW  Elec       q    Type
REMARK                         _______ _______ _______ _____ _____    ______ ____
ROOT
ATOM      1  C   UNL     1       3.570   2.130   3.515  0.00  0.00    +0.034 A 
ATOM      2  C   UNL     1       4.134   2.439   2.284  0.00  0.00    +0.025 A 
ATOM      3  C   UNL     1       3.403   2.272   1.127  0.00  0.00    +0.025 A 
ATOM      4  C   UNL     1       2.099   1.792   1.181  0.00  0.00    +0.031 A 
ATOM      5  C   UNL     1       1.540   1.468   2.422  0.00  0.00    -0.018 A 
ATOM      6  C   UNL     1       2.271   1.645   3.577  0.00  0.00    +0.029 A 
ATOM      7  C   UNL     1       0.166   0.920   2.430  0.00  0.00    +0.049 C 
ATOM      8  C   UNL     1      -0.738   1.085   3.597  0.00  0.00    -0.023 C 
ATOM      9  C   UNL     1      -1.990   1.143   3.159  0.00  0.00    -0.030 C 
ATOM     10  C   UNL     1      -2.014   1.053   1.632  0.00  0.00    +0.033 C 
ATOM     11  C   UNL     1      -0.632   1.613   1.286  0.00  0.00    +0.029 C 
ATOM     12  C   UNL     1      -0.007   1.115  -0.005  0.00  0.00    +0.108 C 
ATOM     13  N   UNL     1       1.373   1.646  -0.010  0.00  0.00    -0.336 N 
ATOM     14  H   UNL     1       1.848   1.935  -0.959  0.00  0.00    +0.147 HD
ENDROOT
BRANCH  12  15
ATOM     15  C   UNL     1      -0.771   1.638  -1.193  0.00  0.00    +0.017 A 
ATOM     16  C   UNL     1      -0.316   2.752  -1.872  0.00  0.00    +0.041 A 
ATOM     17  C   UNL     1      -1.016   3.233  -2.962  0.00  0.00    +0.127 A 
ATOM     18  C   UNL     1      -2.174   2.601  -3.377  0.00  0.00    +0.036 A 
ATOM     19  C   UNL     1      -2.633   1.487  -2.702  0.00  0.00    +0.048 A 
ATOM     20  C   UNL     1      -1.929   0.999  -1.611  0.00  0.00    +0.122 A 
BRANCH  17  21
ATOM     21  N   UNL     1      -0.526   4.427  -3.687  0.00  0.00    +0.056 N 
ATOM     22  O   UNL     1       0.493   4.985  -3.323  0.00  0.00    -0.126 OA
ATOM     23  O   UNL     1      -1.143   4.852  -4.648  0.00  0.00    -0.126 OA
ENDBRANCH  17  21
BRANCH  20  24
ATOM     24  O   UNL     1      -2.376  -0.101  -0.948  0.00  0.00    -0.506 OA
ATOM     25  H   UNL     1      -3.294  -0.607  -1.280  0.00  0.00    +0.292 HD
ENDBRANCH  20  24
ENDBRANCH  12  15
BRANCH   1  28
ATOM     26  C   UNL     1       5.639   2.080   4.692  0.00  0.00    +0.217 C 
ATOM     27  O   UNL     1       6.207   1.804   3.657  0.00  0.00    -0.275 OA
ATOM     28  N   UNL     1       4.311   2.307   4.692  0.00  0.00    -0.285 N 
ATOM     29  H   UNL     1       3.808   2.631   5.615  0.00  0.00    +0.155 HD
BRANCH  26  30
ATOM     30  C   UNL     1       6.418   2.168   5.979  0.00  0.00    +0.099 C 
BRANCH  30  32
ATOM     31  C   UNL     1       8.704   2.080   6.985  0.00  0.00    +0.008 C 
ATOM     32  C   UNL     1       7.893   1.868   5.704  0.00  0.00    -0.008 C 
ATOM     33  C   UNL     1       8.041   0.418   5.241  0.00  0.00    +0.008 C 
ENDBRANCH  30  32
ENDBRANCH  26  30
ENDBRANCH   1  28
TORSDOF 6
