REMARK  Name = ZINC24689087
REMARK  7 active torsions:
REMARK  status: ('A' for Active; 'I' for Inactive)
REMARK    1  A    between atoms: C_1  and  C_2
REMARK    2  A    between atoms: C_5  and  S_9
REMARK    3  A    between atoms: C_6  and  C_8
REMARK    4  A    between atoms: S_9  and  N_12
REMARK    5  A    between atoms: N_12  and  C_13
REMARK    6  A    between atoms: C_13  and  C_20
REMARK    7  A    between atoms: C_22  and  C_25
REMARK                            x       y       z     vdW  Elec       q    Type
REMARK                         _______ _______ _______ _____ _____    ______ ____
ROOT
ATOM      1  N   UNL     1      -1.887   0.862   0.627  0.00  0.00    -0.176 NA
ATOM      2  H   UNL     1      -2.285   0.662  -0.379  0.00  0.00    +0.149 HD
ENDROOT
BRANCH   1   3
ATOM      3  C   UNL     1      -0.518   1.359   0.787  0.00  0.00    +0.102 C 
ATOM      4  C   UNL     1       0.250   1.201  -0.541  0.00  0.00    +0.032 C 
ATOM      5  C   UNL     1      -0.575   1.517  -1.698  0.00  0.00    +0.002 C 
ATOM      6  C   UNL     1      -1.060   2.981  -1.692  0.00  0.00    +0.000 C 
ATOM      7  C   UNL     1      -2.238   3.092  -0.763  0.00  0.00    +0.000 C 
ATOM      8  C   UNL     1      -1.828   3.522   0.659  0.00  0.00    +0.002 C 
ATOM      9  C   UNL     1      -0.548   2.820   1.150  0.00  0.00    +0.032 C 
BRANCH   3  10
ATOM     10  C   UNL     1       0.182   0.584   1.873  0.00  0.00    +0.193 A 
ATOM     11  N   UNL     1      -0.091   0.632   3.189  0.00  0.00    -0.194 NA
ATOM     12  C   UNL     1       0.753  -0.197   3.755  0.00  0.00    +0.224 A 
ATOM     13  O   UNL     1       1.508  -0.710   2.779  0.00  0.00    -0.338 OA
ATOM     14  N   UNL     1       1.165  -0.251   1.710  0.00  0.00    -0.059 NA
ATOM     15  C   UNL     1       0.855  -0.507   5.226  0.00  0.00    +0.112 C 
ENDBRANCH   3  10
ENDBRANCH   1   3
BRANCH   1  16
ATOM     16  S   UNL     1      -2.916   0.835   1.924  0.00  0.00    +0.060 S 
ATOM     17  O   UNL     1      -2.395   1.755   2.874  0.00  0.00    -0.153 OA
ATOM     18  O   UNL     1      -4.232   0.943   1.401  0.00  0.00    -0.153 OA
BRANCH  16  23
ATOM     19  C   UNL     1      -2.498  -4.642   4.420  0.00  0.00    +0.044 C 
ATOM     20  C   UNL     1      -2.602  -3.274   3.796  0.00  0.00    -0.050 A 
ATOM     21  C   UNL     1      -2.275  -2.152   4.534  0.00  0.00    +0.005 A 
ATOM     22  C   UNL     1      -2.371  -0.897   3.963  0.00  0.00    +0.029 A 
ATOM     23  C   UNL     1      -2.793  -0.764   2.653  0.00  0.00    +0.108 A 
ATOM     24  C   UNL     1      -3.124  -1.886   1.917  0.00  0.00    -0.024 A 
ATOM     25  C   UNL     1      -3.024  -3.142   2.487  0.00  0.00    +0.008 A 
ATOM     26  C   UNL     1      -3.590  -1.741   0.491  0.00  0.00    +0.046 C 
ENDBRANCH  16  23
ENDBRANCH   1  16
TORSDOF 4
