REMARK  Name = ZINC12467802
REMARK  3 active torsions:
REMARK  status: ('A' for Active; 'I' for Inactive)
REMARK    1  A    between atoms: C_2  and  C_10
REMARK    2  A    between atoms: C_5  and  O_8
REMARK    3  A    between atoms: C_20  and  C_22
REMARK                            x       y       z     vdW  Elec       q    Type
REMARK                         _______ _______ _______ _____ _____    ______ ____
ROOT
ATOM      1  C   UNL     1       1.176   3.535   0.036  0.00  0.00    +0.024 C 
ATOM      2  C   UNL     1       2.354   4.242   0.118  0.00  0.00    +0.081 C 
ATOM      3  C   UNL     1       3.681   3.563   0.088  0.00  0.00    +0.152 C 
ATOM      4  N   UNL     1       3.914   2.474  -0.595  0.00  0.00    -0.283 NA
ATOM      5  N   UNL     1       4.660   4.213   0.870  0.00  0.00    -0.152 N 
ATOM      6  C   UNL     1       4.479   5.554   1.132  0.00  0.00    +0.181 C 
ATOM      7  N   UNL     1       3.445   6.295   0.822  0.00  0.00    -0.152 NA
ATOM      8  C   UNL     1       2.373   5.721   0.236  0.00  0.00    +0.273 C 
ATOM      9  O   UNL     1       1.445   6.396  -0.181  0.00  0.00    -0.268 OA
ATOM     10  S   UNL     1       5.971   5.968   1.996  0.00  0.00    -0.037 S 
ATOM     11  C   UNL     1       6.681   4.328   2.038  0.00  0.00    +0.106 C 
ATOM     12  N   UNL     1       5.796   3.628   1.388  0.00  0.00    -0.169 NA
ATOM     13  H   UNL     1       3.231   2.113  -1.181  0.00  0.00    +0.188 HD
ENDROOT
BRANCH  11  14
ATOM     14  C   UNL     1       7.973   3.873   2.666  0.00  0.00    +0.022 C 
ATOM     15  C   UNL     1       8.149   2.370   2.437  0.00  0.00    +0.017 C 
ATOM     16  C   UNL     1       9.461   1.908   3.074  0.00  0.00    -0.010 C 
ATOM     17  C   UNL     1      10.630   2.661   2.437  0.00  0.00    +0.007 C 
ATOM     18  C   UNL     1      10.454   4.164   2.666  0.00  0.00    -0.010 C 
ATOM     19  C   UNL     1       9.142   4.626   2.029  0.00  0.00    +0.017 C 
ATOM     20  C   UNL     1      10.421   4.450   4.168  0.00  0.00    +0.007 C 
ATOM     21  C   UNL     1       9.251   3.697   4.805  0.00  0.00    -0.010 C 
ATOM     22  C   UNL     1       9.427   2.195   4.577  0.00  0.00    +0.007 C 
ATOM     23  C   UNL     1       7.939   4.160   4.168  0.00  0.00    +0.017 C 
ENDBRANCH  11  14
BRANCH   1  25
ATOM     24  C   UNL     1       2.160   1.412   0.870  0.00  0.00    +0.031 A 
ATOM     25  C   UNL     1       1.193   2.072   0.097  0.00  0.00    -0.021 A 
ATOM     26  C   UNL     1       0.243   1.326  -0.615  0.00  0.00    +0.031 A 
ATOM     27  C   UNL     1       0.265  -0.049  -0.553  0.00  0.00    +0.084 A 
ATOM     28  C   UNL     1       1.226  -0.699   0.215  0.00  0.00    +0.153 A 
ATOM     29  C   UNL     1       2.171   0.036   0.924  0.00  0.00    +0.084 A 
ATOM     30 CL   UNL     1       3.367  -0.783   1.879  0.00  0.00    -0.080 Cl
ATOM     31 CL   UNL     1      -0.911  -0.974  -1.434  0.00  0.00    -0.080 Cl
BRANCH  28  32
ATOM     32  O   UNL     1       1.242  -2.055   0.273  0.00  0.00    -0.504 OA
ATOM     33  H   UNL     1       1.788  -2.471  -0.408  0.00  0.00    +0.292 HD
ENDBRANCH  28  32
ENDBRANCH   1  25
TORSDOF 3
