REMARK  Name = ZINC35198540
REMARK  12 active torsions:
REMARK  status: ('A' for Active; 'I' for Inactive)
REMARK    1  A    between atoms: C_1  and  C_2
REMARK    2  A    between atoms: C_2  and  C_3
REMARK    3  A    between atoms: C_3  and  C_5
REMARK    4  A    between atoms: C_3  and  C_11
REMARK    5  A    between atoms: N_13  and  C_14
REMARK    6  A    between atoms: C_14  and  C_16
REMARK    7  A    between atoms: C_14  and  C_17
REMARK    8  A    between atoms: C_20  and  S_31
REMARK    9  A    between atoms: N_21  and  C_22
REMARK   10  A    between atoms: C_25  and  N_28
REMARK   11  A    between atoms: S_31  and  C_32
REMARK   12  A    between atoms: C_32  and  C_33
REMARK                            x       y       z     vdW  Elec       q    Type
REMARK                         _______ _______ _______ _____ _____    ______ ____
ROOT
ATOM      1  C   UNL     1      -1.983  -4.519  -0.895  0.00  0.00    +0.159 A 
ATOM      2  N   UNL     1      -3.148  -3.999  -1.160  0.00  0.00    -0.131 NA
ATOM      3  N   UNL     1      -4.068  -4.628  -0.520  0.00  0.00    -0.122 NA
ATOM      4  C   UNL     1      -3.537  -5.591   0.196  0.00  0.00    +0.196 A 
ATOM      5  N   UNL     1      -2.188  -5.557  -0.025  0.00  0.00    -0.273 N 
ENDROOT
BRANCH   5   6
ATOM      6  C   UNL     1      -1.216  -6.405   0.526  0.00  0.00    +0.050 A 
ATOM      7  C   UNL     1      -0.486  -7.253  -0.296  0.00  0.00    +0.028 A 
ATOM      8  C   UNL     1       0.470  -8.087   0.250  0.00  0.00    +0.035 A 
ATOM      9  C   UNL     1       0.700  -8.078   1.613  0.00  0.00    +0.126 A 
ATOM     10  C   UNL     1      -0.025  -7.234   2.434  0.00  0.00    +0.035 A 
ATOM     11  C   UNL     1      -0.979  -6.394   1.893  0.00  0.00    +0.028 A 
BRANCH   9  12
ATOM     12  N   UNL     1       1.725  -8.973   2.195  0.00  0.00    +0.056 N 
ATOM     13  O   UNL     1       2.360  -9.712   1.478  0.00  0.00    -0.126 OA
ATOM     14  O   UNL     1       1.928  -8.966   3.387  0.00  0.00    -0.126 OA
ENDBRANCH   9  12
ENDBRANCH   5   6
BRANCH   1  15
ATOM     15  C   UNL     1      -0.656  -4.065  -1.449  0.00  0.00    +0.138 C 
ATOM     16  C   UNL     1      -0.531  -4.515  -2.905  0.00  0.00    +0.036 C 
BRANCH  15  19
ATOM     17  C   UNL     1       0.632  -2.000  -1.327  0.00  0.00    +0.221 C 
ATOM     18  O   UNL     1       1.645  -2.666  -1.337  0.00  0.00    -0.275 OA
ATOM     19  N   UNL     1      -0.572  -2.604  -1.380  0.00  0.00    -0.305 N 
ATOM     20  H   UNL     1      -1.383  -2.072  -1.372  0.00  0.00    +0.149 HD
BRANCH  17  21
ATOM     21  C   UNL     1       0.718  -0.497  -1.257  0.00  0.00    +0.105 C 
BRANCH  21  22
ATOM     22  C   UNL     1       2.165  -0.079  -1.208  0.00  0.00    -0.036 A 
ATOM     23  C   UNL     1       2.976  -0.514  -0.176  0.00  0.00    +0.004 A 
ATOM     24  C   UNL     1       4.303  -0.131  -0.131  0.00  0.00    +0.000 A 
ATOM     25  C   UNL     1       4.820   0.687  -1.119  0.00  0.00    +0.000 A 
ATOM     26  C   UNL     1       4.010   1.121  -2.151  0.00  0.00    +0.000 A 
ATOM     27  C   UNL     1       2.683   0.734  -2.198  0.00  0.00    +0.004 A 
ENDBRANCH  21  22
BRANCH  21  29
ATOM     28  C   UNL     1      -0.019   1.526   0.010  0.00  0.00    +0.005 C 
ATOM     29  C   UNL     1       0.002  -0.004   0.002  0.00  0.00    +0.014 C 
ENDBRANCH  21  29
ENDBRANCH  17  21
ENDBRANCH  15  19
ENDBRANCH   1  15
BRANCH   4  30
ATOM     30  S   UNL     1      -4.399  -6.720   1.239  0.00  0.00    -0.081 S 
BRANCH  30  31
ATOM     31  C   UNL     1      -6.138  -6.229   1.074  0.00  0.00    +0.112 C 
BRANCH  31  32
ATOM     32  C   UNL     1      -6.996  -7.127   1.927  0.00  0.00    -0.037 A 
ATOM     33  C   UNL     1      -7.511  -8.296   1.399  0.00  0.00    +0.007 A 
ATOM     34  C   UNL     1      -8.298  -9.121   2.180  0.00  0.00    +0.038 A 
ATOM     35  C   UNL     1      -8.571  -8.776   3.493  0.00  0.00    +0.123 A 
ATOM     36  C   UNL     1      -8.055  -7.605   4.021  0.00  0.00    +0.038 A 
ATOM     37  C   UNL     1      -7.264  -6.784   3.240  0.00  0.00    +0.007 A 
ATOM     38  F   UNL     1      -9.341  -9.581   4.257  0.00  0.00    -0.205 F 
ENDBRANCH  31  32
ENDBRANCH  30  31
ENDBRANCH   4  30
TORSDOF 10
