REMARK  Name = ZINC66701149
REMARK  7 active torsions:
REMARK  status: ('A' for Active; 'I' for Inactive)
REMARK    1  A    between atoms: C_1  and  C_2
REMARK    2  A    between atoms: C_2  and  N_3
REMARK    3  A    between atoms: C_9  and  C_11
REMARK    4  A    between atoms: C_11  and  C_12
REMARK    5  A    between atoms: N_20  and  C_21
REMARK    6  A    between atoms: C_21  and  C_22
REMARK    7  A    between atoms: C_26  and  C_27
REMARK                            x       y       z     vdW  Elec       q    Type
REMARK                         _______ _______ _______ _____ _____    ______ ____
ROOT
ATOM      1  C   UNL     1      -5.220  -5.029   2.380  0.00  0.00    +0.001 C 
ATOM      2  C   UNL     1      -4.588  -4.941   3.772  0.00  0.00    +0.023 C 
ATOM      3  C   UNL     1      -5.503  -5.633   4.787  0.00  0.00    +0.109 C 
ATOM      4  N   UNL     1      -5.767  -7.004   4.330  0.00  0.00    -0.286 N 
ATOM      5  C   UNL     1      -6.290  -7.207   2.972  0.00  0.00    +0.109 C 
ATOM      6  C   UNL     1      -5.366  -6.498   1.976  0.00  0.00    +0.023 C 
ATOM      7  C   UNL     1      -5.533  -8.055   5.140  0.00  0.00    +0.302 C 
ATOM      8  O   UNL     1      -5.840  -9.177   4.785  0.00  0.00    -0.253 OA
ATOM      9  N   UNL     1      -4.958  -7.863   6.344  0.00  0.00    -0.295 N 
ATOM     10  H   UNL     1      -4.780  -6.963   6.659  0.00  0.00    +0.151 HD
ENDROOT
BRANCH   1  11
ATOM     11  C   UNL     1      -4.325  -4.309   1.369  0.00  0.00    +0.099 C 
BRANCH  11  18
ATOM     12  N   UNL     1      -1.367  -0.518   0.012  0.00  0.00    +0.382 N 
ATOM     13  C   UNL     1      -2.019  -0.134   1.270  0.00  0.00    -0.060 C 
ATOM     14  C   UNL     1      -3.490  -0.563   1.234  0.00  0.00    +0.089 C 
ATOM     15  N   UNL     1      -3.549  -2.002   0.934  0.00  0.00    -0.305 N 
ATOM     16  C   UNL     1      -2.787  -2.501  -0.221  0.00  0.00    +0.089 C 
ATOM     17  C   UNL     1      -1.349  -1.981  -0.116  0.00  0.00    -0.060 C 
ATOM     18  C   UNL     1      -4.280  -2.839   1.696  0.00  0.00    +0.216 C 
ATOM     19  O   UNL     1      -4.902  -2.409   2.644  0.00  0.00    -0.276 OA
ATOM     20  H   UNL     1      -1.876  -0.120  -0.763  0.00  0.00    -0.082 HD
BRANCH  12  22
ATOM     21  C   UNL     1      -0.008   1.519   0.010  0.00  0.00    -0.017 C 
ATOM     22  C   UNL     1       0.012  -0.011   0.002  0.00  0.00    -0.082 C 
ENDBRANCH  12  22
ENDBRANCH  11  18
ENDBRANCH   1  11
BRANCH   9  23
ATOM     23  C   UNL     1      -4.602  -9.014   7.178  0.00  0.00    +0.144 C 
BRANCH  23  24
ATOM     24  C   UNL     1      -3.980  -8.531   8.462  0.00  0.00    +0.010 A 
ATOM     25  C   UNL     1      -2.599  -8.475   8.761  0.00  0.00    +0.046 A 
ATOM     26  C   UNL     1      -2.490  -7.982  10.008  0.00  0.00    +0.195 A 
ATOM     27  O   UNL     1      -3.724  -7.739  10.477  0.00  0.00    -0.468 OA
ATOM     28  C   UNL     1      -4.631  -8.065   9.543  0.00  0.00    +0.106 A 
ATOM     29  C   UNL     1      -6.126  -7.934   9.682  0.00  0.00    +0.086 C 
ENDBRANCH  23  24
ENDBRANCH   9  23
TORSDOF 5
