REMARK  Name = ZINC20681820
REMARK  7 active torsions:
REMARK  status: ('A' for Active; 'I' for Inactive)
REMARK    1  A    between atoms: C_1  and  N_2
REMARK    2  A    between atoms: N_2  and  C_3
REMARK    3  A    between atoms: N_2  and  S_9
REMARK    4  A    between atoms: S_9  and  C_12
REMARK    5  A    between atoms: C_25  and  C_28
REMARK    6  A    between atoms: C_31  and  O_35
REMARK    7  A    between atoms: C_33  and  O_34
REMARK                            x       y       z     vdW  Elec       q    Type
REMARK                         _______ _______ _______ _____ _____    ______ ____
ROOT
ATOM      1  C   UNL     1       3.385   3.602   0.911  0.00  0.00    +0.109 A 
ATOM      2  C   UNL     1       2.190   4.256   0.674  0.00  0.00    +0.030 A 
ATOM      3  C   UNL     1       1.026   3.526   0.538  0.00  0.00    +0.025 A 
ATOM      4  C   UNL     1       1.059   2.140   0.640  0.00  0.00    +0.031 A 
ATOM      5  C   UNL     1       2.264   1.473   0.858  0.00  0.00    -0.018 A 
ATOM      6  C   UNL     1       3.435   2.210   0.982  0.00  0.00    +0.034 A 
ATOM      7  C   UNL     1       2.354  -0.023   0.993  0.00  0.00    +0.049 C 
ATOM      8  C   UNL     1       2.913  -0.319   2.386  0.00  0.00    -0.023 C 
ATOM      9  C   UNL     1       1.944  -0.577   3.228  0.00  0.00    -0.030 C 
ATOM     10  C   UNL     1       0.598  -0.486   2.531  0.00  0.00    +0.033 C 
ATOM     11  C   UNL     1       0.966  -0.689   1.042  0.00  0.00    +0.029 C 
ATOM     12  C   UNL     1      -0.033   0.001   0.133  0.00  0.00    +0.108 C 
ATOM     13  N   UNL     1      -0.132   1.419   0.498  0.00  0.00    -0.336 N 
ATOM     14  H   UNL     1      -1.119   1.880   0.650  0.00  0.00    +0.147 HD
ENDROOT
BRANCH  12  15
ATOM     15  C   UNL     1       0.426  -0.118  -1.298  0.00  0.00    +0.015 A 
ATOM     16  C   UNL     1       1.020   0.960  -1.924  0.00  0.00    +0.012 A 
ATOM     17  C   UNL     1       1.442   0.854  -3.236  0.00  0.00    +0.046 A 
ATOM     18  C   UNL     1       1.269  -0.337  -3.927  0.00  0.00    +0.120 A 
ATOM     19  C   UNL     1       0.673  -1.420  -3.301  0.00  0.00    +0.091 A 
ATOM     20  C   UNL     1       0.255  -1.313  -1.983  0.00  0.00    +0.125 A 
BRANCH  20  21
ATOM     21  O   UNL     1      -0.325  -2.375  -1.364  0.00  0.00    -0.506 OA
ATOM     22  H   UNL     1      -0.459  -3.321  -1.908  0.00  0.00    +0.292 HD
ENDBRANCH  20  21
BRANCH  18  23
ATOM     23  O   UNL     1       1.684  -0.441  -5.217  0.00  0.00    -0.507 OA
ATOM     24  H   UNL     1       1.546  -1.385  -5.764  0.00  0.00    +0.292 HD
ENDBRANCH  18  23
ENDBRANCH  12  15
BRANCH   1  25
ATOM     25  S   UNL     1       4.874   4.529   1.083  0.00  0.00    +0.074 S 
ATOM     26  O   UNL     1       5.946   3.611   0.916  0.00  0.00    -0.150 OA
ATOM     27  O   UNL     1       4.728   5.686   0.271  0.00  0.00    -0.150 OA
BRANCH  25  29
ATOM     28  C   UNL     1       4.308   6.322   3.027  0.00  0.00    +0.157 C 
ATOM     29  N   UNL     1       4.943   5.057   2.651  0.00  0.00    -0.206 N 
BRANCH  29  30
ATOM     30  C   UNL     1       5.608   4.295   3.616  0.00  0.00    +0.051 A 
ATOM     31  C   UNL     1       5.716   2.919   3.463  0.00  0.00    +0.025 A 
ATOM     32  C   UNL     1       6.378   2.170   4.416  0.00  0.00    +0.002 A 
ATOM     33  C   UNL     1       6.923   2.787   5.526  0.00  0.00    +0.000 A 
ATOM     34  C   UNL     1       6.813   4.156   5.684  0.00  0.00    +0.002 A 
ATOM     35  C   UNL     1       6.157   4.912   4.733  0.00  0.00    +0.025 A 
ENDBRANCH  29  30
ENDBRANCH  25  29
ENDBRANCH   1  25
TORSDOF 6
