REMARK  Name = ZINC39884061
REMARK  6 active torsions:
REMARK  status: ('A' for Active; 'I' for Inactive)
REMARK    1  A    between atoms: C_1  and  O_2
REMARK    2  A    between atoms: O_2  and  C_3
REMARK    3  A    between atoms: C_3  and  C_5
REMARK    4  A    between atoms: C_5  and  N_6
REMARK    5  A    between atoms: C_24  and  C_34
REMARK    6  A    between atoms: C_39  and  O_40
REMARK                            x       y       z     vdW  Elec       q    Type
REMARK                         _______ _______ _______ _____ _____    ______ ____
ROOT
ATOM      1  N   UNL     1      -2.643  -2.570   0.013  0.00  0.00    -0.231 N 
ATOM      2  C   UNL     1      -3.325  -2.785   1.144  0.00  0.00    +0.226 C 
ATOM      3  O   UNL     1      -2.891  -2.624   2.265  0.00  0.00    -0.275 OA
ATOM      4  C   UNL     1      -4.722  -3.263   0.808  0.00  0.00    +0.091 C 
ATOM      5  C   UNL     1      -4.742  -4.819   1.073  0.00  0.00    +0.007 C 
ATOM      6  C   UNL     1      -5.834  -5.196  -0.003  0.00  0.00    +0.010 C 
ATOM      7  C   UNL     1      -5.052  -4.621  -1.255  0.00  0.00    +0.015 C 
ATOM      8  C   UNL     1      -4.755  -3.175  -0.747  0.00  0.00    +0.092 C 
ATOM      9  C   UNL     1      -3.345  -2.778  -1.107  0.00  0.00    +0.226 C 
ATOM     10  O   UNL     1      -2.914  -2.668  -2.235  0.00  0.00    -0.275 OA
ATOM     11  C   UNL     1      -3.784  -5.487  -1.091  0.00  0.00    +0.061 C 
ATOM     12  C   UNL     1      -3.426  -5.226   0.416  0.00  0.00    +0.019 C 
ATOM     13  C   UNL     1      -2.503  -6.251   0.974  0.00  0.00    +0.066 C 
ATOM     14  C   UNL     1      -1.229  -6.220   0.169  0.00  0.00    +0.032 A 
ATOM     15  C   UNL     1      -0.997  -5.692  -1.053  0.00  0.00    +0.087 A 
ATOM     16  N   UNL     1       0.295  -5.819  -1.502  0.00  0.00    -0.311 N 
ATOM     17  H   UNL     1       0.546  -5.457  -2.366  0.00  0.00    +0.170 HD
ATOM     18  C   UNL     1       1.214  -6.446  -0.742  0.00  0.00    +0.289 A 
ATOM     19  O   UNL     1       2.390  -6.645  -0.990  0.00  0.00    -0.260 OA
ATOM     20  S   UNL     1       0.347  -6.887   0.631  0.00  0.00    -0.030 S 
ATOM     21  S   UNL     1      -2.359  -4.929  -2.057  0.00  0.00    -0.103 S 
ENDROOT
BRANCH  13  22
ATOM     22  C   UNL     1      -2.202  -5.934   2.416  0.00  0.00    +0.002 A 
ATOM     23  C   UNL     1      -1.609  -4.732   2.751  0.00  0.00    +0.008 A 
ATOM     24  C   UNL     1      -1.333  -4.441   4.074  0.00  0.00    +0.001 A 
ATOM     25  C   UNL     1      -1.650  -5.351   5.065  0.00  0.00    +0.004 A 
ATOM     26  C   UNL     1      -2.243  -6.554   4.736  0.00  0.00    +0.046 A 
ATOM     27  C   UNL     1      -2.526  -6.846   3.409  0.00  0.00    +0.121 A 
BRANCH  27  28
ATOM     28  O   UNL     1      -3.116  -8.027   3.083  0.00  0.00    -0.506 OA
ATOM     29  H   UNL     1      -2.490  -8.742   2.905  0.00  0.00    +0.292 HD
ENDBRANCH  27  28
ENDBRANCH  13  22
BRANCH   1  30
ATOM     30  C   UNL     1      -1.244  -2.135   0.003  0.00  0.00    +0.236 C 
BRANCH  30  31
ATOM     31  C   UNL     1      -1.185  -0.630   0.010  0.00  0.00    +0.325 C 
ATOM     32  O   UNL     1      -2.208   0.015   0.023  0.00  0.00    -0.249 OA
BRANCH  31  34
ATOM     33  C   UNL     1      -0.017   1.425   0.010  0.00  0.00    +0.280 C 
ATOM     34  O   UNL     1       0.002  -0.004   0.002  0.00  0.00    -0.467 OA
ENDBRANCH  31  34
ENDBRANCH  30  31
ENDBRANCH   1  30
TORSDOF 5
