REMARK  Name = ZINC39528867
REMARK  5 active torsions:
REMARK  status: ('A' for Active; 'I' for Inactive)
REMARK    1  A    between atoms: C_1  and  C_2
REMARK    2  A    between atoms: C_2  and  C_3
REMARK    3  A    between atoms: C_8  and  N_9
REMARK    4  A    between atoms: C_13  and  C_16
REMARK    5  A    between atoms: C_21  and  O_22
REMARK                            x       y       z     vdW  Elec       q    Type
REMARK                         _______ _______ _______ _____ _____    ______ ____
ROOT
ATOM      1  N   UNL     1      -1.506  -0.315  -2.390  0.00  0.00    -0.333 N 
ATOM      2  C   UNL     1      -0.750  -1.308  -3.169  0.00  0.00    +0.086 C 
ATOM      3  C   UNL     1      -1.253  -1.276  -4.615  0.00  0.00    -0.063 C 
ATOM      4  N   UNL     1      -1.165   0.096  -5.133  0.00  0.00    +0.386 N 
ATOM      5  C   UNL     1      -2.071   0.973  -4.380  0.00  0.00    -0.020 C 
ATOM      6  C   UNL     1      -1.613   1.051  -2.925  0.00  0.00    +0.094 C 
ATOM      7  H   UNL     1      -0.218   0.430  -5.037  0.00  0.00    -0.085 HD
ATOM      8  H   UNL     1      -1.425   0.103  -6.108  0.00  0.00    -0.085 HD
ENDROOT
BRANCH   1  14
ATOM      9  C   UNL     1      -1.412  -0.526   0.013  0.00  0.00    -0.026 A 
ATOM     10  C   UNL     1      -2.015  -0.864   1.208  0.00  0.00    +0.019 A 
ATOM     11  C   UNL     1      -3.312  -1.343   1.219  0.00  0.00    +0.014 A 
ATOM     12  C   UNL     1      -4.010  -1.485   0.033  0.00  0.00    +0.016 A 
ATOM     13  C   UNL     1      -3.413  -1.149  -1.166  0.00  0.00    +0.024 A 
ATOM     14  C   UNL     1      -2.112  -0.662  -1.179  0.00  0.00    +0.033 A 
ATOM     15  I   UNL     1      -4.223  -1.854   3.035  0.00  0.00    -0.044 I 
BRANCH   9  17
ATOM     16  C   UNL     1      -0.019   1.526   0.010  0.00  0.00    +0.009 C 
ATOM     17  C   UNL     1       0.002  -0.004   0.002  0.00  0.00    +0.033 C 
ENDBRANCH   9  17
ENDBRANCH   1  14
BRANCH   5  18
ATOM     18  C   UNL     1      -2.055   2.352  -4.989  0.00  0.00    -0.018 A 
ATOM     19  C   UNL     1      -1.003   2.739  -5.796  0.00  0.00    +0.005 A 
ATOM     20  C   UNL     1      -0.988   4.004  -6.354  0.00  0.00    +0.000 A 
ATOM     21  C   UNL     1      -2.025   4.885  -6.106  0.00  0.00    +0.004 A 
ATOM     22  C   UNL     1      -3.079   4.502  -5.299  0.00  0.00    +0.045 A 
ATOM     23  C   UNL     1      -3.099   3.231  -4.743  0.00  0.00    +0.118 A 
BRANCH  23  24
ATOM     24  O   UNL     1      -4.138   2.850  -3.953  0.00  0.00    -0.507 OA
ATOM     25  H   UNL     1      -4.012   3.048  -3.015  0.00  0.00    +0.292 HD
ENDBRANCH  23  24
ENDBRANCH   5  18
TORSDOF 4
