REMARK  Name = ZINC64066913
REMARK  8 active torsions:
REMARK  status: ('A' for Active; 'I' for Inactive)
REMARK    1  A    between atoms: C_1  and  C_2
REMARK    2  A    between atoms: C_4  and  C_10
REMARK    3  A    between atoms: C_7  and  O_8
REMARK    4  A    between atoms: O_8  and  C_9
REMARK    5  A    between atoms: N_24  and  C_25
REMARK    6  A    between atoms: C_25  and  C_26
REMARK    7  A    between atoms: C_29  and  N_31
REMARK    8  A    between atoms: C_32  and  C_34
REMARK                            x       y       z     vdW  Elec       q    Type
REMARK                         _______ _______ _______ _____ _____    ______ ____
ROOT
ATOM      1  C   UNL     1       0.027  -2.816  -2.517  0.00  0.00    +0.114 C 
ATOM      2  C   UNL     1      -1.385  -3.318  -2.827  0.00  0.00    +0.128 C 
ATOM      3  C   UNL     1      -1.261  -4.197  -4.067  0.00  0.00    -0.035 C 
ATOM      4  C   UNL     1      -2.127  -3.722  -4.951  0.00  0.00    -0.001 A 
ATOM      5  C   UNL     1      -2.524  -4.195  -6.288  0.00  0.00    +0.010 A 
ATOM      6  C   UNL     1      -3.449  -3.442  -6.939  0.00  0.00    +0.001 A 
ATOM      7  C   UNL     1      -4.013  -2.280  -6.402  0.00  0.00    +0.002 A 
ATOM      8  C   UNL     1      -3.711  -1.776  -5.179  0.00  0.00    +0.026 A 
ATOM      9  C   UNL     1      -2.754  -2.484  -4.395  0.00  0.00    +0.043 A 
ATOM     10  N   UNL     1      -2.302  -2.236  -3.181  0.00  0.00    -0.376 N 
ATOM     11  C   UNL     1      -0.231  -5.296  -4.158  0.00  0.00    +0.049 C 
ATOM     12  C   UNL     1       1.102  -4.675  -3.701  0.00  0.00    +0.090 C 
ATOM     13  N   UNL     1       0.923  -3.979  -2.424  0.00  0.00    -0.288 NA
ATOM     14  H   UNL     1      -2.528  -1.478  -2.620  0.00  0.00    +0.160 HD
ENDROOT
BRANCH   1  18
ATOM     15  C   UNL     1      -0.018   1.503   0.010  0.00  0.00    +0.047 C 
ATOM     16  C   UNL     1       0.002  -0.004   0.002  0.00  0.00    -0.008 A 
ATOM     17  C   UNL     1       0.006  -0.689  -1.198  0.00  0.00    +0.012 A 
ATOM     18  C   UNL     1       0.024  -2.071  -1.206  0.00  0.00    -0.027 A 
ATOM     19  C   UNL     1       0.039  -2.772  -0.014  0.00  0.00    +0.009 A 
ATOM     20  C   UNL     1       0.036  -2.092   1.188  0.00  0.00    +0.046 A 
ATOM     21  C   UNL     1       0.023  -0.705   1.199  0.00  0.00    +0.123 A 
BRANCH  21  22
ATOM     22  O   UNL     1       0.025  -0.033   2.381  0.00  0.00    -0.495 OA
ATOM     23  C   UNL     1       0.048  -0.820   3.574  0.00  0.00    +0.277 C 
ENDBRANCH  21  22
ENDBRANCH   1  18
BRANCH  13  24
ATOM     24  C   UNL     1       2.219  -3.600  -1.844  0.00  0.00    +0.127 C 
BRANCH  24  25
ATOM     25  C   UNL     1       3.014  -4.843  -1.538  0.00  0.00    +0.006 A 
ATOM     26  C   UNL     1       3.890  -5.510  -2.327  0.00  0.00    +0.014 A 
ATOM     27  C   UNL     1       4.513  -6.641  -1.833  0.00  0.00    +0.031 A 
ATOM     28  C   UNL     1       4.225  -7.049  -0.566  0.00  0.00    +0.072 A 
ATOM     29  S   UNL     1       3.051  -5.812  -0.038  0.00  0.00    -0.077 S 
BRANCH  28  30
ATOM     30  N   UNL     1       4.722  -8.148   0.140  0.00  0.00    -0.280 N 
ATOM     31  C   UNL     1       4.307  -8.383   1.401  0.00  0.00    +0.214 C 
ATOM     32  O   UNL     1       3.501  -7.641   1.922  0.00  0.00    -0.276 OA
ATOM     33  C   UNL     1       4.843  -9.568   2.162  0.00  0.00    +0.109 C 
ATOM     34  H   UNL     1       5.367  -8.741  -0.277  0.00  0.00    +0.155 HD
ENDBRANCH  28  30
ENDBRANCH  24  25
ENDBRANCH  13  24
TORSDOF 5
