REMARK  Name = ZINC38180412
REMARK  14 active torsions:
REMARK  status: ('A' for Active; 'I' for Inactive)
REMARK    1  A    between atoms: C_1  and  C_2
REMARK    2  A    between atoms: N_8  and  C_39
REMARK    3  A    between atoms: N_12  and  N_13
REMARK    4  A    between atoms: C_14  and  C_16
REMARK    5  A    between atoms: C_16  and  C_17
REMARK    6  A    between atoms: C_17  and  C_18
REMARK    7  A    between atoms: C_18  and  C_19
REMARK    8  A    between atoms: C_19  and  C_20
REMARK    9  A    between atoms: C_20  and  C_21
REMARK   10  A    between atoms: C_21  and  C_22
REMARK   11  A    between atoms: C_22  and  C_23
REMARK   12  A    between atoms: N_25  and  N_26
REMARK   13  A    between atoms: N_30  and  C_38
REMARK   14  A    between atoms: C_34  and  C_37
REMARK                            x       y       z     vdW  Elec       q    Type
REMARK                         _______ _______ _______ _____ _____    ______ ____
ROOT
ATOM      1  C   UNL     1       0.024  -5.050 -10.596  0.00  0.00    +0.000 C 
ENDROOT
BRANCH   1   2
ATOM      2  C   UNL     1       0.038  -5.570  -9.157  0.00  0.00    +0.000 C 
BRANCH   2   3
ATOM      3  C   UNL     1       0.025  -4.387  -8.187  0.00  0.00    +0.009 C 
BRANCH   3   4
ATOM      4  C   UNL     1       0.040  -4.907  -6.748  0.00  0.00    +0.097 C 
BRANCH   4   6
ATOM      5  N   UNL     1       0.037  -3.961  -4.463  0.00  0.00    -0.206 N 
ATOM      6  C   UNL     1       0.028  -3.742  -5.793  0.00  0.00    +0.232 C 
ATOM      7  O   UNL     1       0.009  -2.607  -6.220  0.00  0.00    -0.274 OA
ATOM      8  H   UNL     1       0.052  -4.868  -4.121  0.00  0.00    +0.177 HD
BRANCH   5  20
ATOM      9  C   UNL     1      -0.018   1.503   0.010  0.00  0.00    +0.044 C 
ATOM     10  C   UNL     1       0.002  -0.004   0.002  0.00  0.00    -0.050 A 
ATOM     11  C   UNL     1       0.006  -0.687  -1.198  0.00  0.00    +0.015 A 
ATOM     12  C   UNL     1       0.025  -2.077  -1.200  0.00  0.00    +0.029 A 
ATOM     13  C   UNL     1       0.041  -2.788   0.007  0.00  0.00    +0.046 A 
ATOM     14  C   UNL     1       0.035  -2.083   1.206  0.00  0.00    +0.024 A 
ATOM     15  C   UNL     1       0.023  -0.702   1.197  0.00  0.00    +0.005 A 
ATOM     16  N   UNL     1       0.059  -4.152  -0.262  0.00  0.00    -0.269 N 
ATOM     17  C   UNL     1       0.057  -4.392  -1.584  0.00  0.00    +0.271 C 
ATOM     18  O   UNL     1       0.070  -5.488  -2.113  0.00  0.00    -0.268 OA
ATOM     19  C   UNL     1       0.035  -3.090  -2.281  0.00  0.00    +0.153 C 
ATOM     20  N   UNL     1       0.025  -2.877  -3.575  0.00  0.00    -0.175 NA
ATOM     21  C   UNL     1       0.079  -5.195   0.766  0.00  0.00    +0.138 C 
ENDBRANCH   5  20
ENDBRANCH   4   6
ENDBRANCH   3   4
ENDBRANCH   2   3
ENDBRANCH   1   2
BRANCH   1  22
ATOM     22  C   UNL     1       0.036  -6.233 -11.566  0.00  0.00    +0.000 C 
BRANCH  22  23
ATOM     23  C   UNL     1       0.022  -5.713 -13.005  0.00  0.00    +0.009 C 
BRANCH  23  24
ATOM     24  C   UNL     1       0.035  -6.896 -13.975  0.00  0.00    +0.097 C 
BRANCH  24  25
ATOM     25  C   UNL     1       0.020  -6.384 -15.392  0.00  0.00    +0.232 C 
ATOM     26  O   UNL     1       0.002  -5.191 -15.605  0.00  0.00    -0.274 OA
ATOM     27  N   UNL     1       0.028  -7.253 -16.423  0.00  0.00    -0.206 N 
ATOM     28  H   UNL     1       0.043  -8.208 -16.252  0.00  0.00    +0.177 HD
BRANCH  27  29
ATOM     29  N   UNL     1       0.015  -6.777 -17.740  0.00  0.00    -0.175 NA
ATOM     30  C   UNL     1       0.022  -7.621 -18.742  0.00  0.00    +0.153 C 
ATOM     31  C   UNL     1       0.038  -9.097 -18.675  0.00  0.00    +0.271 C 
ATOM     32  O   UNL     1       0.046  -9.768 -17.660  0.00  0.00    -0.268 OA
ATOM     33  N   UNL     1       0.040  -9.567 -19.934  0.00  0.00    -0.269 N 
ATOM     34  C   UNL     1       0.028  -8.533 -20.863  0.00  0.00    +0.046 A 
ATOM     35  C   UNL     1       0.011  -7.304 -20.190  0.00  0.00    +0.029 A 
ATOM     36  C   UNL     1      -0.010  -6.111 -20.903  0.00  0.00    +0.015 A 
ATOM     37  C   UNL     1      -0.016  -6.139 -22.283  0.00  0.00    -0.050 A 
ATOM     38  C   UNL     1      -0.003  -7.350 -22.953  0.00  0.00    +0.005 A 
ATOM     39  C   UNL     1       0.025  -8.540 -22.254  0.00  0.00    +0.024 A 
ATOM     40  C   UNL     1      -0.038  -4.848 -23.062  0.00  0.00    +0.044 C 
ATOM     41  C   UNL     1       0.055 -10.990 -20.283  0.00  0.00    +0.138 C 
ENDBRANCH  27  29
ENDBRANCH  24  25
ENDBRANCH  23  24
ENDBRANCH  22  23
ENDBRANCH   1  22
TORSDOF 10
