REMARK  Name = ZINC32089651
REMARK  7 active torsions:
REMARK  status: ('A' for Active; 'I' for Inactive)
REMARK    1  A    between atoms: C_1  and  C_2
REMARK    2  A    between atoms: C_5  and  N_9
REMARK    3  A    between atoms: C_7  and  C_8
REMARK    4  A    between atoms: N_25  and  C_28
REMARK    5  A    between atoms: C_28  and  C_29
REMARK    6  A    between atoms: C_29  and  C_30
REMARK    7  A    between atoms: C_29  and  C_31
REMARK                            x       y       z     vdW  Elec       q    Type
REMARK                         _______ _______ _______ _____ _____    ______ ____
ROOT
ATOM      1  N   UNL     1       0.059  -4.172  -0.021  0.00  0.00    -0.218 N 
ATOM      2  C   UNL     1      -0.556  -4.971  -0.917  0.00  0.00    +0.133 A 
ATOM      3  C   UNL     1      -0.298  -6.270  -0.558  0.00  0.00    +0.032 A 
ATOM      4  C   UNL     1       0.501  -6.249   0.575  0.00  0.00    +0.141 A 
ATOM      5  N   UNL     1       0.725  -4.997   0.900  0.00  0.00    -0.173 NA
ATOM      6  C   UNL     1      -0.849  -7.434  -1.332  0.00  0.00    +0.112 C 
ATOM      7  C   UNL     1      -1.059  -7.020  -2.787  0.00  0.00    +0.122 C 
ATOM      8  C   UNL     1      -1.672  -5.650  -2.878  0.00  0.00    +0.220 C 
ATOM      9  O   UNL     1      -2.490  -5.430  -3.747  0.00  0.00    -0.275 OA
ATOM     10  N   UNL     1      -1.341  -4.658  -2.025  0.00  0.00    -0.270 N 
ATOM     11  C   UNL     1      -2.120  -7.936  -0.725  0.00  0.00    -0.006 A 
ATOM     12  C   UNL     1      -3.338  -7.325  -0.515  0.00  0.00    +0.007 A 
ATOM     13  C   UNL     1      -4.331  -8.088   0.088  0.00  0.00    +0.000 A 
ATOM     14  C   UNL     1      -4.106  -9.398   0.459  0.00  0.00    +0.002 A 
ATOM     15  C   UNL     1      -2.884 -10.019   0.252  0.00  0.00    +0.024 A 
ATOM     16  C   UNL     1      -1.878  -9.264  -0.353  0.00  0.00    +0.041 A 
ATOM     17  N   UNL     1      -0.581  -9.625  -0.674  0.00  0.00    -0.270 N 
ATOM     18  C   UNL     1       0.097  -8.612  -1.254  0.00  0.00    +0.235 C 
ATOM     19  O   UNL     1       1.246  -8.641  -1.640  0.00  0.00    -0.274 OA
ATOM     20  H   UNL     1      -1.644  -3.749  -2.179  0.00  0.00    +0.156 HD
ENDROOT
BRANCH   1  25
ATOM     21  C   UNL     1      -0.018   1.503   0.010  0.00  0.00    +0.044 C 
ATOM     22  C   UNL     1       0.002  -0.004   0.002  0.00  0.00    -0.047 A 
ATOM     23  C   UNL     1       0.006  -0.688  -1.200  0.00  0.00    +0.006 A 
ATOM     24  C   UNL     1       0.025  -2.068  -1.211  0.00  0.00    +0.028 A 
ATOM     25  C   UNL     1       0.040  -2.771  -0.013  0.00  0.00    +0.068 A 
ATOM     26  C   UNL     1       0.037  -2.082   1.192  0.00  0.00    +0.031 A 
ATOM     27  C   UNL     1       0.023  -0.700   1.196  0.00  0.00    -0.046 A 
ATOM     28  C   UNL     1       0.025   0.048   2.504  0.00  0.00    +0.044 C 
ENDBRANCH   1  25
BRANCH  17  29
ATOM     29  C   UNL     1      -0.012 -10.950  -0.416  0.00  0.00    +0.116 C 
BRANCH  29  30
ATOM     30  C   UNL     1      -0.259 -11.856  -1.623  0.00  0.00    +0.001 C 
ATOM     31  C   UNL     1       0.442 -13.199  -1.406  0.00  0.00    +0.009 C 
ATOM     32  C   UNL     1      -1.763 -12.087  -1.788  0.00  0.00    +0.009 C 
ENDBRANCH  29  30
ENDBRANCH  17  29
TORSDOF 3
