REMARK  Name = ZINC24001971
REMARK  5 active torsions:
REMARK  status: ('A' for Active; 'I' for Inactive)
REMARK    1  A    between atoms: C_3  and  C_6
REMARK    2  A    between atoms: C_14  and  C_16
REMARK    3  A    between atoms: C_16  and  N_17
REMARK    4  A    between atoms: C_26  and  S_29
REMARK    5  A    between atoms: S_29  and  N_32
REMARK                            x       y       z     vdW  Elec       q    Type
REMARK                         _______ _______ _______ _____ _____    ______ ____
ROOT
ATOM      1  N   UNL     1       2.227  -3.505  -4.830  0.00  0.00    -0.292 NA
ATOM      2  C   UNL     1       0.989  -4.248  -4.558  0.00  0.00    +0.104 C 
ATOM      3  C   UNL     1       0.180  -4.377  -5.850  0.00  0.00    +0.122 C 
ATOM      4  N   UNL     1       0.990  -5.063  -6.866  0.00  0.00    -0.313 N 
ATOM      5  C   UNL     1       2.228  -4.320  -7.138  0.00  0.00    +0.122 C 
ATOM      6  C   UNL     1       3.038  -4.192  -5.846  0.00  0.00    +0.104 C 
ATOM      7  C   UNL     1       0.262  -5.262  -8.033  0.00  0.00    +0.121 A 
ATOM      8  C   UNL     1      -0.944  -5.954  -7.984  0.00  0.00    +0.045 A 
ATOM      9  C   UNL     1      -1.661  -6.139  -9.152  0.00  0.00    +0.033 A 
ATOM     10  C   UNL     1      -1.141  -5.635 -10.336  0.00  0.00    +0.123 A 
ATOM     11  C   UNL     1       0.065  -4.964 -10.313  0.00  0.00    +0.141 A 
ATOM     12  N   UNL     1       0.725  -4.796  -9.183  0.00  0.00    -0.238 NA
ENDROOT
BRANCH  10  13
ATOM     13  S   UNL     1      -2.011  -5.849 -11.853  0.00  0.00    +0.057 S 
ATOM     14  O   UNL     1      -3.378  -6.037 -11.514  0.00  0.00    -0.153 OA
ATOM     15  O   UNL     1      -1.577  -4.811 -12.721  0.00  0.00    -0.153 OA
BRANCH  13  16
ATOM     16  N   UNL     1      -1.489  -7.272 -12.520  0.00  0.00    -0.203 NA
ATOM     17  H   UNL     1      -2.011  -7.444 -13.473  0.00  0.00    +0.144 HD
ATOM     18  H   UNL     1      -1.705  -8.102 -11.830  0.00  0.00    +0.144 HD
ENDBRANCH  13  16
ENDBRANCH  10  13
BRANCH   1  19
ATOM     19  C   UNL     1       2.997  -3.295  -3.596  0.00  0.00    +0.158 C 
BRANCH  19  28
ATOM     20  C   UNL     1       0.002  -0.004   0.002  0.00  0.00    +0.010 A 
ATOM     21  C   UNL     1      -0.726  -0.711   0.902  0.00  0.00    +0.057 A 
ATOM     22  S   UNL     1      -0.369  -2.405   0.477  0.00  0.00    -0.076 S 
ATOM     23  C   UNL     1       0.743  -2.125  -0.874  0.00  0.00    +0.116 A 
ATOM     24  C   UNL     1       0.810  -0.732  -0.970  0.00  0.00    +0.080 A 
ATOM     25  C   UNL     1       1.689  -0.218  -2.042  0.00  0.00    +0.260 A 
ATOM     26  O   UNL     1       1.819   0.984  -2.213  0.00  0.00    -0.267 OA
ATOM     27  N   UNL     1       2.341  -1.091  -2.824  0.00  0.00    -0.309 N 
ATOM     28  C   UNL     1       2.230  -2.382  -2.675  0.00  0.00    +0.125 A 
ATOM     29  N   UNL     1       1.447  -2.922  -1.719  0.00  0.00    -0.225 NA
ATOM     30  H   UNL     1       2.999  -0.726  -3.627  0.00  0.00    +0.170 HD
BRANCH  20  33
ATOM     31  C   UNL     1      -0.863   3.682   0.030  0.00  0.00    +0.008 A 
ATOM     32  C   UNL     1      -1.093   2.322   0.019  0.00  0.00    +0.016 A 
ATOM     33  C   UNL     1      -0.018   1.474   0.010  0.00  0.00    +0.021 A 
ATOM     34  S   UNL     1       1.353   2.618   0.003  0.00  0.00    -0.097 S 
ATOM     35  C   UNL     1       0.415   4.136   0.020  0.00  0.00    +0.046 A 
ENDBRANCH  20  33
ENDBRANCH  19  28
ENDBRANCH   1  19
TORSDOF 5
