REMARK  Name = ZINC34811981
REMARK  3 active torsions:
REMARK  status: ('A' for Active; 'I' for Inactive)
REMARK    1  A    between atoms: C_4  and  O_7
REMARK    2  A    between atoms: O_7  and  C_8
REMARK    3  A    between atoms: C_8  and  C_9
REMARK                            x       y       z     vdW  Elec       q    Type
REMARK                         _______ _______ _______ _____ _____    ______ ____
ROOT
ATOM      1  C   UNL     1       4.932  -2.615  -0.061  0.00  0.00    +0.253 C 
ATOM      2  O   UNL     1       5.883  -1.863  -0.067  0.00  0.00    -0.272 OA
ATOM      3  N   UNL     1       5.128  -3.949  -0.070  0.00  0.00    -0.298 N 
ATOM      4  C   UNL     1       3.986  -4.873  -0.070  0.00  0.00    +0.111 C 
ATOM      5  C   UNL     1       4.151  -5.860   1.091  0.00  0.00    +0.064 C 
ATOM      6  C   UNL     1       5.515  -6.547   0.979  0.00  0.00    +0.102 C 
ATOM      7  C   UNL     1       6.624  -5.497   1.078  0.00  0.00    +0.064 C 
ATOM      8  C   UNL     1       6.488  -4.505  -0.087  0.00  0.00    +0.111 C 
ATOM      9  N   UNL     1       5.607  -7.225  -0.322  0.00  0.00    -0.323 N 
ATOM     10  C   UNL     1       4.908  -8.414  -0.499  0.00  0.00    +0.042 A 
ATOM     11  C   UNL     1       4.423  -8.801  -1.736  0.00  0.00    +0.024 A 
ATOM     12  C   UNL     1       3.729  -9.990  -1.857  0.00  0.00    +0.003 A 
ATOM     13  C   UNL     1       3.514 -10.796  -0.751  0.00  0.00    +0.021 A 
ATOM     14  C   UNL     1       3.993 -10.426   0.491  0.00  0.00    +0.055 A 
ATOM     15  C   UNL     1       4.698  -9.231   0.626  0.00  0.00    +0.076 A 
ATOM     16  C   UNL     1       5.240  -8.792   1.923  0.00  0.00    +0.249 C 
ATOM     17  O   UNL     1       5.308  -9.569   2.856  0.00  0.00    -0.270 OA
ATOM     18  N   UNL     1       5.662  -7.518   2.064  0.00  0.00    -0.290 N 
ATOM     19 CL   UNL     1       3.720 -11.441   1.873  0.00  0.00    -0.083 Cl
ATOM     20  H   UNL     1       6.142  -6.851  -1.039  0.00  0.00    +0.148 HD
ATOM     21  H   UNL     1       6.069  -7.240   2.899  0.00  0.00    +0.151 HD
ENDROOT
BRANCH   1  22
ATOM     22  C   UNL     1       3.531  -2.060  -0.044  0.00  0.00    +0.324 C 
BRANCH  22  23
ATOM     23  O   UNL     1       3.586  -0.632  -0.037  0.00  0.00    -0.483 OA
BRANCH  23  27
ATOM     24  C   UNL     1      -0.017   1.378   0.010  0.00  0.00    +0.000 A 
ATOM     25  C   UNL     1       1.170   2.088   0.002  0.00  0.00    +0.004 A 
ATOM     26  C   UNL     1       2.377   1.417  -0.013  0.00  0.00    +0.045 A 
ATOM     27  C   UNL     1       2.399   0.030  -0.021  0.00  0.00    +0.121 A 
ATOM     28  C   UNL     1       1.207  -0.680  -0.013  0.00  0.00    +0.045 A 
ATOM     29  C   UNL     1       0.002  -0.004   0.002  0.00  0.00    +0.004 A 
ENDBRANCH  23  27
ENDBRANCH  22  23
ENDBRANCH   1  22
TORSDOF 3
