REMARK  Name = ZINC21023987
REMARK  6 active torsions:
REMARK  status: ('A' for Active; 'I' for Inactive)
REMARK    1  A    between atoms: C_1  and  C_2
REMARK    2  A    between atoms: C_8  and  C_10
REMARK    3  A    between atoms: C_10  and  C_11
REMARK    4  A    between atoms: C_11  and  C_12
REMARK    5  A    between atoms: N_21  and  C_22
REMARK    6  A    between atoms: C_22  and  C_23
REMARK                            x       y       z     vdW  Elec       q    Type
REMARK                         _______ _______ _______ _____ _____    ______ ____
ROOT
ATOM      1  C   UNL     1      -7.625   3.958   5.516  0.00  0.00    +0.156 A 
ATOM      2  N   UNL     1      -8.216   5.111   5.318  0.00  0.00    -0.132 NA
ATOM      3  N   UNL     1      -9.475   5.013   5.571  0.00  0.00    -0.128 NA
ATOM      4  C   UNL     1      -9.747   3.776   5.957  0.00  0.00    +0.178 A 
ATOM      5  N   UNL     1      -8.564   3.080   5.927  0.00  0.00    -0.195 N 
ATOM      6  N   UNL     1      -8.537   1.732   6.288  0.00  0.00    -0.148 NA
ATOM      7  C   UNL     1      -9.636   1.119   6.659  0.00  0.00    +0.140 A 
ATOM      8  C   UNL     1     -10.866   1.804   6.699  0.00  0.00    +0.049 A 
ATOM      9  C   UNL     1     -10.926   3.118   6.354  0.00  0.00    +0.053 A 
ATOM     10  N   UNL     1      -9.587  -0.225   7.016  0.00  0.00    -0.324 N 
ATOM     11  H   UNL     1      -8.630  -0.767   6.986  0.00  0.00    +0.148 HD
ENDROOT
BRANCH   1  12
ATOM     12  C   UNL     1      -6.159   3.666   5.324  0.00  0.00    +0.087 C 
BRANCH  12  13
ATOM     13  C   UNL     1      -5.916   3.196   3.889  0.00  0.00    +0.104 C 
BRANCH  13  21
ATOM     14  C   UNL     1      -0.013   1.086   0.008  0.00  0.00    +0.066 C 
ATOM     15  C   UNL     1      -0.718   1.572   1.248  0.00  0.00    +0.047 A 
ATOM     16  C   UNL     1      -0.029   1.806   2.391  0.00  0.00    +0.071 A 
ATOM     17  S   UNL     1      -1.348   2.342   3.471  0.00  0.00    -0.060 S 
ATOM     18  C   UNL     1      -2.646   2.204   2.326  0.00  0.00    +0.165 A 
ATOM     19  N   UNL     1      -2.019   1.784   1.244  0.00  0.00    -0.230 NA
ATOM     20  N   UNL     1      -3.999   2.473   2.502  0.00  0.00    -0.265 N 
ATOM     21  C   UNL     1      -4.449   2.904   3.697  0.00  0.00    +0.219 C 
ATOM     22  O   UNL     1      -3.675   3.058   4.618  0.00  0.00    -0.275 OA
ATOM     23  H   UNL     1      -4.701   2.334   1.667  0.00  0.00    +0.157 HD
ENDBRANCH  13  21
ENDBRANCH  12  13
ENDBRANCH   1  12
BRANCH  10  24
ATOM     24  C   UNL     1     -10.809  -0.918   7.430  0.00  0.00    +0.138 C 
BRANCH  24  25
ATOM     25  C   UNL     1     -10.486  -2.352   7.761  0.00  0.00    -0.030 A 
ATOM     26  C   UNL     1     -10.553  -3.320   6.777  0.00  0.00    +0.005 A 
ATOM     27  C   UNL     1     -10.251  -4.635   7.080  0.00  0.00    +0.000 A 
ATOM     28  C   UNL     1      -9.892  -4.983   8.368  0.00  0.00    +0.000 A 
ATOM     29  C   UNL     1      -9.830  -4.015   9.354  0.00  0.00    +0.000 A 
ATOM     30  C   UNL     1     -10.127  -2.700   9.050  0.00  0.00    +0.005 A 
ENDBRANCH  24  25
ENDBRANCH  10  24
TORSDOF 5
