REMARK  Name = ZINC03504723
REMARK  8 active torsions:
REMARK  status: ('A' for Active; 'I' for Inactive)
REMARK    1  A    between atoms: C_1  and  C_2
REMARK    2  A    between atoms: C_2  and  C_4
REMARK    3  A    between atoms: C_2  and  O_17
REMARK    4  A    between atoms: N_6  and  C_7
REMARK    5  A    between atoms: C_9  and  N_14
REMARK    6  A    between atoms: O_17  and  C_18
REMARK    7  A    between atoms: C_18  and  C_20
REMARK    8  A    between atoms: C_20  and  C_21
REMARK                            x       y       z     vdW  Elec       q    Type
REMARK                         _______ _______ _______ _____ _____    ______ ____
ROOT
ATOM      1  C   UNL     1       0.650  -2.784   1.056  0.00  0.00    +0.062 C 
ATOM      2  C   UNL     1       1.185  -2.163  -0.236  0.00  0.00    +0.259 C 
ENDROOT
BRANCH   2   3
ATOM      3  C   UNL     1       1.173  -0.661  -0.114  0.00  0.00    +0.258 C 
ATOM      4  O   UNL     1       2.217  -0.044  -0.121  0.00  0.00    -0.271 OA
ATOM      5  N   UNL     1       0.002  -0.004   0.002  0.00  0.00    -0.281 N 
ATOM      6  H   UNL     1      -0.827  -0.501   0.088  0.00  0.00    +0.155 HD
BRANCH   5   7
ATOM      7  C   UNL     1      -0.018   1.396  -0.001  0.00  0.00    +0.054 A 
ATOM      8  C   UNL     1       1.006   2.105  -0.615  0.00  0.00    +0.057 A 
ATOM      9  C   UNL     1       0.983   3.486  -0.617  0.00  0.00    +0.128 A 
ATOM     10  C   UNL     1      -0.058   4.163  -0.009  0.00  0.00    +0.034 A 
ATOM     11  C   UNL     1      -1.079   3.461   0.604  0.00  0.00    +0.024 A 
ATOM     12  C   UNL     1      -1.066   2.078   0.605  0.00  0.00    +0.062 A 
ATOM     13 CL   UNL     1      -2.352   1.197   1.367  0.00  0.00    -0.082 Cl
BRANCH   9  14
ATOM     14  N   UNL     1       2.075   4.242  -1.271  0.00  0.00    +0.056 N 
ATOM     15  O   UNL     1       2.992   3.646  -1.807  0.00  0.00    -0.126 OA
ATOM     16  O   UNL     1       2.055   5.460  -1.273  0.00  0.00    -0.126 OA
ENDBRANCH   9  14
ENDBRANCH   5   7
ENDBRANCH   2   3
BRANCH   2  17
ATOM     17  O   UNL     1       2.544  -2.620  -0.466  0.00  0.00    -0.452 OA
BRANCH  17  18
ATOM     18  C   UNL     1       2.696  -3.744  -1.184  0.00  0.00    +0.309 C 
ATOM     19  O   UNL     1       1.726  -4.327  -1.605  0.00  0.00    -0.251 OA
BRANCH  18  20
ATOM     20  C   UNL     1       4.077  -4.278  -1.464  0.00  0.00    +0.144 C 
BRANCH  20  21
ATOM     21  C   UNL     1       3.970  -5.559  -2.294  0.00  0.00    +0.148 C 
ATOM     22  C   UNL     1       5.339  -6.163  -2.472  0.00  0.00    +0.231 C 
ATOM     23  O   UNL     1       5.667  -7.074  -1.741  0.00  0.00    -0.274 OA
ATOM     24  N   UNL     1       6.204  -5.746  -3.391  0.00  0.00    -0.284 N 
ATOM     25  C   UNL     1       5.967  -4.802  -4.386  0.00  0.00    +0.047 A 
ATOM     26  C   UNL     1       7.048  -4.218  -5.038  0.00  0.00    +0.024 A 
ATOM     27  C   UNL     1       6.840  -3.274  -6.024  0.00  0.00    +0.002 A 
ATOM     28  C   UNL     1       5.556  -2.898  -6.374  0.00  0.00    +0.001 A 
ATOM     29  C   UNL     1       4.472  -3.472  -5.736  0.00  0.00    +0.016 A 
ATOM     30  C   UNL     1       4.675  -4.422  -4.749  0.00  0.00    +0.030 A 
ATOM     31  S   UNL     1       3.295  -5.167  -3.937  0.00  0.00    -0.110 S 
ATOM     32  H   UNL     1       7.090  -6.140  -3.365  0.00  0.00    +0.155 HD
ENDBRANCH  20  21
ENDBRANCH  18  20
ENDBRANCH  17  18
ENDBRANCH   2  17
TORSDOF 7
