REMARK  Name = ZINC39559030
REMARK  9 active torsions:
REMARK  status: ('A' for Active; 'I' for Inactive)
REMARK    1  A    between atoms: C_1  and  C_2
REMARK    2  A    between atoms: C_2  and  C_30
REMARK    3  A    between atoms: C_3  and  C_4
REMARK    4  A    between atoms: C_6  and  C_11
REMARK    5  A    between atoms: C_8  and  C_9
REMARK    6  A    between atoms: C_8  and  C_10
REMARK    7  A    between atoms: N_13  and  C_14
REMARK    8  A    between atoms: C_14  and  C_15
REMARK    9  A    between atoms: N_17  and  C_18
REMARK                            x       y       z     vdW  Elec       q    Type
REMARK                         _______ _______ _______ _____ _____    ______ ____
ROOT
ATOM      1  C   UNL     1      -4.332  -0.361   6.223  0.00  0.00    +0.234 C 
ATOM      2  O   UNL     1      -4.725  -1.130   5.371  0.00  0.00    -0.274 OA
ATOM      3  N   UNL     1      -5.123  -0.051   7.269  0.00  0.00    -0.284 N 
ATOM      4  H   UNL     1      -4.839   0.619   7.910  0.00  0.00    +0.155 HD
ENDROOT
BRANCH   3   5
ATOM      5  C   UNL     1      -6.356  -0.697   7.430  0.00  0.00    +0.036 A 
ATOM      6  C   UNL     1      -7.431  -0.010   7.981  0.00  0.00    +0.025 A 
ATOM      7  C   UNL     1      -8.649  -0.641   8.143  0.00  0.00    +0.029 A 
ATOM      8  C   UNL     1      -8.800  -1.963   7.754  0.00  0.00    +0.067 A 
ATOM      9  C   UNL     1      -7.721  -2.656   7.199  0.00  0.00    +0.069 A 
ATOM     10  C   UNL     1      -6.502  -2.018   7.034  0.00  0.00    +0.051 A 
ATOM     11  N   UNL     1      -8.173  -3.942   6.913  0.00  0.00    -0.306 N 
ATOM     12  H   UNL     1      -7.645  -4.654   6.519  0.00  0.00    +0.170 HD
ATOM     13  C   UNL     1      -9.466  -4.029   7.276  0.00  0.00    +0.325 A 
ATOM     14  O   UNL     1     -10.162  -5.021   7.160  0.00  0.00    -0.247 OA
ATOM     15  N   UNL     1      -9.874  -2.852   7.787  0.00  0.00    -0.306 N 
ATOM     16  H   UNL     1     -10.764  -2.656   8.121  0.00  0.00    +0.170 HD
ENDBRANCH   3   5
BRANCH   1  17
ATOM     17  C   UNL     1      -2.957   0.246   6.111  0.00  0.00    +0.200 C 
BRANCH  17  20
ATOM     18  C   UNL     1      -1.057   0.167   4.588  0.00  0.00    +0.218 C 
ATOM     19  O   UNL     1      -0.477   0.944   5.317  0.00  0.00    -0.275 OA
ATOM     20  N   UNL     1      -2.302  -0.245   4.896  0.00  0.00    -0.306 N 
ATOM     21  H   UNL     1      -2.766  -0.867   4.314  0.00  0.00    +0.149 HD
BRANCH  18  23
ATOM     22  C   UNL     1       0.996   0.230   3.000  0.00  0.00    +0.030 C 
ATOM     23  C   UNL     1      -0.383  -0.339   3.339  0.00  0.00    +0.089 C 
ATOM     24  C   UNL     1       0.866  -1.206   3.510  0.00  0.00    -0.016 C 
ATOM     25  C   UNL     1       1.336  -1.494   4.938  0.00  0.00    +0.012 C 
ATOM     26  C   UNL     1       1.086  -2.337   2.503  0.00  0.00    +0.012 C 
BRANCH  22  29
ATOM     27  C   UNL     1       3.342   1.605   2.263  0.00  0.00    +0.038 C 
ATOM     28  C   UNL     1       2.421   1.062   1.200  0.00  0.00    -0.079 C 
ATOM     29  C   UNL     1       1.330   0.423   1.543  0.00  0.00    -0.023 C 
ATOM     30  C   UNL     1       2.755   1.255  -0.257  0.00  0.00    +0.038 C 
ENDBRANCH  22  29
ENDBRANCH  18  23
ENDBRANCH  17  20
ENDBRANCH   1  17
TORSDOF 5
