REMARK  Name = ZINC35465143
REMARK  12 active torsions:
REMARK  status: ('A' for Active; 'I' for Inactive)
REMARK    1  A    between atoms: C_1  and  C_2
REMARK    2  A    between atoms: C_9  and  O_15
REMARK    3  A    between atoms: C_16  and  C_39
REMARK    4  A    between atoms: C_19  and  O_35
REMARK    5  A    between atoms: C_21  and  C_33
REMARK    6  A    between atoms: C_21  and  C_34
REMARK    7  A    between atoms: C_24  and  O_29
REMARK    8  A    between atoms: C_26  and  O_28
REMARK    9  A    between atoms: O_29  and  C_30
REMARK   10  A    between atoms: C_30  and  C_32
REMARK   11  A    between atoms: O_35  and  C_36
REMARK   12  A    between atoms: C_36  and  C_38
REMARK                            x       y       z     vdW  Elec       q    Type
REMARK                         _______ _______ _______ _____ _____    ______ ____
ROOT
ATOM      1  C   UNL     1      -0.132   1.581  -0.147  0.00  0.00    +0.013 C 
ATOM      2  C   UNL     1      -0.071   0.043  -0.101  0.00  0.00    +0.024 C 
ATOM      3  C   UNL     1       0.707  -0.476  -1.314  0.00  0.00    +0.032 C 
ATOM      4  C   UNL     1       1.186  -1.903  -1.185  0.00  0.00    +0.008 C 
ATOM      5  C   UNL     1       1.969  -2.197   0.084  0.00  0.00    +0.088 C 
ATOM      6  C   UNL     1       1.289  -1.733   1.357  0.00  0.00    +0.237 C 
ATOM      7  C   UNL     1       0.683  -0.363   1.139  0.00  0.00    +0.011 C 
ATOM      8  C   UNL     1       0.927   0.334   2.239  0.00  0.00    +0.097 C 
ATOM      9  C   UNL     1       1.764  -0.484   3.130  0.00  0.00    +0.335 C 
ATOM     10  O   UNL     1       2.009  -0.246   4.292  0.00  0.00    -0.246 OA
ATOM     11  O   UNL     1       2.238  -1.536   2.422  0.00  0.00    -0.425 OA
ATOM     12  C   UNL     1       0.142  -2.943  -1.529  0.00  0.00    -0.022 C 
ATOM     13  C   UNL     1       0.707  -4.353  -1.331  0.00  0.00    +0.011 C 
ATOM     14  C   UNL     1       1.823  -4.588  -2.350  0.00  0.00    +0.046 C 
ATOM     15  C   UNL     1       1.173  -4.633  -3.729  0.00  0.00    +0.182 C 
ATOM     16  C   UNL     1       0.508  -3.293  -4.068  0.00  0.00    +0.009 C 
ATOM     17  C   UNL     1      -0.358  -2.753  -2.960  0.00  0.00    +0.048 C 
ATOM     18  C   UNL     1      -0.877  -1.343  -3.155  0.00  0.00    +0.209 C 
ATOM     19  C   UNL     1      -0.041  -0.209  -2.605  0.00  0.00    +0.159 C 
ATOM     20  C   UNL     1      -0.387  -3.598  -5.298  0.00  0.00    +0.015 C 
ATOM     21  C   UNL     1       1.592  -2.318  -4.527  0.00  0.00    +0.015 C 
ATOM     22  C   UNL     1      -1.090  -2.836  -0.611  0.00  0.00    +0.012 C 
ENDROOT
BRANCH   6  23
ATOM     23  O   UNL     1       0.311  -2.668   1.817  0.00  0.00    -0.352 OA
ATOM     24  H   UNL     1      -0.139  -2.398   2.629  0.00  0.00    +0.214 HD
ENDBRANCH   6  23
BRANCH  19  25
ATOM     25  O   UNL     1       0.869   0.282  -3.601  0.00  0.00    -0.388 OA
ATOM     26  H   UNL     1       0.454   0.473  -4.453  0.00  0.00    +0.210 HD
ENDBRANCH  19  25
BRANCH  18  27
ATOM     27  O   UNL     1      -1.179  -1.068  -4.531  0.00  0.00    -0.459 OA
BRANCH  27  28
ATOM     28  C   UNL     1      -2.161  -0.186  -4.774  0.00  0.00    +0.304 C 
ATOM     29  O   UNL     1      -2.745   0.337  -3.855  0.00  0.00    -0.251 OA
ATOM     30  C   UNL     1      -2.535   0.152  -6.194  0.00  0.00    +0.136 C 
ENDBRANCH  27  28
ENDBRANCH  18  27
BRANCH  15  31
ATOM     31  O   UNL     1       2.165  -4.928  -4.717  0.00  0.00    -0.461 OA
BRANCH  31  32
ATOM     32  C   UNL     1       2.377  -6.223  -5.000  0.00  0.00    +0.304 C 
ATOM     33  O   UNL     1       1.742  -7.077  -4.429  0.00  0.00    -0.251 OA
ATOM     34  C   UNL     1       3.406  -6.610  -6.030  0.00  0.00    +0.136 C 
ENDBRANCH  31  32
ENDBRANCH  15  31
TORSDOF 6
