REMARK  Name = ZINC39697151
REMARK  10 active torsions:
REMARK  status: ('A' for Active; 'I' for Inactive)
REMARK    1  A    between atoms: C_1  and  C_2
REMARK    2  A    between atoms: C_5  and  C_8
REMARK    3  A    between atoms: C_8  and  N_9
REMARK    4  A    between atoms: C_10  and  C_12
REMARK    5  A    between atoms: C_23  and  C_25
REMARK    6  A    between atoms: C_25  and  C_27
REMARK    7  A    between atoms: C_25  and  O_30
REMARK    8  A    between atoms: C_27  and  C_28
REMARK    9  A    between atoms: C_27  and  C_29
REMARK   10  A    between atoms: O_30  and  C_31
REMARK                            x       y       z     vdW  Elec       q    Type
REMARK                         _______ _______ _______ _____ _____    ______ ____
ROOT
ATOM      1  C   UNL     1      -2.514  -6.541  -0.296  0.00  0.00    +0.100 C 
ATOM      2  C   UNL     1      -3.274  -5.965  -1.512  0.00  0.00    +0.121 C 
ATOM      3  N   UNL     1      -3.193  -7.028  -2.542  0.00  0.00    -0.297 N 
ATOM      4  C   UNL     1      -3.364  -8.290  -1.784  0.00  0.00    +0.115 C 
ATOM      5  C   UNL     1      -2.578  -8.067  -0.476  0.00  0.00    -0.004 C 
ATOM      6  C   UNL     1      -3.313  -8.707   0.698  0.00  0.00    -0.010 C 
ATOM      7  C   UNL     1      -3.313 -10.229   0.526  0.00  0.00    -0.082 C 
ATOM      8  N   UNL     1      -1.930 -10.716   0.463  0.00  0.00    +0.379 N 
ATOM      9  C   UNL     1      -1.259 -10.168  -0.722  0.00  0.00    -0.082 C 
ATOM     10  C   UNL     1      -1.172  -8.644  -0.602  0.00  0.00    -0.010 C 
ATOM     11  C   UNL     1      -3.006  -6.880  -3.868  0.00  0.00    +0.257 C 
ATOM     12  O   UNL     1      -3.045  -7.848  -4.598  0.00  0.00    -0.272 OA
ATOM     13  H   UNL     1      -1.435 -10.426   1.293  0.00  0.00    -0.086 HD
ATOM     14  H   UNL     1      -1.932 -11.724   0.411  0.00  0.00    -0.086 HD
ENDROOT
BRANCH   1  16
ATOM     15  N   UNL     1      -0.419  -5.912   0.859  0.00  0.00    -0.309 N 
ATOM     16  C   UNL     1      -1.082  -6.072  -0.303  0.00  0.00    +0.219 C 
ATOM     17  O   UNL     1      -0.525  -5.838  -1.355  0.00  0.00    -0.275 OA
ATOM     18  H   UNL     1      -0.864  -6.099   1.701  0.00  0.00    +0.149 HD
BRANCH  15  19
ATOM     19  C   UNL     1       0.973  -5.456   0.852  0.00  0.00    +0.161 C 
BRANCH  19  24
ATOM     20  C   UNL     1       2.897  -5.144   6.196  0.00  0.00    +0.067 C 
ATOM     21  C   UNL     1       2.392  -5.240   4.779  0.00  0.00    +0.056 A 
ATOM     22  C   UNL     1       1.697  -4.182   4.219  0.00  0.00    +0.134 A 
ATOM     23  N   UNL     1       1.256  -4.266   2.977  0.00  0.00    -0.255 NA
ATOM     24  C   UNL     1       1.477  -5.360   2.269  0.00  0.00    +0.076 A 
ATOM     25  C   UNL     1       2.172  -6.417   2.829  0.00  0.00    +0.136 A 
ATOM     26  N   UNL     1       2.618  -6.331   4.070  0.00  0.00    -0.257 NA
ENDBRANCH  19  24
ENDBRANCH  15  19
ENDBRANCH   1  16
BRANCH  11  27
ATOM     27  C   UNL     1      -2.747  -5.512  -4.445  0.00  0.00    +0.261 C 
BRANCH  27  28
ATOM     28  C   UNL     1      -4.080  -4.834  -4.768  0.00  0.00    +0.033 C 
ATOM     29  C   UNL     1      -4.956  -4.807  -3.513  0.00  0.00    +0.011 C 
ATOM     30  C   UNL     1      -3.823  -3.402  -5.241  0.00  0.00    +0.011 C 
ENDBRANCH  27  28
BRANCH  27  31
ATOM     31  O   UNL     1      -1.974  -5.637  -5.640  0.00  0.00    -0.479 OA
BRANCH  31  32
ATOM     32  C   UNL     1      -1.084  -4.645  -5.905  0.00  0.00    +0.122 A 
ATOM     33  C   UNL     1      -0.888  -3.623  -4.988  0.00  0.00    +0.045 A 
ATOM     34  C   UNL     1       0.018  -2.616  -5.260  0.00  0.00    +0.004 A 
ATOM     35  C   UNL     1       0.730  -2.627  -6.446  0.00  0.00    +0.000 A 
ATOM     36  C   UNL     1       0.537  -3.644  -7.362  0.00  0.00    +0.004 A 
ATOM     37  C   UNL     1      -0.364  -4.657  -7.092  0.00  0.00    +0.045 A 
ENDBRANCH  31  32
ENDBRANCH  27  31
ENDBRANCH  11  27
TORSDOF 7
