REMARK  Name = ZINC13199713
REMARK  8 active torsions:
REMARK  status: ('A' for Active; 'I' for Inactive)
REMARK    1  A    between atoms: C_1  and  N_2
REMARK    2  A    between atoms: C_8  and  C_28
REMARK    3  A    between atoms: C_12  and  S_13
REMARK    4  A    between atoms: S_13  and  C_14
REMARK    5  A    between atoms: C_14  and  C_15
REMARK    6  A    between atoms: N_17  and  C_18
REMARK    7  A    between atoms: C_18  and  C_19
REMARK    8  A    between atoms: C_19  and  C_20
REMARK                            x       y       z     vdW  Elec       q    Type
REMARK                         _______ _______ _______ _____ _____    ______ ____
ROOT
ATOM      1  S   UNL     1      -5.100   5.068   4.304  0.00  0.00    -0.078 S 
ENDROOT
BRANCH   1  13
ATOM      2  C   UNL     1      -6.678   6.357   6.431  0.00  0.00    +0.154 C 
ATOM      3  N   UNL     1      -7.282   6.436   5.098  0.00  0.00    -0.290 N 
ATOM      4  C   UNL     1      -8.466   7.069   4.935  0.00  0.00    +0.262 A 
ATOM      5  O   UNL     1      -9.044   7.579   5.877  0.00  0.00    -0.267 OA
ATOM      6  C   UNL     1      -9.033   7.115   3.577  0.00  0.00    +0.065 A 
ATOM      7  C   UNL     1     -10.250   7.741   3.312  0.00  0.00    +0.016 A 
ATOM      8  C   UNL     1     -10.742   7.761   2.039  0.00  0.00    +0.016 A 
ATOM      9  C   UNL     1     -10.034   7.158   0.991  0.00  0.00    +0.065 A 
ATOM     10  C   UNL     1      -8.819   6.529   1.232  0.00  0.00    +0.043 A 
ATOM     11  C   UNL     1      -8.306   6.502   2.532  0.00  0.00    +0.080 A 
ATOM     12  N   UNL     1      -7.126   5.901   2.813  0.00  0.00    -0.223 NA
ATOM     13  C   UNL     1      -6.643   5.873   4.030  0.00  0.00    +0.172 A 
BRANCH   9  14
ATOM     14  C   UNL     1     -10.585   7.191  -0.382  0.00  0.00    +0.387 C 
ATOM     15  O   UNL     1      -9.975   6.669  -1.293  0.00  0.00    -0.241 OA
ATOM     16  O   UNL     1     -11.762   7.799  -0.621  0.00  0.00    -0.241 OA
ENDBRANCH   9  14
ENDBRANCH   1  13
BRANCH   1  17
ATOM     17  C   UNL     1      -4.726   4.524   2.619  0.00  0.00    +0.173 C 
BRANCH  17  18
ATOM     18  C   UNL     1      -3.410   3.788   2.609  0.00  0.00    +0.223 C 
ATOM     19  O   UNL     1      -2.787   3.646   3.639  0.00  0.00    -0.275 OA
ATOM     20  N   UNL     1      -2.927   3.289   1.454  0.00  0.00    -0.314 N 
ATOM     21  H   UNL     1      -3.425   3.402   0.630  0.00  0.00    +0.149 HD
BRANCH  20  22
ATOM     22  C   UNL     1      -1.648   2.574   1.444  0.00  0.00    +0.109 C 
BRANCH  22  23
ATOM     23  C   UNL     1      -1.332   2.114   0.020  0.00  0.00    +0.055 C 
BRANCH  23  24
ATOM     24  C   UNL     1      -0.017   1.378   0.010  0.00  0.00    -0.027 A 
ATOM     25  C   UNL     1       0.002  -0.004   0.002  0.00  0.00    +0.006 A 
ATOM     26  C   UNL     1       1.208  -0.679  -0.013  0.00  0.00    +0.020 A 
ATOM     27  C   UNL     1       2.397   0.028  -0.021  0.00  0.00    +0.042 A 
ATOM     28  C   UNL     1       2.379   1.411  -0.013  0.00  0.00    +0.040 A 
ATOM     29  C   UNL     1       1.172   2.086   0.002  0.00  0.00    +0.046 A 
ATOM     30 CL   UNL     1       1.148   3.822   0.012  0.00  0.00    -0.083 Cl
ATOM     31 CL   UNL     1       3.912  -0.820  -0.039  0.00  0.00    -0.083 Cl
ENDBRANCH  23  24
ENDBRANCH  22  23
ENDBRANCH  20  22
ENDBRANCH  17  18
ENDBRANCH   1  17
TORSDOF 7
