REMARK  Name = ZINC08316031
REMARK  5 active torsions:
REMARK  status: ('A' for Active; 'I' for Inactive)
REMARK    1  A    between atoms: C_1  and  C_2
REMARK    2  A    between atoms: C_5  and  C_8
REMARK    3  A    between atoms: C_8  and  N_9
REMARK    4  A    between atoms: C_11  and  C_16
REMARK    5  A    between atoms: N_18  and  N_19
REMARK                            x       y       z     vdW  Elec       q    Type
REMARK                         _______ _______ _______ _____ _____    ______ ____
ROOT
ATOM      1  C   UNL     1      -1.187   1.624   0.017  0.00  0.00    +0.235 C 
ATOM      2  O   UNL     1      -1.204   2.837   0.023  0.00  0.00    -0.274 OA
ATOM      3  N   UNL     1      -0.011   0.966   0.007  0.00  0.00    -0.224 N 
ATOM      4  H   UNL     1       0.002  -0.004   0.002  0.00  0.00    +0.174 HD
ENDROOT
BRANCH   3   5
ATOM      5  N   UNL     1       1.193   1.683  -0.000  0.00  0.00    -0.147 N 
ATOM      6  C   UNL     1       1.692   2.320  -1.075  0.00  0.00    +0.271 C 
ATOM      7  O   UNL     1       1.179   2.365  -2.174  0.00  0.00    -0.268 OA
ATOM      8  C   UNL     1       2.969   2.959  -0.692  0.00  0.00    +0.051 A 
ATOM      9  C   UNL     1       3.905   3.730  -1.362  0.00  0.00    +0.014 A 
ATOM     10  C   UNL     1       5.031   4.181  -0.692  0.00  0.00    +0.001 A 
ATOM     11  C   UNL     1       5.226   3.867   0.640  0.00  0.00    +0.001 A 
ATOM     12  C   UNL     1       4.299   3.097   1.324  0.00  0.00    +0.014 A 
ATOM     13  C   UNL     1       3.168   2.639   0.666  0.00  0.00    +0.051 A 
ATOM     14  C   UNL     1       2.004   1.820   1.064  0.00  0.00    +0.271 C 
ATOM     15  O   UNL     1       1.811   1.349   2.167  0.00  0.00    -0.268 OA
ENDBRANCH   3   5
BRANCH   1  18
ATOM     16  N   UNL     1      -4.711   1.163  -0.810  0.00  0.00    -0.296 N 
ATOM     17  C   UNL     1      -3.695   1.809   0.029  0.00  0.00    +0.121 C 
ATOM     18  C   UNL     1      -2.482   0.853   0.018  0.00  0.00    +0.102 C 
ATOM     19  C   UNL     1      -2.683   0.104  -1.320  0.00  0.00    +0.110 C 
ATOM     20  C   UNL     1      -4.169   0.205  -1.582  0.00  0.00    +0.217 C 
ATOM     21  O   UNL     1      -4.782  -0.478  -2.374  0.00  0.00    -0.276 OA
BRANCH  16  22
ATOM     22  C   UNL     1      -6.133   1.516  -0.807  0.00  0.00    +0.142 C 
BRANCH  22  27
ATOM     23  C   UNL     1      -7.098   5.653  -4.725  0.00  0.00    +0.044 C 
ATOM     24  C   UNL     1      -6.846   4.574  -3.703  0.00  0.00    -0.050 A 
ATOM     25  C   UNL     1      -6.940   3.243  -4.066  0.00  0.00    +0.003 A 
ATOM     26  C   UNL     1      -6.709   2.254  -3.128  0.00  0.00    +0.005 A 
ATOM     27  C   UNL     1      -6.384   2.595  -1.829  0.00  0.00    -0.030 A 
ATOM     28  C   UNL     1      -6.295   3.926  -1.465  0.00  0.00    +0.005 A 
ATOM     29  C   UNL     1      -6.522   4.915  -2.404  0.00  0.00    +0.003 A 
ENDBRANCH  22  27
ENDBRANCH  16  22
ENDBRANCH   1  18
TORSDOF 4
