REMARK  Name = ZINC12439966
REMARK  12 active torsions:
REMARK  status: ('A' for Active; 'I' for Inactive)
REMARK    1  A    between atoms: C_1  and  C_2
REMARK    2  A    between atoms: C_2  and  N_61
REMARK    3  A    between atoms: C_3  and  C_25
REMARK    4  A    between atoms: C_5  and  C_12
REMARK    5  A    between atoms: C_8  and  C_9
REMARK    6  A    between atoms: C_8  and  C_10
REMARK    7  A    between atoms: C_10  and  O_11
REMARK    8  A    between atoms: C_12  and  N_63
REMARK    9  A    between atoms: C_13  and  C_14
REMARK   10  A    between atoms: C_13  and  N_63
REMARK   11  A    between atoms: C_20  and  C_24
REMARK   12  A    between atoms: C_22  and  C_23
REMARK                            x       y       z     vdW  Elec       q    Type
REMARK                         _______ _______ _______ _____ _____    ______ ____
ROOT
ATOM      1  C   UNL     1       1.472  -2.600  -2.368  0.00  0.00    -0.035 C 
ATOM      2  C   UNL     1       0.684  -2.045  -1.168  0.00  0.00    -0.039 C 
ATOM      3  C   UNL     1      -0.754  -2.585  -1.341  0.00  0.00    -0.010 C 
ATOM      4  C   UNL     1      -0.552  -3.820  -2.255  0.00  0.00    -0.044 C 
ATOM      5  C   UNL     1      -0.097  -5.029  -1.435  0.00  0.00    -0.007 C 
ATOM      6  N   UNL     1       0.506  -3.369  -3.166  0.00  0.00    +0.389 N 
ATOM      7  H   UNL     1       0.103  -2.769  -3.895  0.00  0.00    -0.080 HD
ENDROOT
BRANCH   1   8
ATOM      8  C   UNL     1       2.038  -1.464  -3.182  0.00  0.00    -0.061 A 
ATOM      9  C   UNL     1       1.232  -0.790  -4.080  0.00  0.00    +0.003 A 
ATOM     10  C   UNL     1       1.748   0.256  -4.822  0.00  0.00    +0.020 A 
ATOM     11  C   UNL     1       3.074   0.621  -4.674  0.00  0.00    +0.041 A 
ATOM     12  C   UNL     1       3.881  -0.058  -3.778  0.00  0.00    +0.020 A 
ATOM     13  C   UNL     1       3.363  -1.100  -3.033  0.00  0.00    +0.003 A 
ATOM     14 CL   UNL     1       3.725   1.929  -5.611  0.00  0.00    -0.084 Cl
ENDBRANCH   1   8
BRANCH   6  16
ATOM     15  C   UNL     1       2.426  -4.066  -4.561  0.00  0.00    -0.017 C 
ATOM     16  C   UNL     1       1.181  -4.537  -3.808  0.00  0.00    -0.081 C 
ENDBRANCH   6  16
BRANCH   4  17
ATOM     17  C   UNL     1      -1.837  -4.142  -3.020  0.00  0.00    +0.143 C 
BRANCH  17  18
ATOM     18  O   UNL     1      -2.879  -4.453  -2.092  0.00  0.00    -0.396 OA
ATOM     19  H   UNL     1      -3.725  -4.668  -2.508  0.00  0.00    +0.209 HD
ENDBRANCH  17  18
ENDBRANCH   4  17
BRANCH   2  20
ATOM     20  C   UNL     1       0.683  -0.515  -1.195  0.00  0.00    -0.080 C 
BRANCH  20  21
ATOM     21  N   UNL     1      -0.002  -0.010   0.010  0.00  0.00    +0.382 N 
ATOM     22  H   UNL     1       0.492  -0.344   0.845  0.00  0.00    -0.085 HD
ATOM     23  H   UNL     1      -0.968  -0.359   0.021  0.00  0.00    -0.085 HD
BRANCH  21  24
ATOM     24  C   UNL     1      -0.018   1.465   0.010  0.00  0.00    -0.041 C 
BRANCH  24  25
ATOM     25  C   UNL     1      -0.723   1.951   1.250  0.00  0.00    -0.000 A 
ATOM     26  C   UNL     1      -2.035   2.394   1.325  0.00  0.00    +0.138 A 
ATOM     27  N   UNL     1      -2.301   2.735   2.566  0.00  0.00    -0.173 NA
ATOM     28  N   UNL     1      -1.157   2.530   3.346  0.00  0.00    -0.219 N 
ATOM     29  C   UNL     1      -0.175   2.041   2.523  0.00  0.00    +0.157 A 
ATOM     30  N   UNL     1       1.039   1.752   3.009  0.00  0.00    -0.233 NA
ATOM     31  C   UNL     1       1.314   1.930   4.280  0.00  0.00    +0.042 A 
ATOM     32  C   UNL     1       0.335   2.428   5.152  0.00  0.00    +0.046 A 
ATOM     33  C   UNL     1      -0.897   2.724   4.672  0.00  0.00    +0.044 A 
ATOM     34  C   UNL     1      -1.966   3.260   5.589  0.00  0.00    +0.066 C 
ATOM     35  C   UNL     1       2.688   1.599   4.804  0.00  0.00    +0.066 C 
ENDBRANCH  24  25
ENDBRANCH  21  24
ENDBRANCH  20  21
ENDBRANCH   2  20
TORSDOF 8
