REMARK  Name = ZINC38959950
REMARK  5 active torsions:
REMARK  status: ('A' for Active; 'I' for Inactive)
REMARK    1  A    between atoms: C_1  and  C_2
REMARK    2  A    between atoms: C_7  and  N_8
REMARK    3  A    between atoms: C_9  and  S_34
REMARK    4  A    between atoms: C_12  and  O_33
REMARK    5  A    between atoms: C_14  and  C_18
REMARK                            x       y       z     vdW  Elec       q    Type
REMARK                         _______ _______ _______ _____ _____    ______ ____
ROOT
ATOM      1  N   UNL     1       0.170  -0.152   2.405  0.00  0.00    -0.246 N 
ATOM      2  C   UNL     1      -1.156   0.197   2.904  0.00  0.00    +0.208 C 
ATOM      3  N   UNL     1      -1.088   0.599   4.313  0.00  0.00    -0.264 NA
ATOM      4  C   UNL     1      -0.071   1.648   4.501  0.00  0.00    +0.198 C 
ATOM      5  C   UNL     1       1.311   1.027   4.279  0.00  0.00    +0.141 C 
ATOM      6  C   UNL     1       1.303   0.225   3.006  0.00  0.00    +0.230 C 
ATOM      7  O   UNL     1       2.362  -0.088   2.506  0.00  0.00    -0.275 OA
ATOM      8  H   UNL     1      -1.989   0.906   4.646  0.00  0.00    +0.127 HD
ENDROOT
BRANCH   5   9
ATOM      9  C   UNL     1       2.358   2.138   4.178  0.00  0.00    +0.117 C 
ATOM     10  C   UNL     1       2.456   2.864   5.499  0.00  0.00    +0.038 A 
ATOM     11  H   UNL     1       2.447   1.359   6.939  0.00  0.00    +0.166 HD
ATOM     12  C   UNL     1       2.527   4.212   5.596  0.00  0.00    -0.016 A 
ATOM     13  C   UNL     1       2.607   4.536   7.002  0.00  0.00    +0.003 A 
ATOM     14  C   UNL     1       2.698   5.747   7.695  0.00  0.00    +0.010 A 
ATOM     15  C   UNL     1       2.756   5.676   9.065  0.00  0.00    +0.001 A 
ATOM     16  C   UNL     1       2.726   4.468   9.741  0.00  0.00    +0.002 A 
ATOM     17  C   UNL     1       2.636   3.254   9.082  0.00  0.00    +0.026 A 
ATOM     18  C   UNL     1       2.576   3.295   7.691  0.00  0.00    +0.047 A 
ATOM     19  N   UNL     1       2.485   2.309   6.749  0.00  0.00    -0.356 N 
ATOM     20  C   UNL     1       2.522   5.133   4.401  0.00  0.00    +0.052 C 
ATOM     21  C   UNL     1       2.824   4.292   3.153  0.00  0.00    +0.086 C 
ATOM     22  N   UNL     1       1.960   3.101   3.140  0.00  0.00    -0.307 NA
ATOM     23  H   UNL     1       1.951   2.668   2.229  0.00  0.00    +0.123 HD
ENDBRANCH   5   9
BRANCH   1  30
ATOM     24  C   UNL     1       0.297   1.196  -0.098  0.00  0.00    +0.045 C 
ATOM     25  C   UNL     1       0.324  -0.308  -0.000  0.00  0.00    -0.029 A 
ATOM     26  C   UNL     1       0.419  -1.073  -1.146  0.00  0.00    +0.005 A 
ATOM     27  C   UNL     1       0.444  -2.453  -1.057  0.00  0.00    +0.000 A 
ATOM     28  C   UNL     1       0.374  -3.071   0.178  0.00  0.00    +0.002 A 
ATOM     29  C   UNL     1       0.280  -2.311   1.327  0.00  0.00    +0.024 A 
ATOM     30  C   UNL     1       0.260  -0.925   1.242  0.00  0.00    +0.042 A 
ENDBRANCH   1  30
BRANCH   4  31
ATOM     31  O   UNL     1      -0.160   2.171   5.827  0.00  0.00    -0.376 OA
ATOM     32  H   UNL     1      -1.018   2.566   6.038  0.00  0.00    +0.211 HD
ENDBRANCH   4  31
BRANCH   2  33
ATOM     33  S   UNL     1      -2.252  -1.239   2.744  0.00  0.00    -0.140 S 
ATOM     34  H   UNL     1      -3.430  -0.804   3.228  0.00  0.00    +0.105 HD
ENDBRANCH   2  33
TORSDOF 4
