REMARK  Name = ZINC12773071
REMARK  5 active torsions:
REMARK  status: ('A' for Active; 'I' for Inactive)
REMARK    1  A    between atoms: C_10  and  C_13
REMARK    2  A    between atoms: C_13  and  C_14
REMARK    3  A    between atoms: N_16  and  C_17
REMARK    4  A    between atoms: C_20  and  O_23
REMARK    5  A    between atoms: O_23  and  C_24
REMARK                            x       y       z     vdW  Elec       q    Type
REMARK                         _______ _______ _______ _____ _____    ______ ____
ROOT
ATOM      1  C   UNL     1      -2.337  -0.286   2.059  0.00  0.00    +0.221 C 
ATOM      2  O   UNL     1      -2.888   0.554   1.378  0.00  0.00    -0.275 OA
ATOM      3  N   UNL     1      -2.873  -0.652   3.240  0.00  0.00    -0.285 N 
ATOM      4  H   UNL     1      -2.478  -1.379   3.747  0.00  0.00    +0.155 HD
ENDROOT
BRANCH   3   5
ATOM      5  C   UNL     1      -4.000   0.016   3.736  0.00  0.00    +0.034 A 
ATOM      6  C   UNL     1      -4.139   0.225   5.102  0.00  0.00    +0.027 A 
ATOM      7  C   UNL     1      -5.247   0.889   5.589  0.00  0.00    +0.048 A 
ATOM      8  C   UNL     1      -6.228   1.337   4.716  0.00  0.00    +0.129 A 
ATOM      9  C   UNL     1      -6.092   1.123   3.351  0.00  0.00    +0.048 A 
ATOM     10  C   UNL     1      -4.982   0.465   2.862  0.00  0.00    +0.027 A 
BRANCH   8  11
ATOM     11  O   UNL     1      -7.321   1.986   5.196  0.00  0.00    -0.456 OA
BRANCH  11  12
ATOM     12  C   UNL     1      -8.491   1.299   5.269  0.00  0.00    +0.129 A 
ATOM     13  C   UNL     1      -8.535  -0.038   4.899  0.00  0.00    +0.047 A 
ATOM     14  C   UNL     1      -9.724  -0.737   4.979  0.00  0.00    +0.019 A 
ATOM     15  C   UNL     1     -10.873  -0.102   5.417  0.00  0.00    +0.018 A 
ATOM     16  C   UNL     1     -10.832   1.232   5.781  0.00  0.00    +0.019 A 
ATOM     17  C   UNL     1      -9.644   1.933   5.708  0.00  0.00    +0.047 A 
ATOM     18 BR   UNL     1     -12.500  -1.059   5.519  0.00  0.00    -0.050 Br
ENDBRANCH  11  12
ENDBRANCH   8  11
ENDBRANCH   3   5
BRANCH   1  19
ATOM     19  C   UNL     1      -1.055  -0.918   1.585  0.00  0.00    +0.150 C 
BRANCH  19  29
ATOM     20  C   UNL     1       3.244   2.049   2.105  0.00  0.00    +0.002 A 
ATOM     21  C   UNL     1       2.142   2.861   2.298  0.00  0.00    +0.004 A 
ATOM     22  C   UNL     1       0.925   2.531   1.730  0.00  0.00    +0.047 A 
ATOM     23  C   UNL     1       0.809   1.382   0.967  0.00  0.00    +0.143 A 
ATOM     24  C   UNL     1       1.916   0.556   0.782  0.00  0.00    +0.076 A 
ATOM     25  C   UNL     1       3.135   0.896   1.349  0.00  0.00    +0.027 A 
ATOM     26  N   UNL     1       1.781  -0.624   0.039  0.00  0.00    -0.280 N 
ATOM     27  C   UNL     1       0.547  -1.049  -0.304  0.00  0.00    +0.259 C 
ATOM     28  O   UNL     1       0.415  -2.006  -1.037  0.00  0.00    -0.271 OA
ATOM     29  C   UNL     1      -0.667  -0.330   0.227  0.00  0.00    +0.268 C 
ATOM     30  O   UNL     1      -0.375   1.061   0.378  0.00  0.00    -0.477 OA
ATOM     31  H   UNL     1       2.565  -1.129  -0.226  0.00  0.00    +0.155 HD
ENDBRANCH  19  29
ENDBRANCH   1  19
TORSDOF 5
