REMARK  Name = ZINC43681535
REMARK  8 active torsions:
REMARK  status: ('A' for Active; 'I' for Inactive)
REMARK    1  A    between atoms: C_1  and  C_2
REMARK    2  A    between atoms: C_4  and  C_20
REMARK    3  A    between atoms: C_5  and  C_9
REMARK    4  A    between atoms: C_6  and  C_8
REMARK    5  A    between atoms: C_9  and  C_11
REMARK    6  A    between atoms: C_9  and  N_12
REMARK    7  A    between atoms: C_13  and  N_19
REMARK    8  A    between atoms: C_15  and  C_17
REMARK                            x       y       z     vdW  Elec       q    Type
REMARK                         _______ _______ _______ _____ _____    ______ ____
ROOT
ATOM      1  C   UNL     1       0.701  -4.410   0.030  0.00  0.00    +0.136 C 
ATOM      2  C   UNL     1      -0.113  -4.142   1.298  0.00  0.00    +0.038 C 
ENDROOT
BRANCH   1   7
ATOM      3  C   UNL     1       1.354   0.518  -2.915  0.00  0.00    +0.044 C 
ATOM      4  C   UNL     1       1.183  -0.767  -2.147  0.00  0.00    -0.050 A 
ATOM      5  C   UNL     1       0.373  -1.769  -2.647  0.00  0.00    +0.007 A 
ATOM      6  C   UNL     1       0.217  -2.948  -1.943  0.00  0.00    -0.045 A 
ATOM      7  C   UNL     1       0.872  -3.125  -0.738  0.00  0.00    -0.017 A 
ATOM      8  C   UNL     1       1.683  -2.124  -0.238  0.00  0.00    -0.045 A 
ATOM      9  C   UNL     1       1.842  -0.946  -0.945  0.00  0.00    +0.007 A 
ATOM     10  C   UNL     1       2.396  -2.317   1.075  0.00  0.00    +0.044 C 
ATOM     11  C   UNL     1      -0.666  -4.040  -2.488  0.00  0.00    +0.044 C 
ENDBRANCH   1   7
BRANCH   1  12
ATOM     12  N   UNL     1       2.017  -4.939   0.397  0.00  0.00    -0.242 N 
ATOM     13  C   UNL     1       2.884  -5.573  -0.433  0.00  0.00    +0.129 A 
ATOM     14  C   UNL     1       3.985  -5.902   0.298  0.00  0.00    +0.080 A 
ATOM     15  C   UNL     1       3.779  -5.454   1.607  0.00  0.00    +0.076 A 
ATOM     16  N   UNL     1       2.608  -4.874   1.666  0.00  0.00    -0.173 NA
ATOM     17  C   UNL     1       4.745  -5.607   2.753  0.00  0.00    +0.069 C 
ATOM     18 BR   UNL     1       5.520  -6.803  -0.341  0.00  0.00    -0.045 Br
BRANCH  13  19
ATOM     19  N   UNL     1       2.684  -5.840  -1.786  0.00  0.00    -0.342 N 
ATOM     20  H   UNL     1       1.861  -5.564  -2.218  0.00  0.00    +0.144 HD
ATOM     21  H   UNL     1       3.369  -6.302  -2.295  0.00  0.00    +0.144 HD
ENDBRANCH  13  19
ENDBRANCH   1  12
TORSDOF 3
