REMARK  Name = ZINC39289920
REMARK  8 active torsions:
REMARK  status: ('A' for Active; 'I' for Inactive)
REMARK    1  A    between atoms: C_1  and  C_2
REMARK    2  A    between atoms: C_3  and  C_32
REMARK    3  A    between atoms: C_4  and  N_31
REMARK    4  A    between atoms: C_9  and  C_10
REMARK    5  A    between atoms: C_13  and  S_15
REMARK    6  A    between atoms: S_15  and  C_16
REMARK    7  A    between atoms: C_26  and  C_30
REMARK    8  A    between atoms: C_27  and  C_28
REMARK                            x       y       z     vdW  Elec       q    Type
REMARK                         _______ _______ _______ _____ _____    ______ ____
ROOT
ATOM      1  C   UNL     1      -2.037   1.264   0.816  0.00  0.00    +0.046 C 
ATOM      2  C   UNL     1      -1.722  -0.203   0.677  0.00  0.00    -0.020 A 
ATOM      3  C   UNL     1      -2.409  -1.001  -0.243  0.00  0.00    +0.095 A 
ATOM      4  C   UNL     1      -2.085  -2.369  -0.342  0.00  0.00    +0.135 A 
ATOM      5  N   UNL     1      -1.148  -2.903   0.418  0.00  0.00    -0.230 NA
ATOM      6  C   UNL     1      -0.470  -2.179   1.307  0.00  0.00    +0.092 A 
ATOM      7  C   UNL     1      -0.738  -0.799   1.457  0.00  0.00    +0.013 A 
ATOM      8  C   UNL     1       0.172  -0.292   2.500  0.00  0.00    -0.008 C 
ATOM      9  C   UNL     1       0.238   1.025   2.964  0.00  0.00    +0.055 C 
ATOM     10  C   UNL     1       0.961  -1.364   2.944  0.00  0.00    -0.023 C 
ATOM     11  C   UNL     1       0.598  -2.515   2.259  0.00  0.00    +0.081 C 
ATOM     12  C   UNL     1       2.026  -1.282   4.007  0.00  0.00    +0.046 C 
ENDROOT
BRANCH   9  13
ATOM     13  C   UNL     1       0.031   2.086   2.083  0.00  0.00    +0.130 A 
ATOM     14  C   UNL     1      -0.632   3.276   2.376  0.00  0.00    +0.050 A 
ATOM     15  C   UNL     1      -0.606   4.045   1.219  0.00  0.00    +0.057 A 
ATOM     16  C   UNL     1       0.064   3.313   0.259  0.00  0.00    +0.169 A 
ATOM     17  O   UNL     1       0.443   2.143   0.796  0.00  0.00    -0.449 OA
BRANCH  16  18
ATOM     18  S   UNL     1       0.375   3.832  -1.396  0.00  0.00    -0.013 S 
BRANCH  18  19
ATOM     19  C   UNL     1       1.121   2.425  -2.151  0.00  0.00    +0.192 C 
ATOM     20  N   UNL     1       1.256   1.266  -1.550  0.00  0.00    -0.246 NA
ATOM     21  C   UNL     1       1.820   0.359  -2.545  0.00  0.00    +0.179 C 
ATOM     22  C   UNL     1       3.087  -0.325  -2.120  0.00  0.00    +0.006 C 
ATOM     23  C   UNL     1       4.061  -0.504  -3.018  0.00  0.00    -0.002 C 
ATOM     24  C   UNL     1       3.991  -0.037  -4.352  0.00  0.00    +0.002 C 
ATOM     25  C   UNL     1       3.063   0.902  -4.713  0.00  0.00    +0.026 C 
ATOM     26  C   UNL     1       2.159   1.287  -3.700  0.00  0.00    +0.072 C 
ATOM     27  N   UNL     1       1.608   2.426  -3.406  0.00  0.00    -0.224 NA
ENDBRANCH  18  19
ENDBRANCH  16  18
ENDBRANCH   9  13
BRANCH   4  28
ATOM     28  N   UNL     1      -2.761  -3.166  -1.252  0.00  0.00    -0.342 N 
ATOM     29  H   UNL     1      -3.399  -2.768  -1.865  0.00  0.00    +0.144 HD
ATOM     30  H   UNL     1      -2.596  -4.122  -1.276  0.00  0.00    +0.144 HD
ENDBRANCH   4  28
BRANCH  11  31
ATOM     31  C   UNL     1       1.180  -3.811   2.437  0.00  0.00    +0.102 C 
ATOM     32  N   UNL     1       1.641  -4.839   2.578  0.00  0.00    -0.191 NA
ENDBRANCH  11  31
BRANCH   3  33
ATOM     33  C   UNL     1      -3.429  -0.436  -1.074  0.00  0.00    +0.103 C 
ATOM     34  N   UNL     1      -4.238   0.013  -1.734  0.00  0.00    -0.191 NA
ENDBRANCH   3  33
TORSDOF 6
