REMARK  Name = ZINC31031817
REMARK  5 active torsions:
REMARK  status: ('A' for Active; 'I' for Inactive)
REMARK    1  A    between atoms: C_1  and  C_2
REMARK    2  A    between atoms: C_4  and  C_32
REMARK    3  A    between atoms: C_7  and  C_12
REMARK    4  A    between atoms: C_17  and  C_20
REMARK    5  A    between atoms: C_20  and  C_22
REMARK                            x       y       z     vdW  Elec       q    Type
REMARK                         _______ _______ _______ _____ _____    ______ ____
ROOT
ATOM      1  C   UNL     1      -8.873   0.034   1.350  0.00  0.00    +0.263 C 
ATOM      2  O   UNL     1      -9.175   0.793   2.251  0.00  0.00    -0.268 OA
ATOM      3  N   UNL     1      -7.575  -0.177   1.052  0.00  0.00    -0.296 N 
ATOM      4  C   UNL     1      -7.189  -1.200   0.070  0.00  0.00    +0.109 C 
ATOM      5  C   UNL     1      -6.165  -2.139   0.713  0.00  0.00    +0.030 C 
ATOM      6  C   UNL     1      -4.994  -1.316   1.256  0.00  0.00    +0.063 C 
ATOM      7  C   UNL     1      -5.503  -0.350   2.328  0.00  0.00    +0.030 C 
ATOM      8  C   UNL     1      -6.520   0.610   1.704  0.00  0.00    +0.109 C 
ENDROOT
BRANCH   1  15
ATOM      9  C   UNL     1     -13.136  -3.526  -3.600  0.00  0.00    +0.044 C 
ATOM     10  C   UNL     1     -12.684  -2.840  -2.336  0.00  0.00    -0.048 A 
ATOM     11  C   UNL     1     -13.568  -2.704  -1.273  0.00  0.00    +0.007 A 
ATOM     12  C   UNL     1     -13.179  -2.086  -0.121  0.00  0.00    -0.041 A 
ATOM     13  C   UNL     1     -11.876  -1.583  -0.005  0.00  0.00    +0.003 A 
ATOM     14  C   UNL     1     -11.183  -0.908   1.028  0.00  0.00    +0.041 A 
ATOM     15  C   UNL     1      -9.924  -0.654   0.585  0.00  0.00    +0.103 A 
ATOM     16  N   UNL     1      -9.791  -1.139  -0.702  0.00  0.00    -0.351 N 
ATOM     17  H   UNL     1      -8.838  -1.022  -1.238  0.00  0.00    +0.166 HD
ATOM     18  C   UNL     1     -10.978  -1.720  -1.081  0.00  0.00    +0.048 A 
ATOM     19  C   UNL     1     -11.399  -2.354  -2.247  0.00  0.00    +0.029 A 
ATOM     20  C   UNL     1     -14.148  -1.944   1.025  0.00  0.00    +0.044 C 
ENDBRANCH   1  15
BRANCH   6  21
ATOM     21  C   UNL     1      -3.968  -2.240   1.859  0.00  0.00    +0.166 C 
ATOM     22  O   UNL     1      -4.301  -3.331   2.272  0.00  0.00    -0.292 OA
BRANCH  21  23
ATOM     23  C   UNL     1      -2.563  -1.820   1.948  0.00  0.00    +0.021 A 
ATOM     24  C   UNL     1      -2.175  -0.561   1.472  0.00  0.00    +0.015 A 
ATOM     25  C   UNL     1      -0.857  -0.174   1.551  0.00  0.00    +0.050 A 
ATOM     26  C   UNL     1       0.092  -1.023   2.110  0.00  0.00    +0.162 A 
ATOM     27  C   UNL     1      -0.287  -2.276   2.587  0.00  0.00    +0.163 A 
ATOM     28  C   UNL     1      -1.608  -2.675   2.507  0.00  0.00    +0.060 A 
ATOM     29  O   UNL     1       0.630  -3.119   3.137  0.00  0.00    -0.485 OA
ATOM     30  C   UNL     1       2.007  -2.838   2.862  0.00  0.00    +0.270 C 
ATOM     31  C   UNL     1       2.242  -1.336   3.073  0.00  0.00    +0.270 C 
ATOM     32  O   UNL     1       1.387  -0.618   2.177  0.00  0.00    -0.485 OA
ENDBRANCH  21  23
ENDBRANCH   6  21
TORSDOF 3
