REMARK  Name = ZINC20779259
REMARK  11 active torsions:
REMARK  status: ('A' for Active; 'I' for Inactive)
REMARK    1  A    between atoms: N_9  and  C_11
REMARK    2  A    between atoms: C_11  and  C_12
REMARK    3  A    between atoms: C_12  and  C_14
REMARK    4  A    between atoms: C_12  and  O_32
REMARK    5  A    between atoms: C_14  and  O_15
REMARK    6  A    between atoms: O_15  and  C_16
REMARK    7  A    between atoms: C_21  and  C_22
REMARK    8  A    between atoms: C_22  and  N_23
REMARK    9  A    between atoms: N_23  and  C_24
REMARK   10  A    between atoms: C_24  and  C_25
REMARK   11  A    between atoms: C_25  and  O_31
REMARK                            x       y       z     vdW  Elec       q    Type
REMARK                         _______ _______ _______ _____ _____    ______ ____
ROOT
ATOM      1  C   UNL     1      -1.533   0.470   7.004  0.00  0.00    +0.122 A 
ATOM      2  C   UNL     1      -2.268   1.034   8.036  0.00  0.00    +0.046 A 
ATOM      3  C   UNL     1      -1.739   2.077   8.771  0.00  0.00    +0.004 A 
ATOM      4  C   UNL     1      -0.476   2.559   8.477  0.00  0.00    +0.000 A 
ATOM      5  C   UNL     1       0.261   1.996   7.453  0.00  0.00    +0.005 A 
ATOM      6  C   UNL     1      -0.267   0.955   6.712  0.00  0.00    -0.023 A 
ENDROOT
BRANCH   1   7
ATOM      7  O   UNL     1      -2.051  -0.557   6.281  0.00  0.00    -0.489 OA
BRANCH   7   8
ATOM      8  C   UNL     1      -3.361  -1.005   6.637  0.00  0.00    +0.258 C 
BRANCH   8   9
ATOM      9  C   UNL     1      -3.773  -2.158   5.719  0.00  0.00    +0.135 C 
BRANCH   9  10
ATOM     10  O   UNL     1      -2.914  -3.278   5.947  0.00  0.00    -0.390 OA
ATOM     11  H   UNL     1      -1.831  -3.182   5.783  0.00  0.00    +0.210 HD
ENDBRANCH   9  10
BRANCH   9  12
ATOM     12  C   UNL     1      -5.220  -2.555   6.018  0.00  0.00    -0.043 C 
BRANCH  12  21
ATOM     13  C   UNL     1      -8.228  -7.261   2.837  0.00  0.00    +0.000 A 
ATOM     14  C   UNL     1      -8.666  -7.260   4.149  0.00  0.00    +0.000 A 
ATOM     15  C   UNL     1      -8.209  -6.296   5.025  0.00  0.00    +0.002 A 
ATOM     16  C   UNL     1      -7.312  -5.328   4.597  0.00  0.00    -0.061 A 
ATOM     17  C   UNL     1      -6.874  -5.332   3.290  0.00  0.00    -0.048 A 
ATOM     18  C   UNL     1      -7.335  -6.300   2.410  0.00  0.00    +0.004 A 
ATOM     19  C   UNL     1      -5.895  -4.305   2.780  0.00  0.00    +0.017 C 
ATOM     20  C   UNL     1      -5.837  -3.118   3.743  0.00  0.00    -0.074 C 
ATOM     21  N   UNL     1      -5.630  -3.632   5.106  0.00  0.00    +0.384 N 
ATOM     22  C   UNL     1      -6.845  -4.295   5.589  0.00  0.00    -0.043 C 
ATOM     23  H   UNL     1      -4.819  -4.375   5.081  0.00  0.00    -0.081 HD
ENDBRANCH  12  21
ENDBRANCH   9  12
ENDBRANCH   8   9
ENDBRANCH   7   8
ENDBRANCH   1   7
BRANCH   6  24
ATOM     24  C   UNL     1       0.535   0.345   5.592  0.00  0.00    -0.043 C 
BRANCH  24  25
ATOM     25  N   UNL     1       0.072   0.885   4.307  0.00  0.00    +0.384 N 
ATOM     26  H   UNL     1      -0.992   0.643   4.170  0.00  0.00    -0.085 HD
ATOM     27  H   UNL     1       0.204   1.977   4.299  0.00  0.00    -0.085 HD
BRANCH  25  28
ATOM     28  C   UNL     1       0.833   0.311   3.189  0.00  0.00    -0.047 C 
BRANCH  28  29
ATOM     29  C   UNL     1       0.323   0.896   1.871  0.00  0.00    +0.051 C 
ATOM     30  C   UNL     1       1.116   0.298   0.707  0.00  0.00    +0.033 C 
ATOM     31  C   UNL     1       0.606   0.883  -0.612  0.00  0.00    +0.003 C 
ATOM     32  C   UNL     1       0.787   2.403  -0.599  0.00  0.00    +0.000 C 
ATOM     33  C   UNL     1      -0.006   3.001   0.565  0.00  0.00    +0.003 C 
ATOM     34  C   UNL     1       0.504   2.415   1.884  0.00  0.00    +0.033 C 
BRANCH  29  35
ATOM     35  O   UNL     1      -1.062   0.582   1.715  0.00  0.00    -0.390 OA
ATOM     36  H   UNL     1      -1.605   0.922   0.821  0.00  0.00    +0.210 HD
ENDBRANCH  29  35
ENDBRANCH  28  29
ENDBRANCH  25  28
ENDBRANCH  24  25
ENDBRANCH   6  24
TORSDOF 11
