REMARK  Name = ZINC66607339
REMARK  5 active torsions:
REMARK  status: ('A' for Active; 'I' for Inactive)
REMARK    1  A    between atoms: C_1  and  C_2
REMARK    2  A    between atoms: C_2  and  C_4
REMARK    3  A    between atoms: C_2  and  N_21
REMARK    4  A    between atoms: C_4  and  C_5
REMARK    5  A    between atoms: C_22  and  C_24
REMARK                            x       y       z     vdW  Elec       q    Type
REMARK                         _______ _______ _______ _____ _____    ______ ____
ROOT
ATOM      1  C   UNL     1      -0.426  -2.381   1.567  0.00  0.00    +0.217 C 
ATOM      2  O   UNL     1      -1.343  -2.976   1.040  0.00  0.00    -0.276 OA
ATOM      3  N   UNL     1       0.442  -3.043   2.356  0.00  0.00    -0.298 N 
ATOM      4  C   UNL     1       1.554  -2.334   3.005  0.00  0.00    +0.127 C 
ATOM      5  C   UNL     1       1.481  -2.587   4.516  0.00  0.00    +0.128 C 
ATOM      6  N   UNL     1       1.334  -4.031   4.744  0.00  0.00    -0.282 N 
ATOM      7  C   UNL     1       0.222  -4.741   4.094  0.00  0.00    +0.128 C 
ATOM      8  C   UNL     1       0.292  -4.486   2.588  0.00  0.00    +0.127 C 
ATOM      9  C   UNL     1       2.203  -4.694   5.533  0.00  0.00    +0.305 C 
ATOM     10  O   UNL     1       2.958  -4.076   6.258  0.00  0.00    -0.252 OA
ATOM     11  N   UNL     1       2.233  -6.041   5.519  0.00  0.00    -0.281 N 
ATOM     12  C   UNL     1       1.698  -6.799   4.377  0.00  0.00    +0.137 C 
ATOM     13  C   UNL     1       2.759  -7.812   3.929  0.00  0.00    +0.179 C 
ATOM     14  O   UNL     1       3.183  -8.579   5.058  0.00  0.00    -0.377 OA
ATOM     15  C   UNL     1       3.810  -7.810   6.087  0.00  0.00    +0.179 C 
ATOM     16  C   UNL     1       2.809  -6.797   6.643  0.00  0.00    +0.137 C 
ENDROOT
BRANCH   1  17
ATOM     17  C   UNL     1      -0.259  -0.900   1.338  0.00  0.00    +0.118 C 
BRANCH  17  19
ATOM     18  C   UNL     1      -1.128   1.075   0.079  0.00  0.00    +0.028 C 
ATOM     19  C   UNL     1      -1.369  -0.399   0.412  0.00  0.00    +0.079 C 
BRANCH  19  20
ATOM     20  N   UNL     1      -2.665  -0.544   1.079  0.00  0.00    -0.312 N 
ATOM     21  C   UNL     1      -3.791  -0.659   0.347  0.00  0.00    +0.216 C 
ATOM     22  O   UNL     1      -3.730  -0.643  -0.865  0.00  0.00    -0.276 OA
ATOM     23  H   UNL     1      -2.713  -0.557   2.047  0.00  0.00    +0.149 HD
BRANCH  21  24
ATOM     24  C   UNL     1      -5.124  -0.808   1.033  0.00  0.00    +0.075 C 
ATOM     25  C   UNL     1      -5.114  -2.071   1.897  0.00  0.00    +0.013 C 
ATOM     26  C   UNL     1      -6.468  -2.223   2.594  0.00  0.00    +0.001 C 
ATOM     27  C   UNL     1      -7.573  -2.333   1.542  0.00  0.00    +0.000 C 
ATOM     28  C   UNL     1      -7.583  -1.070   0.678  0.00  0.00    +0.001 C 
ATOM     29  C   UNL     1      -6.229  -0.919  -0.019  0.00  0.00    +0.013 C 
ENDBRANCH  21  24
ENDBRANCH  19  20
ENDBRANCH  17  19
ENDBRANCH   1  17
TORSDOF 4
