REMARK  Name = ZINC16996147
REMARK  4 active torsions:
REMARK  status: ('A' for Active; 'I' for Inactive)
REMARK    1  A    between atoms: C_1  and  C_2
REMARK    2  A    between atoms: C_4  and  C_19
REMARK    3  A    between atoms: C_9  and  N_11
REMARK    4  A    between atoms: C_12  and  C_14
REMARK                            x       y       z     vdW  Elec       q    Type
REMARK                         _______ _______ _______ _____ _____    ______ ____
ROOT
ATOM      1  C   UNL     1      -0.013   1.086   0.008  0.00  0.00    +0.061 C 
ATOM      2  C   UNL     1      -0.742   1.585  -1.213  0.00  0.00    +0.022 C 
ATOM      3  C   UNL     1      -0.877   3.068  -1.413  0.00  0.00    +0.082 C 
ATOM      4  C   UNL     1      -0.876   3.430  -2.902  0.00  0.00    +0.146 C 
ATOM      5  N   UNL     1      -1.703   2.450  -3.607  0.00  0.00    -0.220 N 
ATOM      6  C   UNL     1      -1.837   1.164  -3.179  0.00  0.00    +0.251 A 
ATOM      7  N   UNL     1      -2.619   0.541  -4.022  0.00  0.00    -0.172 NA
ATOM      8  C   UNL     1      -3.008   1.389  -4.987  0.00  0.00    +0.274 A 
ATOM      9  N   UNL     1      -2.466   2.574  -4.763  0.00  0.00    -0.127 NA
ATOM     10  N   UNL     1      -1.218   0.719  -2.046  0.00  0.00    -0.220 NA
ENDROOT
BRANCH   4  11
ATOM     11  C   UNL     1       0.533   3.388  -3.436  0.00  0.00    -0.023 A 
ATOM     12  C   UNL     1       1.255   2.210  -3.387  0.00  0.00    +0.006 A 
ATOM     13  C   UNL     1       2.547   2.171  -3.877  0.00  0.00    +0.000 A 
ATOM     14  C   UNL     1       3.117   3.310  -4.415  0.00  0.00    +0.000 A 
ATOM     15  C   UNL     1       2.394   4.487  -4.464  0.00  0.00    +0.000 A 
ATOM     16  C   UNL     1       1.101   4.525  -3.979  0.00  0.00    +0.006 A 
ENDBRANCH   4  11
BRANCH   8  17
ATOM     17  N   UNL     1      -3.835   1.077  -6.037  0.00  0.00    -0.171 NA
ATOM     18  C   UNL     1      -4.310  -0.127  -6.154  0.00  0.00    +0.301 C 
ATOM     19  O   UNL     1      -3.990  -1.069  -5.244  0.00  0.00    -0.266 OA
BRANCH  18  20
ATOM     20  C   UNL     1      -5.218  -0.470  -7.307  0.00  0.00    +0.271 C 
ATOM     21 CL   UNL     1      -5.453   0.988  -8.340  0.00  0.00    -0.073 Cl
ATOM     22 CL   UNL     1      -4.473  -1.787  -8.287  0.00  0.00    -0.073 Cl
ATOM     23 CL   UNL     1      -6.813  -1.022  -6.672  0.00  0.00    -0.073 Cl
ENDBRANCH  18  20
ENDBRANCH   8  17
TORSDOF 3
