REMARK  Name = ZINC28199550
REMARK  7 active torsions:
REMARK  status: ('A' for Active; 'I' for Inactive)
REMARK    1  A    between atoms: C_1  and  C_2
REMARK    2  A    between atoms: C_5  and  C_25
REMARK    3  A    between atoms: C_10  and  C_12
REMARK    4  A    between atoms: C_12  and  C_14
REMARK    5  A    between atoms: C_12  and  S_15
REMARK    6  A    between atoms: S_15  and  C_16
REMARK    7  A    between atoms: C_19  and  N_22
REMARK                            x       y       z     vdW  Elec       q    Type
REMARK                         _______ _______ _______ _____ _____    ______ ____
ROOT
ATOM      1  C   UNL     1      -0.035   1.808   0.006  0.00  0.00    +0.134 C 
ATOM      2  C   UNL     1       1.391   2.354  -0.089  0.00  0.00    +0.029 C 
ENDROOT
BRANCH   1  10
ATOM      3  C   UNL     1      -3.569   3.501  -0.534  0.00  0.00    +0.009 C 
ATOM      4  C   UNL     1      -2.763   4.749  -0.169  0.00  0.00    +0.004 C 
ATOM      5  C   UNL     1      -3.363   5.397   1.081  0.00  0.00    +0.009 C 
ATOM      6  C   UNL     1      -3.351   4.393   2.235  0.00  0.00    +0.004 C 
ATOM      7  C   UNL     1      -1.905   3.994   2.545  0.00  0.00    +0.111 C 
ATOM      8  N   UNL     1      -1.275   3.503   1.311  0.00  0.00    -0.300 N 
ATOM      9  C   UNL     1      -1.305   4.357   0.115  0.00  0.00    +0.111 C 
ATOM     10  C   UNL     1      -0.676   2.296   1.279  0.00  0.00    +0.229 C 
ATOM     11  O   UNL     1      -0.654   1.604   2.274  0.00  0.00    -0.274 OA
ATOM     12  C   UNL     1      -3.982   5.031   3.474  0.00  0.00    +0.009 C 
ENDBRANCH   1  10
BRANCH   1  13
ATOM     13  S   UNL     1       0.012  -0.006   0.010  0.00  0.00    -0.113 S 
BRANCH  13  14
ATOM     14  C   UNL     1       0.587  -0.421  -1.603  0.00  0.00    +0.009 A 
ATOM     15  C   UNL     1      -0.310  -0.510  -2.661  0.00  0.00    +0.017 A 
ATOM     16  C   UNL     1       0.146  -0.829  -3.925  0.00  0.00    +0.034 A 
ATOM     17  C   UNL     1       1.491  -1.073  -4.136  0.00  0.00    +0.126 A 
ATOM     18  C   UNL     1       2.385  -0.991  -3.084  0.00  0.00    +0.034 A 
ATOM     19  C   UNL     1       1.938  -0.666  -1.819  0.00  0.00    +0.017 A 
BRANCH  17  20
ATOM     20  N   UNL     1       1.974  -1.421  -5.491  0.00  0.00    +0.056 N 
ATOM     21  O   UNL     1       3.158  -1.635  -5.679  0.00  0.00    -0.126 OA
ATOM     22  O   UNL     1       1.187  -1.493  -6.418  0.00  0.00    -0.126 OA
ENDBRANCH  17  20
ENDBRANCH  13  14
ENDBRANCH   1  13
TORSDOF 4
