REMARK  Name = ZINC49429339
REMARK  6 active torsions:
REMARK  status: ('A' for Active; 'I' for Inactive)
REMARK    1  A    between atoms: C_1  and  C_2
REMARK    2  A    between atoms: C_2  and  O_3
REMARK    3  A    between atoms: O_3  and  C_4
REMARK    4  A    between atoms: C_4  and  C_6
REMARK    5  A    between atoms: C_16  and  C_18
REMARK    6  A    between atoms: N_27  and  C_28
REMARK                            x       y       z     vdW  Elec       q    Type
REMARK                         _______ _______ _______ _____ _____    ______ ____
ROOT
ATOM      1  C   UNL     1       1.488  -2.393   2.484  0.00  0.00    +0.147 C 
ATOM      2  C   UNL     1       1.450  -3.934   2.439  0.00  0.00    +0.026 C 
ATOM      3  C   UNL     1       1.343  -4.293   3.939  0.00  0.00    +0.045 C 
ATOM      4  C   UNL     1       0.704  -3.093   4.570  0.00  0.00    +0.015 A 
ATOM      5  C   UNL     1       0.769  -2.000   3.772  0.00  0.00    +0.067 A 
ATOM      6  N   UNL     1       0.211  -0.895   4.284  0.00  0.00    -0.228 NA
ATOM      7  C   UNL     1      -0.348  -0.884   5.470  0.00  0.00    +0.165 A 
ATOM      8  S   UNL     1      -0.146  -2.472   6.001  0.00  0.00    -0.057 S 
ATOM      9  N   UNL     1      -0.961   0.177   6.127  0.00  0.00    -0.264 N 
ATOM     10  C   UNL     1      -1.485  -0.003   7.355  0.00  0.00    +0.223 C 
ATOM     11  O   UNL     1      -1.422  -1.091   7.887  0.00  0.00    -0.275 OA
ATOM     12  H   UNL     1      -1.011   1.047   5.701  0.00  0.00    +0.157 HD
ENDROOT
BRANCH  10  13
ATOM     13  C   UNL     1      -2.149   1.147   8.067  0.00  0.00    +0.093 C 
ATOM     14  C   UNL     1      -2.656   0.678   9.433  0.00  0.00    +0.016 C 
ATOM     15  C   UNL     1      -3.302   1.853  10.170  0.00  0.00    +0.020 C 
ATOM     16  C   UNL     1      -4.497   2.365   9.360  0.00  0.00    +0.109 C 
ATOM     17  N   UNL     1      -4.045   2.682   7.999  0.00  0.00    -0.285 N 
ATOM     18  C   UNL     1      -3.331   1.651   7.233  0.00  0.00    +0.122 C 
ATOM     19  C   UNL     1      -4.280   3.896   7.462  0.00  0.00    +0.307 C 
ATOM     20  O   UNL     1      -3.819   4.179   6.373  0.00  0.00    -0.252 OA
ATOM     21  N   UNL     1      -5.026   4.796   8.133  0.00  0.00    -0.264 N 
ATOM     22  H   UNL     1      -5.333   4.598   9.032  0.00  0.00    +0.157 HD
BRANCH  21  23
ATOM     23  C   UNL     1      -5.358   6.014   7.533  0.00  0.00    +0.073 A 
ATOM     24  C   UNL     1      -6.089   7.048   8.037  0.00  0.00    +0.031 A 
ATOM     25  C   UNL     1      -6.290   8.167   7.250  0.00  0.00    +0.009 A 
ATOM     26  C   UNL     1      -5.755   8.202   6.006  0.00  0.00    +0.047 A 
ATOM     27  S   UNL     1      -4.928   6.623   5.911  0.00  0.00    -0.082 S 
ENDBRANCH  21  23
ENDBRANCH  10  13
BRANCH   1  28
ATOM     28  C   UNL     1       0.770  -1.819   1.290  0.00  0.00    +0.316 C 
ATOM     29  O   UNL     1       0.289  -2.557   0.462  0.00  0.00    -0.250 OA
BRANCH  28  30
ATOM     30  O   UNL     1       0.665  -0.489   1.145  0.00  0.00    -0.464 OA
BRANCH  30  32
ATOM     31  C   UNL     1      -0.047   1.515  -0.002  0.00  0.00    +0.048 C 
ATOM     32  C   UNL     1      -0.029  -0.015  -0.010  0.00  0.00    +0.229 C 
ENDBRANCH  30  32
ENDBRANCH  28  30
ENDBRANCH   1  28
TORSDOF 5
