REMARK  Name = ZINC20568546
REMARK  6 active torsions:
REMARK  status: ('A' for Active; 'I' for Inactive)
REMARK    1  A    between atoms: C_1  and  C_2
REMARK    2  A    between atoms: N_13  and  N_17
REMARK    3  A    between atoms: C_18  and  C_20
REMARK    4  A    between atoms: C_20  and  S_21
REMARK    5  A    between atoms: S_21  and  C_22
REMARK    6  A    between atoms: C_22  and  C_23
REMARK                            x       y       z     vdW  Elec       q    Type
REMARK                         _______ _______ _______ _____ _____    ______ ____
ROOT
ATOM      1  C   UNL     1     -11.578   1.774   9.115  0.00  0.00    +0.008 C 
ATOM      2  C   UNL     1     -10.655   2.537   8.164  0.00  0.00    -0.009 C 
ATOM      3  C   UNL     1      -9.841   1.546   7.328  0.00  0.00    +0.008 C 
ATOM      4  C   UNL     1      -9.106   2.289   6.211  0.00  0.00    +0.037 C 
ATOM      5  C   UNL     1      -8.313   3.440   6.825  0.00  0.00    -0.023 A 
ATOM      6  C   UNL     1      -8.610   3.902   8.057  0.00  0.00    -0.004 A 
ATOM      7  S   UNL     1      -7.453   5.212   8.348  0.00  0.00    -0.075 S 
ATOM      8  C   UNL     1      -6.570   5.135   6.811  0.00  0.00    +0.092 A 
ATOM      9  C   UNL     1      -7.207   4.091   6.120  0.00  0.00    +0.075 A 
ATOM     10  C   UNL     1      -6.695   3.802   4.816  0.00  0.00    +0.280 A 
ATOM     11  O   UNL     1      -7.189   2.915   4.140  0.00  0.00    -0.265 OA
ATOM     12  N   UNL     1      -5.658   4.519   4.346  0.00  0.00    -0.200 N 
ATOM     13  C   UNL     1      -5.097   5.520   5.086  0.00  0.00    +0.179 A 
ATOM     14  N   UNL     1      -5.553   5.810   6.288  0.00  0.00    -0.328 N 
ATOM     15  S   UNL     1      -3.744   6.436   4.425  0.00  0.00    -0.011 S 
ATOM     16  C   UNL     1      -9.687   3.410   8.975  0.00  0.00    +0.046 C 
ATOM     17  H   UNL     1      -5.079   6.622   6.860  0.00  0.00    +0.168 HD
ENDROOT
BRANCH  12  18
ATOM     18  N   UNL     1      -5.148   4.238   3.072  0.00  0.00    -0.217 N 
ATOM     19  C   UNL     1      -3.977   3.584   2.944  0.00  0.00    +0.241 C 
ATOM     20  O   UNL     1      -3.364   3.239   3.932  0.00  0.00    -0.273 OA
ATOM     21  H   UNL     1      -5.704   4.551   2.176  0.00  0.00    +0.176 HD
BRANCH  19  22
ATOM     22  C   UNL     1      -3.429   3.281   1.573  0.00  0.00    +0.166 C 
BRANCH  22  23
ATOM     23  S   UNL     1      -1.852   2.399   1.734  0.00  0.00    -0.147 S 
BRANCH  23  24
ATOM     24  C   UNL     1      -1.332   2.114   0.020  0.00  0.00    +0.106 C 
BRANCH  24  25
ATOM     25  C   UNL     1      -0.017   1.378   0.010  0.00  0.00    -0.019 A 
ATOM     26  C   UNL     1       0.002  -0.004   0.002  0.00  0.00    +0.008 A 
ATOM     27  C   UNL     1       1.208  -0.679  -0.014  0.00  0.00    +0.039 A 
ATOM     28  C   UNL     1       2.398   0.029  -0.022  0.00  0.00    +0.125 A 
ATOM     29  C   UNL     1       2.379   1.413  -0.013  0.00  0.00    +0.058 A 
ATOM     30  C   UNL     1       1.171   2.087   0.002  0.00  0.00    +0.048 A 
ATOM     31 CL   UNL     1       1.147   3.823   0.011  0.00  0.00    -0.083 Cl
ATOM     32  F   UNL     1       3.577  -0.631  -0.037  0.00  0.00    -0.205 F 
ENDBRANCH  24  25
ENDBRANCH  23  24
ENDBRANCH  22  23
ENDBRANCH  19  22
ENDBRANCH  12  18
TORSDOF 5
