REMARK  Name = ZINC40614444
REMARK  6 active torsions:
REMARK  status: ('A' for Active; 'I' for Inactive)
REMARK    1  A    between atoms: N_9  and  C_12
REMARK    2  A    between atoms: C_12  and  C_13
REMARK    3  A    between atoms: N_15  and  C_16
REMARK    4  A    between atoms: C_16  and  C_17
REMARK    5  A    between atoms: C_17  and  C_19
REMARK    6  A    between atoms: C_17  and  N_24
REMARK                            x       y       z     vdW  Elec       q    Type
REMARK                         _______ _______ _______ _____ _____    ______ ____
ROOT
ATOM      1  C   UNL     1       2.596  -5.013  -4.311  0.00  0.00    +0.231 C 
ATOM      2  O   UNL     1       2.753  -3.847  -4.016  0.00  0.00    -0.274 OA
ATOM      3  N   UNL     1       3.553  -5.917  -4.021  0.00  0.00    -0.315 N 
ATOM      4  H   UNL     1       3.428  -6.849  -4.258  0.00  0.00    +0.149 HD
ENDROOT
BRANCH   1   5
ATOM      5  C   UNL     1       1.331  -5.451  -5.003  0.00  0.00    +0.212 C 
BRANCH   5  14
ATOM      6  C   UNL     1      -1.976  -0.553  -6.449  0.00  0.00    +0.001 A 
ATOM      7  C   UNL     1      -2.567  -0.785  -5.221  0.00  0.00    +0.001 A 
ATOM      8  C   UNL     1      -2.156  -1.848  -4.433  0.00  0.00    +0.014 A 
ATOM      9  C   UNL     1      -1.145  -2.684  -4.879  0.00  0.00    +0.049 A 
ATOM     10  C   UNL     1      -0.542  -2.447  -6.131  0.00  0.00    +0.049 A 
ATOM     11  C   UNL     1      -0.963  -1.380  -6.908  0.00  0.00    +0.014 A 
ATOM     12  C   UNL     1       0.479  -3.504  -6.295  0.00  0.00    +0.254 C 
ATOM     13  O   UNL     1       1.213  -3.638  -7.253  0.00  0.00    -0.270 OA
ATOM     14  N   UNL     1       0.458  -4.292  -5.205  0.00  0.00    -0.225 N 
ATOM     15  C   UNL     1      -0.470  -3.876  -4.324  0.00  0.00    +0.254 C 
ATOM     16  O   UNL     1      -0.713  -4.394  -3.253  0.00  0.00    -0.270 OA
ENDBRANCH   5  14
ENDBRANCH   1   5
BRANCH   3  17
ATOM     17  C   UNL     1       4.783  -5.491  -3.349  0.00  0.00    +0.096 C 
BRANCH  17  18
ATOM     18  C   UNL     1       5.636  -6.718  -3.020  0.00  0.00    +0.016 C 
BRANCH  18  19
ATOM     19  N   UNL     1       4.832  -7.681  -2.255  0.00  0.00    +0.387 N 
ATOM     20  C   UNL     1       4.414  -7.049  -0.989  0.00  0.00    -0.078 C 
ATOM     21  C   UNL     1       3.160  -7.735  -0.508  0.00  0.00    -0.019 C 
ATOM     22  C   UNL     1       3.480  -8.838   0.519  0.00  0.00    -0.002 C 
ATOM     23  C   UNL     1       4.732  -9.646   0.120  0.00  0.00    -0.002 C 
ATOM     24  C   UNL     1       4.775  -9.947  -1.356  0.00  0.00    -0.019 C 
ATOM     25  C   UNL     1       5.583  -8.844  -2.071  0.00  0.00    -0.078 C 
ATOM     26  H   UNL     1       4.007  -7.909  -2.789  0.00  0.00    -0.081 HD
ENDBRANCH  18  19
BRANCH  18  27
ATOM     27  C   UNL     1       6.107  -7.360  -4.299  0.00  0.00    +0.093 A 
ATOM     28  C   UNL     1       7.326  -7.216  -4.849  0.00  0.00    +0.043 A 
ATOM     29  C   UNL     1       7.334  -7.988  -6.034  0.00  0.00    +0.041 A 
ATOM     30  C   UNL     1       6.120  -8.557  -6.137  0.00  0.00    +0.195 A 
ATOM     31  O   UNL     1       5.382  -8.178  -5.080  0.00  0.00    -0.469 OA
ENDBRANCH  18  27
ENDBRANCH  17  18
ENDBRANCH   3  17
TORSDOF 6
