REMARK  Name = ZINC39954675
REMARK  5 active torsions:
REMARK  status: ('A' for Active; 'I' for Inactive)
REMARK    1  A    between atoms: C_3  and  S_8
REMARK    2  A    between atoms: S_8  and  N_11
REMARK    3  A    between atoms: N_11  and  C_12
REMARK    4  A    between atoms: C_18  and  C_22
REMARK    5  A    between atoms: N_24  and  C_25
REMARK                            x       y       z     vdW  Elec       q    Type
REMARK                         _______ _______ _______ _____ _____    ______ ____
ROOT
ATOM      1  C   UNL     1       4.694   1.288   2.408  0.00  0.00    +0.224 C 
ATOM      2  N   UNL     1       5.590   1.745   3.479  0.00  0.00    -0.318 N 
ATOM      3  C   UNL     1       5.155   1.605   4.789  0.00  0.00    +0.043 A 
ATOM      4  C   UNL     1       5.880   1.987   5.936  0.00  0.00    +0.025 A 
ATOM      5  C   UNL     1       5.370   1.810   7.195  0.00  0.00    +0.015 A 
ATOM      6  C   UNL     1       4.107   1.243   7.386  0.00  0.00    +0.038 A 
ATOM      7  C   UNL     1       3.368   0.855   6.261  0.00  0.00    +0.029 A 
ATOM      8  C   UNL     1       3.891   1.038   5.006  0.00  0.00    +0.033 A 
ATOM      9  S   UNL     1       3.260   0.677   3.381  0.00  0.00    -0.084 S 
ATOM     10  H   UNL     1       6.457   2.131   3.277  0.00  0.00    +0.148 HD
ENDROOT
BRANCH   6  11
ATOM     11  C   UNL     1       3.564   1.055   8.744  0.00  0.00    +0.248 C 
ATOM     12  O   UNL     1       2.464   0.560   8.895  0.00  0.00    -0.270 OA
ATOM     13  N   UNL     1       4.287   1.432   9.817  0.00  0.00    -0.282 N 
ATOM     14  H   UNL     1       5.192   1.760   9.700  0.00  0.00    +0.155 HD
BRANCH  13  15
ATOM     15  C   UNL     1       3.737   1.352  11.086  0.00  0.00    +0.034 C 
ATOM     16  C   UNL     1       3.658   2.484  11.885  0.00  0.00    +0.029 C 
ATOM     17  C   UNL     1       3.033   2.294  13.122  0.00  0.00    -0.016 C 
ATOM     18  C   UNL     1       3.191   2.878  14.327  0.00  0.00    +0.025 C 
ATOM     19  C   UNL     1       2.513   2.123  15.304  0.00  0.00    +0.106 C 
ATOM     20  N   UNL     1       1.843   1.132  14.783  0.00  0.00    -0.279 NA
ATOM     21  C   UNL     1       1.971   1.228  13.336  0.00  0.00    +0.158 C 
ATOM     22  C   UNL     1       2.432  -0.023  12.654  0.00  0.00    +0.006 C 
ATOM     23  C   UNL     1       3.229   0.071  11.589  0.00  0.00    +0.021 C 
ENDBRANCH  13  15
ENDBRANCH   6  11
BRANCH   1  24
ATOM     24  N   UNL     1       4.305   2.399   1.536  0.00  0.00    -0.160 NA
ATOM     25  H   UNL     1       4.292   3.305   1.882  0.00  0.00    +0.151 HD
BRANCH  24  26
ATOM     26  S   UNL     1       3.885   2.108  -0.039  0.00  0.00    +0.061 S 
ATOM     27  O   UNL     1       4.905   1.282  -0.585  0.00  0.00    -0.153 OA
ATOM     28  O   UNL     1       3.537   3.364  -0.605  0.00  0.00    -0.153 OA
BRANCH  26  31
ATOM     29  C   UNL     1       0.022   1.005   0.002  0.00  0.00    +0.040 A 
ATOM     30  C   UNL     1       1.178   1.763  -0.016  0.00  0.00    +0.031 A 
ATOM     31  C   UNL     1       2.412   1.141  -0.015  0.00  0.00    +0.106 A 
ATOM     32  C   UNL     1       2.493  -0.239   0.003  0.00  0.00    +0.031 A 
ATOM     33  C   UNL     1       1.338  -0.999   0.021  0.00  0.00    +0.040 A 
ATOM     34  C   UNL     1       0.101  -0.377   0.021  0.00  0.00    +0.124 A 
ATOM     35  F   UNL     1      -1.028  -1.118   0.039  0.00  0.00    -0.205 F 
ENDBRANCH  26  31
ENDBRANCH  24  26
ENDBRANCH   1  24
TORSDOF 5
