REMARK  Name = ZINC02316117
REMARK  10 active torsions:
REMARK  status: ('A' for Active; 'I' for Inactive)
REMARK    1  A    between atoms: C_1  and  C_2
REMARK    2  A    between atoms: C_2  and  C_4
REMARK    3  A    between atoms: C_2  and  N_56
REMARK    4  A    between atoms: N_6  and  C_7
REMARK    5  A    between atoms: N_6  and  C_8
REMARK    6  A    between atoms: C_17  and  C_18
REMARK    7  A    between atoms: C_18  and  O_20
REMARK    8  A    between atoms: O_20  and  C_21
REMARK    9  A    between atoms: C_26  and  C_28
REMARK   10  A    between atoms: C_26  and  C_29
REMARK                            x       y       z     vdW  Elec       q    Type
REMARK                         _______ _______ _______ _____ _____    ______ ____
ROOT
ATOM      1  C   UNL     1      -0.824   2.100   1.147  0.00  0.00    +0.206 C 
ATOM      2  O   UNL     1      -0.341   2.951   1.864  0.00  0.00    -0.277 OA
ATOM      3  N   UNL     1      -2.083   1.670   1.366  0.00  0.00    -0.273 N 
ATOM      4  C   UNL     1      -2.667   0.643   0.500  0.00  0.00    +0.138 C 
ENDROOT
BRANCH   3   5
ATOM      5  C   UNL     1      -2.826   2.200   2.415  0.00  0.00    +0.076 A 
ATOM      6  C   UNL     1      -2.888   1.694   3.788  0.00  0.00    +0.023 A 
ATOM      7  C   UNL     1      -2.283   0.617   4.445  0.00  0.00    +0.032 A 
ATOM      8  C   UNL     1      -2.545   0.395   5.767  0.00  0.00    +0.042 A 
ATOM      9  C   UNL     1      -3.408   1.231   6.466  0.00  0.00    +0.022 A 
ATOM     10  C   UNL     1      -4.008   2.301   5.841  0.00  0.00    +0.028 A 
ATOM     11  C   UNL     1      -3.760   2.545   4.492  0.00  0.00    +0.049 A 
ATOM     12  N   UNL     1      -4.213   3.505   3.617  0.00  0.00    -0.348 N 
ATOM     13  H   UNL     1      -4.832   4.217   3.843  0.00  0.00    +0.166 HD
ATOM     14  C   UNL     1      -3.655   3.303   2.364  0.00  0.00    +0.147 A 
ATOM     15 CL   UNL     1      -1.794  -0.942   6.581  0.00  0.00    -0.084 Cl
BRANCH  14  16
ATOM     16  C   UNL     1      -3.895   4.099   1.215  0.00  0.00    +0.357 C 
ATOM     17  O   UNL     1      -3.349   3.830   0.162  0.00  0.00    -0.243 OA
BRANCH  16  18
ATOM     18  O   UNL     1      -4.730   5.157   1.291  0.00  0.00    -0.463 OA
ATOM     19  C   UNL     1      -4.927   5.915   0.096  0.00  0.00    +0.280 C 
ENDBRANCH  16  18
ENDBRANCH  14  16
ENDBRANCH   3   5
BRANCH   1  21
ATOM     20  C   UNL     1       0.657   0.232   0.468  0.00  0.00    -0.004 C 
ATOM     21  C   UNL     1      -0.019   1.526   0.010  0.00  0.00    +0.017 C 
BRANCH  21  29
ATOM     22  C   UNL     1       1.923   1.903  -1.385  0.00  0.00    -0.078 C 
ATOM     23  C   UNL     1       3.058   2.886  -1.681  0.00  0.00    -0.018 C 
ATOM     24  C   UNL     1       2.468   4.190  -2.226  0.00  0.00    +0.003 C 
ATOM     25  C   UNL     1       1.480   4.760  -1.204  0.00  0.00    -0.050 C 
ATOM     26  C   UNL     1       0.391   3.722  -0.921  0.00  0.00    -0.071 C 
ATOM     27  C   UNL     1       0.841   6.031  -1.766  0.00  0.00    +0.009 C 
ATOM     28  C   UNL     1       2.220   5.090   0.094  0.00  0.00    +0.009 C 
ATOM     29  N   UNL     1       1.022   2.501  -0.377  0.00  0.00    +0.387 N 
ATOM     30  H   UNL     1       1.570   2.751   0.454  0.00  0.00    -0.081 HD
ENDBRANCH  21  29
ENDBRANCH   1  21
TORSDOF 5
