REMARK  Name = ZINC02919219
REMARK  2 active torsions:
REMARK  status: ('A' for Active; 'I' for Inactive)
REMARK    1  A    between atoms: C_5  and  C_7
REMARK    2  A    between atoms: C_10  and  C_18
REMARK                            x       y       z     vdW  Elec       q    Type
REMARK                         _______ _______ _______ _____ _____    ______ ____
ROOT
ATOM      1  C   UNL     1      -0.752   1.593  -1.236  0.00  0.00    +0.144 C 
ATOM      2  C   UNL     1      -0.013   1.086   0.008  0.00  0.00    +0.059 C 
ATOM      3  C   UNL     1      -0.728   1.579   1.271  0.00  0.00    +0.107 C 
ATOM      4  N   UNL     1      -2.088   1.010   1.295  0.00  0.00    -0.307 N 
ATOM      5  C   UNL     1      -2.784   1.032   0.093  0.00  0.00    +0.215 A 
ATOM      6  N   UNL     1      -2.178   1.303  -1.088  0.00  0.00    -0.226 N 
ATOM      7  N   UNL     1      -3.172   1.243  -2.066  0.00  0.00    -0.156 NA
ATOM      8  C   UNL     1      -4.290   0.948  -1.450  0.00  0.00    +0.247 A 
ATOM      9  N   UNL     1      -4.051   0.820  -0.141  0.00  0.00    -0.202 NA
ATOM     10  H   UNL     1      -2.476   0.642   2.105  0.00  0.00    +0.149 HD
ENDROOT
BRANCH   1  15
ATOM     11  C   UNL     1       0.187  -1.124  -3.684  0.00  0.00    +0.000 A 
ATOM     12  C   UNL     1       0.759  -0.389  -4.706  0.00  0.00    +0.001 A 
ATOM     13  C   UNL     1       0.843   0.986  -4.606  0.00  0.00    +0.020 A 
ATOM     14  C   UNL     1       0.353   1.629  -3.483  0.00  0.00    +0.046 A 
ATOM     15  C   UNL     1      -0.219   0.894  -2.460  0.00  0.00    -0.005 A 
ATOM     16  C   UNL     1      -0.298  -0.483  -2.559  0.00  0.00    +0.007 A 
ATOM     17 CL   UNL     1       0.457   3.357  -3.356  0.00  0.00    -0.083 Cl
ENDBRANCH   1  15
BRANCH   3  18
ATOM     18  C   UNL     1      -0.808   3.084   1.252  0.00  0.00    -0.009 A 
ATOM     19  C   UNL     1       0.089   3.844   1.987  0.00  0.00    +0.008 A 
ATOM     20  C   UNL     1      -0.022   5.225   1.939  0.00  0.00    +0.020 A 
ATOM     21  C   UNL     1      -1.017   5.794   1.166  0.00  0.00    +0.111 A 
ATOM     22  N   UNL     1      -1.853   5.040   0.480  0.00  0.00    -0.263 NA
ATOM     23  C   UNL     1      -1.773   3.724   0.497  0.00  0.00    +0.116 A 
ENDBRANCH   3  18
TORSDOF 2
