REMARK  Name = ZINC04913255
REMARK  5 active torsions:
REMARK  status: ('A' for Active; 'I' for Inactive)
REMARK    1  A    between atoms: C_1  and  C_2
REMARK    2  A    between atoms: C_3  and  C_17
REMARK    3  A    between atoms: C_4  and  C_10
REMARK    4  A    between atoms: C_17  and  O_19
REMARK    5  A    between atoms: O_19  and  C_20
REMARK                            x       y       z     vdW  Elec       q    Type
REMARK                         _______ _______ _______ _____ _____    ______ ____
ROOT
ATOM      1  C   UNL     1      -1.237   3.285  -2.924  0.00  0.00    +0.061 C 
ATOM      2  C   UNL     1      -0.463   2.794  -1.728  0.00  0.00    +0.018 C 
ATOM      3  C   UNL     1      -0.742   1.585  -1.213  0.00  0.00    +0.061 C 
ATOM      4  C   UNL     1      -0.013   1.086   0.008  0.00  0.00    +0.069 C 
ATOM      5  C   UNL     1       1.423   1.615  -0.003  0.00  0.00    +0.109 C 
ATOM      6  C   UNL     1       1.409   3.090  -0.317  0.00  0.00    +0.218 C 
ATOM      7  O   UNL     1       2.208   3.829   0.218  0.00  0.00    -0.275 OA
ATOM      8  N   UNL     1       0.513   3.588  -1.187  0.00  0.00    -0.289 N 
ATOM      9  H   UNL     1       0.559   4.524  -1.436  0.00  0.00    +0.155 HD
ENDROOT
BRANCH   4  10
ATOM     10  C   UNL     1      -0.718   1.572   1.248  0.00  0.00    -0.004 A 
ATOM     11  C   UNL     1      -0.856   2.928   1.478  0.00  0.00    +0.007 A 
ATOM     12  C   UNL     1      -1.508   3.374   2.613  0.00  0.00    +0.000 A 
ATOM     13  C   UNL     1      -2.013   2.464   3.524  0.00  0.00    +0.003 A 
ATOM     14  C   UNL     1      -1.871   1.109   3.298  0.00  0.00    +0.038 A 
ATOM     15  C   UNL     1      -1.223   0.660   2.159  0.00  0.00    +0.127 A 
ATOM     16  F   UNL     1      -1.084  -0.665   1.938  0.00  0.00    -0.205 F 
ENDBRANCH   4  10
BRANCH   3  17
ATOM     17  C   UNL     1      -1.728   0.774  -1.821  0.00  0.00    +0.337 C 
ATOM     18  O   UNL     1      -2.320   1.172  -2.807  0.00  0.00    -0.245 OA
BRANCH  17  19
ATOM     19  O   UNL     1      -2.013  -0.442  -1.309  0.00  0.00    -0.458 OA
BRANCH  19  20
ATOM     20  C   UNL     1      -3.020  -1.207  -1.974  0.00  0.00    +0.177 C 
ATOM     21  C   UNL     1      -4.388  -0.887  -1.367  0.00  0.00    +0.044 C 
ATOM     22  C   UNL     1      -5.490  -1.378  -2.307  0.00  0.00    +0.004 C 
ATOM     23  C   UNL     1      -5.138  -1.002  -3.748  0.00  0.00    +0.000 C 
ATOM     24  C   UNL     1      -4.857  -2.273  -4.552  0.00  0.00    +0.000 C 
ATOM     25  C   UNL     1      -3.474  -2.813  -4.185  0.00  0.00    +0.000 C 
ATOM     26  C   UNL     1      -3.540  -3.499  -2.819  0.00  0.00    +0.004 C 
ATOM     27  C   UNL     1      -2.723  -2.698  -1.804  0.00  0.00    +0.044 C 
ENDBRANCH  19  20
ENDBRANCH  17  19
ENDBRANCH   3  17
TORSDOF 4
