REMARK  Name = ZINC67358462
REMARK  5 active torsions:
REMARK  status: ('A' for Active; 'I' for Inactive)
REMARK    1  A    between atoms: C_1  and  C_2
REMARK    2  A    between atoms: C_2  and  C_4
REMARK    3  A    between atoms: C_2  and  N_10
REMARK    4  A    between atoms: N_8  and  C_9
REMARK    5  A    between atoms: C_17  and  C_20
REMARK                            x       y       z     vdW  Elec       q    Type
REMARK                         _______ _______ _______ _____ _____    ______ ____
ROOT
ATOM      1  N   UNL     1       2.743  -0.259  -0.119  0.00  0.00    -0.290 N 
ATOM      2  C   UNL     1       2.031  -0.587  -1.215  0.00  0.00    +0.303 C 
ATOM      3  O   UNL     1       0.816  -0.579  -1.175  0.00  0.00    -0.253 OA
ATOM      4  N   UNL     1       2.666  -0.925  -2.355  0.00  0.00    -0.281 N 
ATOM      5  C   UNL     1       1.914  -1.170  -3.596  0.00  0.00    +0.137 C 
ATOM      6  C   UNL     1       2.367  -2.514  -4.178  0.00  0.00    +0.179 C 
ATOM      7  O   UNL     1       3.793  -2.524  -4.286  0.00  0.00    -0.369 OA
ATOM      8  C   UNL     1       4.476  -2.408  -3.035  0.00  0.00    +0.166 C 
ATOM      9  C   UNL     1       4.131  -1.053  -2.397  0.00  0.00    +0.145 C 
ATOM     10  H   UNL     1       3.710  -0.335  -0.128  0.00  0.00    +0.151 HD
ENDROOT
BRANCH   8  11
ATOM     11  C   UNL     1       5.963  -2.492  -3.264  0.00  0.00    -0.016 A 
ATOM     12  C   UNL     1       6.531  -1.859  -4.354  0.00  0.00    +0.008 A 
ATOM     13  C   UNL     1       7.895  -1.936  -4.565  0.00  0.00    +0.022 A 
ATOM     14  C   UNL     1       8.692  -2.646  -3.686  0.00  0.00    +0.059 A 
ATOM     15  C   UNL     1       8.123  -3.280  -2.594  0.00  0.00    +0.060 A 
ATOM     16  C   UNL     1       6.758  -3.197  -2.381  0.00  0.00    +0.027 A 
ATOM     17 CL   UNL     1       9.122  -4.172  -1.490  0.00  0.00    -0.082 Cl
ATOM     18 CL   UNL     1      10.405  -2.744  -3.951  0.00  0.00    -0.082 Cl
ENDBRANCH   8  11
BRANCH   1  20
ATOM     19  C   UNL     1       1.606  -0.988   1.919  0.00  0.00    +0.036 C 
ATOM     20  C   UNL     1       2.057   0.213   1.086  0.00  0.00    +0.139 C 
BRANCH  20  21
ATOM     21  C   UNL     1       2.998   1.063   1.900  0.00  0.00    +0.153 A 
ATOM     22  N   UNL     1       4.246   0.792   2.173  0.00  0.00    -0.133 NA
ATOM     23  N   UNL     1       4.747   1.736   2.888  0.00  0.00    -0.138 NA
ATOM     24  C   UNL     1       3.843   2.652   3.104  0.00  0.00    +0.224 A 
ATOM     25  N   UNL     1       2.709   2.254   2.479  0.00  0.00    -0.319 N 
ATOM     26  C   UNL     1       1.428   2.965   2.439  0.00  0.00    +0.151 C 
ENDBRANCH  20  21
ENDBRANCH   1  20
TORSDOF 3
