REMARK  Name = ZINC21223275
REMARK  8 active torsions:
REMARK  status: ('A' for Active; 'I' for Inactive)
REMARK    1  A    between atoms: C_1  and  C_2
REMARK    2  A    between atoms: C_2  and  C_3
REMARK    3  A    between atoms: C_2  and  O_4
REMARK    4  A    between atoms: O_4  and  C_5
REMARK    5  A    between atoms: C_8  and  C_13
REMARK    6  A    between atoms: C_10  and  O_11
REMARK    7  A    between atoms: O_11  and  C_12
REMARK    8  A    between atoms: C_18  and  C_28
REMARK                            x       y       z     vdW  Elec       q    Type
REMARK                         _______ _______ _______ _____ _____    ______ ____
ROOT
ATOM      1  C   UNL     1      -4.489   5.391  -4.022  0.00  0.00    +0.032 C 
ATOM      2  C   UNL     1      -5.723   5.126  -3.162  0.00  0.00    +0.059 C 
ATOM      3  C   UNL     1      -5.302   4.669  -1.776  0.00  0.00    +0.017 C 
ATOM      4  C   UNL     1      -4.164   5.116  -1.226  0.00  0.00    +0.037 C 
ATOM      5  C   UNL     1      -3.634   4.759   0.141  0.00  0.00    +0.143 C 
ATOM      6  N   UNL     1      -4.580   4.062   0.987  0.00  0.00    -0.331 N 
ATOM      7  C   UNL     1      -5.043   2.792   0.650  0.00  0.00    +0.049 A 
ATOM      8  C   UNL     1      -4.757   1.685   1.432  0.00  0.00    +0.025 A 
ATOM      9  C   UNL     1      -5.199   0.436   1.031  0.00  0.00    +0.002 A 
ATOM     10  C   UNL     1      -5.917   0.291  -0.142  0.00  0.00    +0.002 A 
ATOM     11  C   UNL     1      -6.220   1.398  -0.917  0.00  0.00    +0.025 A 
ATOM     12  C   UNL     1      -5.798   2.650  -0.505  0.00  0.00    +0.052 A 
ATOM     13  N   UNL     1      -6.165   3.814  -1.170  0.00  0.00    -0.316 N 
ATOM     14  C   UNL     1      -3.331   6.014  -1.942  0.00  0.00    +0.163 C 
ATOM     15  O   UNL     1      -2.314   6.420  -1.414  0.00  0.00    -0.292 OA
ATOM     16  C   UNL     1      -3.661   6.479  -3.328  0.00  0.00    +0.088 C 
ATOM     17  H   UNL     1      -4.943   4.535   1.911  0.00  0.00    +0.147 HD
ATOM     18  H   UNL     1      -7.245   4.021  -1.184  0.00  0.00    +0.152 HD
ENDROOT
BRANCH   5  19
ATOM     19  C   UNL     1      -2.416   3.888  -0.031  0.00  0.00    +0.059 A 
ATOM     20  C   UNL     1      -2.227   3.209  -1.177  0.00  0.00    +0.205 A 
ATOM     21  O   UNL     1      -1.166   2.422  -1.386  0.00  0.00    -0.462 OA
ATOM     22  C   UNL     1      -0.198   2.252  -0.463  0.00  0.00    +0.138 A 
ATOM     23  C   UNL     1       0.889   1.423  -0.710  0.00  0.00    +0.047 A 
ATOM     24  C   UNL     1       1.863   1.262   0.252  0.00  0.00    +0.004 A 
ATOM     25  C   UNL     1       1.770   1.916   1.472  0.00  0.00    +0.001 A 
ATOM     26  C   UNL     1       0.697   2.739   1.739  0.00  0.00    +0.015 A 
ATOM     27  C   UNL     1      -0.294   2.910   0.775  0.00  0.00    +0.064 A 
ATOM     28  C   UNL     1      -1.462   3.780   1.015  0.00  0.00    +0.198 A 
ATOM     29  O   UNL     1      -1.601   4.381   2.066  0.00  0.00    -0.287 OA
ENDBRANCH   5  19
BRANCH   1  33
ATOM     30  C   UNL     1      -5.690   6.737  -7.900  0.00  0.00    +0.162 A 
ATOM     31  C   UNL     1      -6.048   7.457  -6.772  0.00  0.00    +0.050 A 
ATOM     32  C   UNL     1      -5.659   7.019  -5.520  0.00  0.00    +0.008 A 
ATOM     33  C   UNL     1      -4.912   5.863  -5.390  0.00  0.00    -0.040 A 
ATOM     34  C   UNL     1      -4.546   5.143  -6.511  0.00  0.00    +0.053 A 
ATOM     35  C   UNL     1      -4.938   5.573  -7.769  0.00  0.00    +0.162 A 
BRANCH  35  36
ATOM     36  O   UNL     1      -4.584   4.863  -8.873  0.00  0.00    -0.491 OA
ATOM     37  C   UNL     1      -3.812   3.679  -8.663  0.00  0.00    +0.277 C 
ENDBRANCH  35  36
BRANCH  30  38
ATOM     38  O   UNL     1      -6.072   7.166  -9.133  0.00  0.00    -0.486 OA
BRANCH  38  40
ATOM     39  C   UNL     1      -6.094   9.583  -9.125  0.00  0.00    +0.051 C 
ATOM     40  C   UNL     1      -6.933   8.305  -9.184  0.00  0.00    +0.167 C 
ATOM     41  C   UNL     1      -7.733   8.280 -10.489  0.00  0.00    +0.051 C 
ENDBRANCH  38  40
ENDBRANCH  30  38
ENDBRANCH   1  33
TORSDOF 5
