REMARK  Name = ZINC17086080
REMARK  4 active torsions:
REMARK  status: ('A' for Active; 'I' for Inactive)
REMARK    1  A    between atoms: C_1  and  C_2
REMARK    2  A    between atoms: C_14  and  C_17
REMARK    3  A    between atoms: C_20  and  O_24
REMARK    4  A    between atoms: O_24  and  C_25
REMARK                            x       y       z     vdW  Elec       q    Type
REMARK                         _______ _______ _______ _____ _____    ______ ____
ROOT
ATOM      1  C   UNL     1       0.140   1.284   2.497  0.00  0.00    +0.008 C 
ATOM      2  C   UNL     1      -0.726   1.578   1.271  0.00  0.00    -0.009 C 
ATOM      3  C   UNL     1      -0.013   1.086   0.008  0.00  0.00    +0.008 C 
ATOM      4  C   UNL     1      -0.749   1.591  -1.234  0.00  0.00    +0.037 C 
ATOM      5  C   UNL     1      -2.223   1.218  -1.118  0.00  0.00    -0.023 A 
ATOM      6  C   UNL     1      -2.762   0.890   0.077  0.00  0.00    -0.004 A 
ATOM      7  S   UNL     1      -4.465   0.537  -0.270  0.00  0.00    -0.078 S 
ATOM      8  C   UNL     1      -4.458   0.818  -1.959  0.00  0.00    +0.080 A 
ATOM      9  C   UNL     1      -3.136   1.188  -2.249  0.00  0.00    +0.068 A 
ATOM     10  C   UNL     1      -2.806   1.497  -3.660  0.00  0.00    +0.248 C 
ATOM     11  O   UNL     1      -1.659   1.704  -4.012  0.00  0.00    -0.270 OA
ATOM     12  N   UNL     1      -3.829   1.539  -4.538  0.00  0.00    -0.289 N 
ATOM     13  C   UNL     1      -5.234   1.530  -4.140  0.00  0.00    +0.190 C 
ATOM     14  N   UNL     1      -5.436   0.735  -2.915  0.00  0.00    -0.316 N 
ATOM     15  C   UNL     1      -2.065   0.841   1.401  0.00  0.00    +0.046 C 
ATOM     16  H   UNL     1      -3.560   1.582  -5.604  0.00  0.00    +0.151 HD
ATOM     17  H   UNL     1      -6.339   0.116  -2.804  0.00  0.00    +0.149 HD
ENDROOT
BRANCH  13  18
ATOM     18  C   UNL     1      -5.684   2.946  -3.890  0.00  0.00    -0.008 A 
ATOM     19  C   UNL     1      -6.704   3.197  -2.991  0.00  0.00    +0.011 A 
ATOM     20  C   UNL     1      -7.115   4.495  -2.756  0.00  0.00    +0.047 A 
ATOM     21  C   UNL     1      -6.511   5.546  -3.431  0.00  0.00    +0.133 A 
ATOM     22  C   UNL     1      -5.490   5.291  -4.336  0.00  0.00    +0.055 A 
ATOM     23  C   UNL     1      -5.079   3.991  -4.563  0.00  0.00    +0.025 A 
ATOM     24  I   UNL     1      -4.574   6.875  -5.356  0.00  0.00    -0.040 I 
BRANCH  21  25
ATOM     25  O   UNL     1      -6.918   6.823  -3.205  0.00  0.00    -0.494 OA
ATOM     26  C   UNL     1      -7.973   7.011  -2.260  0.00  0.00    +0.277 C 
ENDBRANCH  21  25
ENDBRANCH  13  18
TORSDOF 2
