REMARK  Name = ZINC12293523
REMARK  7 active torsions:
REMARK  status: ('A' for Active; 'I' for Inactive)
REMARK    1  A    between atoms: C_1  and  C_2
REMARK    2  A    between atoms: C_5  and  C_9
REMARK    3  A    between atoms: C_7  and  C_8
REMARK    4  A    between atoms: C_9  and  C_11
REMARK    5  A    between atoms: C_9  and  O_29
REMARK    6  A    between atoms: C_11  and  N_56
REMARK    7  A    between atoms: C_18  and  O_28
REMARK                            x       y       z     vdW  Elec       q    Type
REMARK                         _______ _______ _______ _____ _____    ______ ____
ROOT
ATOM      1  C   UNL     1       3.817   5.824  -0.433  0.00  0.00    -0.075 C 
ATOM      2  C   UNL     1       2.432   5.222  -0.184  0.00  0.00    +0.029 C 
ATOM      3  C   UNL     1       2.513   3.700  -0.302  0.00  0.00    +0.110 C 
ATOM      4  C   UNL     1       3.549   3.167   0.690  0.00  0.00    +0.029 C 
ATOM      5  C   UNL     1       4.901   3.829   0.414  0.00  0.00    -0.075 C 
ATOM      6  C   UNL     1       1.144   3.086   0.010  0.00  0.00    +0.084 C 
ATOM      7  C   UNL     1       1.286   1.562  -0.002  0.00  0.00    +0.152 C 
ATOM      8  C   UNL     1       2.029   1.131  -1.242  0.00  0.00    +0.024 A 
ATOM      9  C   UNL     1       1.950  -0.195  -1.637  0.00  0.00    +0.029 A 
ATOM     10  C   UNL     1       2.621  -0.627  -2.765  0.00  0.00    +0.042 A 
ATOM     11  C   UNL     1       3.376   0.267  -3.505  0.00  0.00    +0.023 A 
ATOM     12  C   UNL     1       3.457   1.588  -3.115  0.00  0.00    +0.047 A 
ATOM     13  C   UNL     1       2.782   2.026  -1.980  0.00  0.00    +0.127 A 
ATOM     14  O   UNL     1       2.884   3.335  -1.631  0.00  0.00    -0.485 OA
ATOM     15 CL   UNL     1       2.516  -2.289  -3.255  0.00  0.00    -0.084 Cl
ATOM     16  N   UNL     1       4.759   5.292   0.575  0.00  0.00    +0.382 N 
ATOM     17  H   UNL     1       4.391   5.490   1.512  0.00  0.00    -0.082 HD
ENDROOT
BRANCH   7  18
ATOM     18  O   UNL     1      -0.011   0.963   0.007  0.00  0.00    -0.387 OA
ATOM     19  H   UNL     1       0.002  -0.004   0.002  0.00  0.00    +0.210 HD
ENDBRANCH   7  18
BRANCH  16  20
ATOM     20  C   UNL     1       6.076   5.946   0.429  0.00  0.00    -0.042 C 
BRANCH  20  21
ATOM     21  C   UNL     1       7.104   5.199   1.281  0.00  0.00    +0.128 C 
BRANCH  21  26
ATOM     22  C   UNL     1      12.245   7.796   0.815  0.00  0.00    +0.044 C 
ATOM     23  C   UNL     1      10.904   7.119   0.936  0.00  0.00    -0.048 A 
ATOM     24  C   UNL     1       9.980   7.575   1.859  0.00  0.00    +0.004 A 
ATOM     25  C   UNL     1       8.749   6.956   1.967  0.00  0.00    +0.006 A 
ATOM     26  C   UNL     1       8.444   5.876   1.159  0.00  0.00    -0.021 A 
ATOM     27  C   UNL     1       9.367   5.421   0.237  0.00  0.00    +0.009 A 
ATOM     28  C   UNL     1      10.597   6.043   0.125  0.00  0.00    -0.047 A 
ATOM     29  C   UNL     1      11.604   5.546  -0.880  0.00  0.00    +0.044 C 
ENDBRANCH  21  26
BRANCH  21  30
ATOM     30  O   UNL     1       6.687   5.209   2.648  0.00  0.00    -0.389 OA
ATOM     31  H   UNL     1       6.594   6.095   3.024  0.00  0.00    +0.210 HD
ENDBRANCH  21  30
ENDBRANCH  20  21
ENDBRANCH  16  20
TORSDOF 5
