REMARK  Name = ZINC32103682
REMARK  5 active torsions:
REMARK  status: ('A' for Active; 'I' for Inactive)
REMARK    1  A    between atoms: C_1  and  C_2
REMARK    2  A    between atoms: C_7  and  N_8
REMARK    3  A    between atoms: C_22  and  C_30
REMARK    4  A    between atoms: N_24  and  C_27
REMARK    5  A    between atoms: C_27  and  C_28
REMARK                            x       y       z     vdW  Elec       q    Type
REMARK                         _______ _______ _______ _____ _____    ______ ____
ROOT
ATOM      1  N   UNL     1       0.041   0.323   2.290  0.00  0.00    -0.218 N 
ATOM      2  C   UNL     1       0.242  -0.198   3.518  0.00  0.00    +0.133 A 
ATOM      3  C   UNL     1       0.300   0.847   4.405  0.00  0.00    +0.032 A 
ATOM      4  C   UNL     1       0.141   2.024   3.690  0.00  0.00    +0.141 A 
ATOM      5  N   UNL     1      -0.008   1.720   2.422  0.00  0.00    -0.173 NA
ATOM      6  C   UNL     1       0.496   0.630   5.880  0.00  0.00    +0.112 C 
ATOM      7  C   UNL     1       1.272  -0.667   6.100  0.00  0.00    +0.122 C 
ATOM      8  C   UNL     1       0.767  -1.762   5.201  0.00  0.00    +0.220 C 
ATOM      9  O   UNL     1       0.716  -2.896   5.628  0.00  0.00    -0.275 OA
ATOM     10  N   UNL     1       0.367  -1.522   3.934  0.00  0.00    -0.270 N 
ATOM     11  C   UNL     1      -0.812   0.606   6.603  0.00  0.00    -0.006 A 
ATOM     12  C   UNL     1      -1.905  -0.226   6.489  0.00  0.00    +0.007 A 
ATOM     13  C   UNL     1      -2.984   0.031   7.329  0.00  0.00    +0.001 A 
ATOM     14  C   UNL     1      -2.957   1.072   8.235  0.00  0.00    +0.005 A 
ATOM     15  C   UNL     1      -1.862   1.913   8.355  0.00  0.00    -0.029 A 
ATOM     16  C   UNL     1      -0.772   1.666   7.517  0.00  0.00    +0.044 A 
ATOM     17  N   UNL     1       0.434   2.336   7.425  0.00  0.00    -0.266 N 
ATOM     18  C   UNL     1       1.243   1.796   6.488  0.00  0.00    +0.236 C 
ATOM     19  O   UNL     1       2.356   2.174   6.191  0.00  0.00    -0.274 OA
ATOM     20  C   UNL     1      -1.847   3.046   9.348  0.00  0.00    +0.045 C 
ATOM     21  H   UNL     1       0.172  -2.254   3.328  0.00  0.00    +0.156 HD
ENDROOT
BRANCH   1  28
ATOM     22  C   UNL     1      -2.106   0.984   0.543  0.00  0.00    +0.046 C 
ATOM     23  C   UNL     1      -1.123  -0.110   0.216  0.00  0.00    -0.025 A 
ATOM     24  C   UNL     1      -1.245  -0.821  -0.962  0.00  0.00    +0.005 A 
ATOM     25  C   UNL     1      -0.343  -1.825  -1.262  0.00  0.00    +0.000 A 
ATOM     26  C   UNL     1       0.684  -2.120  -0.384  0.00  0.00    +0.002 A 
ATOM     27  C   UNL     1       0.812  -1.413   0.795  0.00  0.00    +0.028 A 
ATOM     28  C   UNL     1      -0.089  -0.401   1.097  0.00  0.00    +0.070 A 
ENDBRANCH   1  28
BRANCH  17  29
ATOM     29  C   UNL     1       0.793   3.496   8.245  0.00  0.00    +0.140 C 
BRANCH  29  30
ATOM     30  C   UNL     1       0.468   4.762   7.495  0.00  0.00    -0.015 C 
ATOM     31  C   UNL     1      -0.283   5.679   8.053  0.00  0.00    +0.005 C 
ENDBRANCH  29  30
ENDBRANCH  17  29
TORSDOF 3
