REMARK  Name = ZINC01049621
REMARK  10 active torsions:
REMARK  status: ('A' for Active; 'I' for Inactive)
REMARK    1  A    between atoms: C_1  and  C_2
REMARK    2  A    between atoms: C_2  and  O_3
REMARK    3  A    between atoms: O_3  and  C_4
REMARK    4  A    between atoms: C_12  and  C_28
REMARK    5  A    between atoms: N_14  and  C_22
REMARK    6  A    between atoms: C_17  and  N_21
REMARK    7  A    between atoms: C_18  and  C_19
REMARK    8  A    between atoms: C_32  and  C_36
REMARK    9  A    between atoms: C_32  and  C_37
REMARK   10  A    between atoms: C_34  and  C_35
REMARK                            x       y       z     vdW  Elec       q    Type
REMARK                         _______ _______ _______ _____ _____    ______ ____
ROOT
ATOM      1  C   UNL     1       2.374   0.081  -0.020  0.00  0.00    +0.121 A 
ATOM      2  C   UNL     1       2.360   1.471  -0.013  0.00  0.00    +0.055 A 
ATOM      3  C   UNL     1       1.158   2.158   0.003  0.00  0.00    +0.003 A 
ATOM      4  C   UNL     1      -0.017   1.381   0.010  0.00  0.00    +0.050 A 
ATOM      5  C   UNL     1       0.002  -0.004   0.002  0.00  0.00    +0.003 A 
ATOM      6  C   UNL     1       1.202  -0.683  -0.013  0.00  0.00    +0.052 A 
ATOM      7  C   UNL     1      -1.435  -0.407   0.015  0.00  0.00    +0.145 C 
ATOM      8  C   UNL     1      -1.768  -1.216   1.237  0.00  0.00    +0.062 A 
ATOM      9  C   UNL     1      -1.814  -0.830   2.570  0.00  0.00    +0.069 A 
ATOM     10  N   UNL     1      -2.151  -1.875   3.289  0.00  0.00    -0.168 NA
ATOM     11  N   UNL     1      -2.332  -2.968   2.428  0.00  0.00    -0.200 N 
ATOM     12  C   UNL     1      -2.092  -2.544   1.169  0.00  0.00    +0.230 A 
ATOM     13  O   UNL     1      -2.137  -3.226  -0.002  0.00  0.00    -0.423 OA
ATOM     14  C   UNL     1      -2.112  -2.515  -1.148  0.00  0.00    +0.201 C 
ATOM     15  C   UNL     1      -1.795  -1.201  -1.210  0.00  0.00    +0.110 C 
ATOM     16  C   UNL     1      -1.527   0.551   3.100  0.00  0.00    +0.068 C 
ATOM     17  C   UNL     1      -2.206   0.901   0.039  0.00  0.00    +0.241 C 
ATOM     18  O   UNL     1      -3.413   1.022   0.058  0.00  0.00    -0.273 OA
ATOM     19  N   UNL     1      -1.306   1.902   0.031  0.00  0.00    -0.260 N 
ATOM     20  C   UNL     1      -1.545   3.351   0.034  0.00  0.00    +0.055 C 
ATOM     21  C   UNL     1      -0.259   4.121   0.026  0.00  0.00    +0.002 C 
ATOM     22  C   UNL     1       0.963   3.614   0.012  0.00  0.00    -0.043 C 
ATOM     23  C   UNL     1       2.158   4.532   0.005  0.00  0.00    +0.044 C 
ATOM     24  C   UNL     1      -2.339   3.718   1.289  0.00  0.00    +0.036 C 
ATOM     25  C   UNL     1      -2.362   3.729  -1.203  0.00  0.00    +0.036 C 
ENDROOT
BRANCH  11  26
ATOM     26  C   UNL     1      -2.696  -4.268   2.807  0.00  0.00    +0.069 A 
ATOM     27  C   UNL     1      -3.516  -5.028   1.984  0.00  0.00    +0.028 A 
ATOM     28  C   UNL     1      -3.869  -6.310   2.358  0.00  0.00    +0.002 A 
ATOM     29  C   UNL     1      -3.415  -6.833   3.555  0.00  0.00    +0.000 A 
ATOM     30  C   UNL     1      -2.602  -6.076   4.379  0.00  0.00    +0.002 A 
ATOM     31  C   UNL     1      -2.241  -4.795   4.008  0.00  0.00    +0.028 A 
ENDBRANCH  11  26
BRANCH  14  32
ATOM     32  N   UNL     1      -2.426  -3.162  -2.318  0.00  0.00    -0.328 N 
ATOM     33  H   UNL     1      -2.658  -4.104  -2.304  0.00  0.00    +0.145 HD
ATOM     34  H   UNL     1      -2.416  -2.677  -3.158  0.00  0.00    +0.145 HD
ENDBRANCH  14  32
BRANCH  15  35
ATOM     35  C   UNL     1      -1.802  -0.545  -2.484  0.00  0.00    +0.102 C 
ATOM     36  N   UNL     1      -1.808  -0.025  -3.494  0.00  0.00    -0.191 NA
ENDBRANCH  15  35
BRANCH   1  37
ATOM     37  O   UNL     1       3.573  -0.560  -0.035  0.00  0.00    -0.492 OA
BRANCH  37  39
ATOM     38  C   UNL     1       5.988  -0.636  -0.059  0.00  0.00    +0.048 C 
ATOM     39  C   UNL     1       4.746   0.256  -0.042  0.00  0.00    +0.225 C 
ENDBRANCH  37  39
ENDBRANCH   1  37
TORSDOF 5
