REMARK  Name = ZINC36215613
REMARK  12 active torsions:
REMARK  status: ('A' for Active; 'I' for Inactive)
REMARK    1  A    between atoms: C_1  and  N_2
REMARK    2  A    between atoms: N_2  and  C_3
REMARK    3  A    between atoms: N_2  and  C_4
REMARK    4  A    between atoms: C_4  and  C_5
REMARK    5  A    between atoms: C_5  and  N_6
REMARK    6  A    between atoms: C_7  and  C_9
REMARK    7  A    between atoms: C_11  and  C_25
REMARK    8  A    between atoms: N_16  and  C_17
REMARK    9  A    between atoms: C_17  and  C_18
REMARK   10  A    between atoms: C_28  and  N_31
REMARK   11  A    between atoms: C_32  and  C_34
REMARK   12  A    between atoms: C_34  and  C_35
REMARK                            x       y       z     vdW  Elec       q    Type
REMARK                         _______ _______ _______ _____ _____    ______ ____
ROOT
ATOM      1  C   UNL     1      -4.503  -4.247  -0.133  0.00  0.00    +0.210 C 
ATOM      2  C   UNL     1      -4.995  -4.286  -1.600  0.00  0.00    +0.238 C 
ATOM      3  O   UNL     1      -4.572  -5.596  -2.023  0.00  0.00    -0.440 OA
ATOM      4  C   UNL     1      -4.500  -6.382  -0.935  0.00  0.00    +0.405 C 
ATOM      5  O   UNL     1      -4.496  -7.596  -0.982  0.00  0.00    -0.226 OA
ATOM      6  N   UNL     1      -4.436  -5.679   0.217  0.00  0.00    -0.248 N 
ENDROOT
BRANCH   2   7
ATOM      7  C   UNL     1      -4.327  -3.213  -2.420  0.00  0.00    -0.005 A 
ATOM      8  C   UNL     1      -3.091  -3.450  -2.992  0.00  0.00    +0.009 A 
ATOM      9  C   UNL     1      -2.476  -2.469  -3.744  0.00  0.00    +0.024 A 
ATOM     10  C   UNL     1      -3.102  -1.242  -3.927  0.00  0.00    +0.033 A 
ATOM     11  C   UNL     1      -4.344  -1.007  -3.353  0.00  0.00    +0.024 A 
ATOM     12  C   UNL     1      -4.955  -1.995  -2.605  0.00  0.00    +0.009 A 
BRANCH  10  13
ATOM     13  N   UNL     1      -2.482  -0.246  -4.689  0.00  0.00    -0.285 N 
ATOM     14  C   UNL     1      -1.711  -0.584  -5.742  0.00  0.00    +0.222 C 
ATOM     15  O   UNL     1      -1.631  -1.743  -6.088  0.00  0.00    -0.275 OA
ATOM     16  H   UNL     1      -2.606   0.689  -4.459  0.00  0.00    +0.155 HD
BRANCH  14  17
ATOM     17  C   UNL     1      -0.948   0.480  -6.489  0.00  0.00    +0.131 C 
BRANCH  17  18
ATOM     18  C   UNL     1      -0.171  -0.156  -7.613  0.00  0.00    -0.039 A 
ATOM     19  C   UNL     1       1.117  -0.607  -7.394  0.00  0.00    +0.004 A 
ATOM     20  C   UNL     1       1.830  -1.190  -8.425  0.00  0.00    +0.000 A 
ATOM     21  C   UNL     1       1.254  -1.322  -9.675  0.00  0.00    +0.000 A 
ATOM     22  C   UNL     1      -0.034  -0.872  -9.894  0.00  0.00    +0.000 A 
ATOM     23  C   UNL     1      -0.748  -0.293  -8.862  0.00  0.00    +0.004 A 
ENDBRANCH  17  18
ENDBRANCH  14  17
ENDBRANCH  10  13
ENDBRANCH   2   7
BRANCH   1  25
ATOM     24  N   UNL     1      -3.027  -2.265  -0.007  0.00  0.00    -0.315 N 
ATOM     25  C   UNL     1      -3.141  -3.608  -0.041  0.00  0.00    +0.238 C 
ATOM     26  O   UNL     1      -2.147  -4.302   0.001  0.00  0.00    -0.274 OA
ATOM     27  H   UNL     1      -3.822  -1.710  -0.041  0.00  0.00    +0.149 HD
BRANCH  24  28
ATOM     28  C   UNL     1      -1.703  -1.644   0.083  0.00  0.00    +0.085 C 
BRANCH  28  29
ATOM     29  C   UNL     1      -1.855  -0.122   0.106  0.00  0.00    -0.061 C 
BRANCH  29  31
ATOM     30  C   UNL     1      -0.663   1.960   0.097  0.00  0.00    -0.097 C 
ATOM     31  N   UNL     1      -0.527   0.501   0.195  0.00  0.00    +0.377 N 
ATOM     32  C   UNL     1       0.091   0.152   1.481  0.00  0.00    -0.097 C 
ATOM     33  H   UNL     1       0.053   0.165  -0.559  0.00  0.00    -0.083 HD
ENDBRANCH  29  31
ENDBRANCH  28  29
ENDBRANCH  24  28
ENDBRANCH   1  25
BRANCH   6  34
ATOM     34  C   UNL     1      -4.321  -6.234   1.568  0.00  0.00    +0.147 C 
BRANCH  34  35
ATOM     35  C   UNL     1      -5.698  -6.464   2.135  0.00  0.00    -0.030 A 
ATOM     36  C   UNL     1      -6.330  -5.460   2.845  0.00  0.00    +0.008 A 
ATOM     37  C   UNL     1      -7.593  -5.670   3.365  0.00  0.00    +0.038 A 
ATOM     38  C   UNL     1      -8.225  -6.887   3.176  0.00  0.00    +0.123 A 
ATOM     39  C   UNL     1      -7.591  -7.892   2.465  0.00  0.00    +0.038 A 
ATOM     40  C   UNL     1      -6.331  -7.678   1.941  0.00  0.00    +0.008 A 
ATOM     41  F   UNL     1      -9.460  -7.094   3.684  0.00  0.00    -0.205 F 
ENDBRANCH  34  35
ENDBRANCH   6  34
TORSDOF 10
