REMARK  Name = ZINC28286546
REMARK  6 active torsions:
REMARK  status: ('A' for Active; 'I' for Inactive)
REMARK    1  A    between atoms: C_1  and  C_2
REMARK    2  A    between atoms: C_4  and  C_25
REMARK    3  A    between atoms: C_18  and  N_21
REMARK    4  A    between atoms: N_21  and  C_22
REMARK    5  A    between atoms: C_22  and  C_23
REMARK    6  A    between atoms: C_23  and  O_24
REMARK                            x       y       z     vdW  Elec       q    Type
REMARK                         _______ _______ _______ _____ _____    ______ ____
ROOT
ATOM      1  C   UNL     1       5.788  -3.345  -0.536  0.00  0.00    +0.067 C 
ATOM      2  C   UNL     1       5.138  -1.997  -0.360  0.00  0.00    +0.061 A 
ATOM      3  C   UNL     1       5.797  -0.804  -0.037  0.00  0.00    +0.048 A 
ATOM      4  C   UNL     1       4.872   0.180   0.030  0.00  0.00    +0.045 A 
ATOM      5  N   UNL     1       3.661  -0.376  -0.244  0.00  0.00    -0.206 N 
ATOM      6  N   UNL     1       3.860  -1.742  -0.479  0.00  0.00    -0.169 NA
ATOM      7  C   UNL     1       2.446   0.291  -0.279  0.00  0.00    +0.219 C 
ATOM      8  N   UNL     1       2.403   1.586  -0.030  0.00  0.00    -0.207 NA
ATOM      9  C   UNL     1       1.194   2.181   0.002  0.00  0.00    +0.111 A 
ATOM     10  C   UNL     1      -0.019   1.524   0.010  0.00  0.00    +0.023 A 
ATOM     11  C   UNL     1      -1.179   2.303   0.031  0.00  0.00    -0.029 A 
ATOM     12  C   UNL     1      -1.025   3.655   0.048  0.00  0.00    -0.005 A 
ATOM     13  S   UNL     1       0.735   3.889   0.036  0.00  0.00    -0.073 S 
ATOM     14  C   UNL     1      -2.098   4.695   0.071  0.00  0.00    +0.043 C 
ATOM     15  C   UNL     1      -3.430   4.025  -0.291  0.00  0.00    +0.005 C 
ATOM     16  C   UNL     1      -3.575   2.739   0.528  0.00  0.00    +0.005 C 
ATOM     17  C   UNL     1      -2.578   1.690   0.036  0.00  0.00    +0.036 C 
ATOM     18  C   UNL     1       0.002  -0.004   0.002  0.00  0.00    +0.175 C 
ATOM     19  N   UNL     1       1.296  -0.404  -0.572  0.00  0.00    -0.294 N 
ATOM     20  C   UNL     1       5.136   1.629   0.350  0.00  0.00    +0.066 C 
ATOM     21  H   UNL     1       1.354  -1.271  -1.246  0.00  0.00    +0.151 HD
ENDROOT
BRANCH  18  22
ATOM     22  N   UNL     1      -0.120  -0.516   1.373  0.00  0.00    -0.293 NA
ATOM     23  H   UNL     1       0.859  -0.883   1.716  0.00  0.00    +0.124 HD
BRANCH  22  24
ATOM     24  C   UNL     1      -1.086  -1.621   1.439  0.00  0.00    +0.110 C 
BRANCH  24  25
ATOM     25  C   UNL     1      -1.185  -2.127   2.879  0.00  0.00    +0.171 C 
BRANCH  25  26
ATOM     26  O   UNL     1      -1.730  -1.099   3.709  0.00  0.00    -0.394 OA
ATOM     27  H   UNL     1      -1.877  -1.280   4.784  0.00  0.00    +0.209 HD
ENDBRANCH  25  26
ENDBRANCH  24  25
ENDBRANCH  22  24
ENDBRANCH  18  22
TORSDOF 4
