REMARK  Name = ZINC32722048
REMARK  8 active torsions:
REMARK  status: ('A' for Active; 'I' for Inactive)
REMARK    1  A    between atoms: C_1  and  C_2
REMARK    2  A    between atoms: C_9  and  N_13
REMARK    3  A    between atoms: C_10  and  C_11
REMARK    4  A    between atoms: C_14  and  C_16
REMARK    5  A    between atoms: C_16  and  C_17
REMARK    6  A    between atoms: C_17  and  N_18
REMARK    7  A    between atoms: C_21  and  C_25
REMARK    8  A    between atoms: C_21  and  C_26
REMARK                            x       y       z     vdW  Elec       q    Type
REMARK                         _______ _______ _______ _____ _____    ______ ____
ROOT
ATOM      1  N   UNL     1       1.931  -5.847  -1.734  0.00  0.00    -0.279 N 
ATOM      2  C   UNL     1       2.229  -6.109  -3.022  0.00  0.00    +0.219 C 
ATOM      3  O   UNL     1       2.201  -5.218  -3.844  0.00  0.00    -0.275 OA
ATOM      4  H   UNL     1       1.956  -6.655  -0.988  0.00  0.00    +0.155 HD
ENDROOT
BRANCH   1  12
ATOM      5  C   UNL     1      -0.019   1.526   0.010  0.00  0.00    +0.008 C 
ATOM      6  C   UNL     1       0.002  -0.004   0.002  0.00  0.00    -0.009 C 
ATOM      7  C   UNL     1       0.742  -0.514   1.242  0.00  0.00    +0.008 C 
ATOM      8  C   UNL     1       0.556  -2.027   1.373  0.00  0.00    +0.037 C 
ATOM      9  C   UNL     1       0.941  -2.684   0.054  0.00  0.00    -0.018 A 
ATOM     10  C   UNL     1       1.008  -1.965  -1.089  0.00  0.00    -0.004 A 
ATOM     11  S   UNL     1       1.485  -3.134  -2.331  0.00  0.00    -0.077 S 
ATOM     12  C   UNL     1       1.593  -4.557  -1.349  0.00  0.00    +0.090 A 
ATOM     13  C   UNL     1       1.258  -4.095  -0.084  0.00  0.00    +0.084 A 
ATOM     14  C   UNL     1       0.736  -0.502  -1.252  0.00  0.00    +0.046 C 
BRANCH  13  15
ATOM     15  C   UNL     1       1.226  -4.977   1.044  0.00  0.00    +0.102 C 
ATOM     16  N   UNL     1       1.200  -5.676   1.938  0.00  0.00    -0.191 NA
ENDBRANCH  13  15
ENDBRANCH   1  12
BRANCH   2  17
ATOM     17  C   UNL     1       2.596  -7.510  -3.440  0.00  0.00    +0.115 C 
BRANCH  17  18
ATOM     18  C   UNL     1       2.886  -7.534  -4.942  0.00  0.00    +0.127 C 
BRANCH  18  19
ATOM     19  N   UNL     1       3.243  -8.895  -5.349  0.00  0.00    -0.224 N 
ATOM     20  C   UNL     1       4.502  -9.376  -5.361  0.00  0.00    +0.246 C 
ATOM     21  O   UNL     1       5.514  -8.786  -5.049  0.00  0.00    -0.273 OA
ATOM     22  C   UNL     1       4.389 -10.809  -5.843  0.00  0.00    +0.107 C 
ATOM     23  N   UNL     1       2.945 -10.983  -6.076  0.00  0.00    -0.285 N 
ATOM     24  C   UNL     1       2.360  -9.813  -5.760  0.00  0.00    +0.309 C 
ATOM     25  O   UNL     1       1.164  -9.612  -5.838  0.00  0.00    -0.252 OA
ATOM     26  C   UNL     1       4.883 -11.782  -4.772  0.00  0.00    +0.041 C 
ATOM     27  C   UNL     1       5.171 -11.000  -7.144  0.00  0.00    +0.041 C 
ATOM     28  H   UNL     1       2.559 -11.946  -6.442  0.00  0.00    +0.151 HD
ENDBRANCH  18  19
ENDBRANCH  17  18
ENDBRANCH   2  17
TORSDOF 5
