REMARK  Name = ZINC63633096
REMARK  8 active torsions:
REMARK  status: ('A' for Active; 'I' for Inactive)
REMARK    1  A    between atoms: C_1  and  C_2
REMARK    2  A    between atoms: C_5  and  C_8
REMARK    3  A    between atoms: C_8  and  N_9
REMARK    4  A    between atoms: N_16  and  C_17
REMARK    5  A    between atoms: C_17  and  C_18
REMARK    6  A    between atoms: C_18  and  C_19
REMARK    7  A    between atoms: N_28  and  C_35
REMARK    8  A    between atoms: N_31  and  C_34
REMARK                            x       y       z     vdW  Elec       q    Type
REMARK                         _______ _______ _______ _____ _____    ______ ____
ROOT
ATOM      1  N   UNL     1       1.443  -4.743   0.089  0.00  0.00    -0.284 N 
ATOM      2  C   UNL     1       2.409  -4.989  -0.980  0.00  0.00    +0.205 C 
ATOM      3  C   UNL     1       3.659  -4.388  -0.261  0.00  0.00    +0.227 C 
ATOM      4  N   UNL     1       3.466  -4.897   1.076  0.00  0.00    -0.231 NA
ATOM      5  C   UNL     1       2.167  -5.058   1.242  0.00  0.00    +0.181 C 
ATOM      6  N   UNL     1       1.593  -5.488   2.415  0.00  0.00    -0.317 N 
ATOM      7  N   UNL     1       4.801  -4.718  -1.070  0.00  0.00    -0.264 N 
ATOM      8  C   UNL     1       4.656  -4.498  -2.409  0.00  0.00    +0.312 C 
ATOM      9  O   UNL     1       5.601  -4.689  -3.148  0.00  0.00    -0.252 OA
ATOM     10  N   UNL     1       3.487  -4.074  -2.931  0.00  0.00    -0.227 N 
ATOM     11  C   UNL     1       2.288  -4.246  -2.268  0.00  0.00    +0.247 C 
ATOM     12  O   UNL     1       1.227  -3.839  -2.689  0.00  0.00    -0.273 OA
ATOM     13  C   UNL     1       3.485  -3.415  -4.239  0.00  0.00    +0.143 C 
ATOM     14  C   UNL     1       6.038  -5.253  -0.495  0.00  0.00    +0.136 C 
ATOM     15  H   UNL     1       0.630  -5.589   2.475  0.00  0.00    +0.149 HD
ENDROOT
BRANCH   1  16
ATOM     16  C   UNL     1       0.059  -4.275  -0.021  0.00  0.00    +0.143 C 
BRANCH  16  21
ATOM     17  C   UNL     1      -3.447  -8.797  -0.826  0.00  0.00    +0.044 C 
ATOM     18  C   UNL     1      -2.533  -7.618  -0.616  0.00  0.00    -0.050 A 
ATOM     19  C   UNL     1      -2.330  -7.118   0.656  0.00  0.00    +0.003 A 
ATOM     20  C   UNL     1      -1.491  -6.037   0.849  0.00  0.00    +0.005 A 
ATOM     21  C   UNL     1      -0.854  -5.455  -0.231  0.00  0.00    -0.030 A 
ATOM     22  C   UNL     1      -1.056  -5.956  -1.504  0.00  0.00    +0.005 A 
ATOM     23  C   UNL     1      -1.892  -7.040  -1.696  0.00  0.00    +0.003 A 
ENDBRANCH  16  21
ENDBRANCH   1  16
BRANCH   6  24
ATOM     24  C   UNL     1       2.436  -5.795   3.574  0.00  0.00    +0.108 C 
BRANCH  24  25
ATOM     25  C   UNL     1       1.554  -6.249   4.739  0.00  0.00    +0.052 C 
BRANCH  25  26
ATOM     26  C   UNL     1       2.421  -6.564   5.931  0.00  0.00    -0.040 C 
ATOM     27  C   UNL     1       2.722  -5.738   6.959  0.00  0.00    -0.001 A 
ATOM     28  C   UNL     1       2.348  -4.352   7.263  0.00  0.00    +0.010 A 
ATOM     29  C   UNL     1       2.817  -3.779   8.395  0.00  0.00    +0.001 A 
ATOM     30  C   UNL     1       3.649  -4.474   9.283  0.00  0.00    +0.002 A 
ATOM     31  C   UNL     1       4.037  -5.750   9.072  0.00  0.00    +0.026 A 
ATOM     32  C   UNL     1       3.602  -6.451   7.913  0.00  0.00    +0.043 A 
ATOM     33  N   UNL     1       3.836  -7.670   7.490  0.00  0.00    -0.380 N 
ATOM     34  C   UNL     1       3.125  -7.870   6.223  0.00  0.00    +0.144 C 
ATOM     35  H   UNL     1       4.385  -8.330   7.943  0.00  0.00    +0.160 HD
ENDBRANCH  25  26
ENDBRANCH  24  25
ENDBRANCH   6  24
TORSDOF 5
