REMARK  Name = ZINC11851143
REMARK  5 active torsions:
REMARK  status: ('A' for Active; 'I' for Inactive)
REMARK    1  A    between atoms: C_1  and  C_2
REMARK    2  A    between atoms: C_3  and  N_24
REMARK    3  A    between atoms: C_4  and  S_13
REMARK    4  A    between atoms: N_5  and  C_7
REMARK    5  A    between atoms: S_13  and  C_14
REMARK                            x       y       z     vdW  Elec       q    Type
REMARK                         _______ _______ _______ _____ _____    ______ ____
ROOT
ATOM      1  C   UNL     1       3.609   0.659  -0.028  0.00  0.00    +0.069 C 
ATOM      2  C   UNL     1       2.102   0.653  -0.015  0.00  0.00    +0.082 A 
ATOM      3  C   UNL     1       1.280   1.786  -0.001  0.00  0.00    +0.080 A 
ATOM      4  C   UNL     1      -0.016   1.361   0.009  0.00  0.00    +0.129 A 
ATOM      5  N   UNL     1       0.002  -0.004   0.002  0.00  0.00    -0.224 N 
ATOM      6  N   UNL     1       1.341  -0.414  -0.013  0.00  0.00    -0.169 NA
ENDROOT
BRANCH   5   7
ATOM      7  C   UNL     1      -1.119  -0.845   0.009  0.00  0.00    +0.067 A 
ATOM      8  C   UNL     1      -2.257  -0.482   0.716  0.00  0.00    +0.028 A 
ATOM      9  C   UNL     1      -3.362  -1.310   0.716  0.00  0.00    +0.002 A 
ATOM     10  C   UNL     1      -3.332  -2.506   0.022  0.00  0.00    +0.000 A 
ATOM     11  C   UNL     1      -2.197  -2.873  -0.679  0.00  0.00    +0.002 A 
ATOM     12  C   UNL     1      -1.091  -2.046  -0.687  0.00  0.00    +0.028 A 
ENDBRANCH   5   7
BRANCH   3  13
ATOM     13  N   UNL     1       1.715   3.129   0.003  0.00  0.00    -0.354 N 
ATOM     14  H   UNL     1       1.065   3.849   0.013  0.00  0.00    +0.142 HD
ATOM     15  H   UNL     1       2.664   3.332  -0.005  0.00  0.00    +0.142 HD
ENDBRANCH   3  13
BRANCH   4  16
ATOM     16  S   UNL     1      -1.450   2.385   0.022  0.00  0.00    -0.030 S 
BRANCH  16  17
ATOM     17  C   UNL     1      -1.691   2.553   1.760  0.00  0.00    +0.173 A 
ATOM     18  N   UNL     1      -2.695   3.269   2.348  0.00  0.00    -0.333 N 
ATOM     19  H   UNL     1      -3.412   3.783   1.877  0.00  0.00    +0.168 HD
ATOM     20  C   UNL     1      -2.534   3.152   3.719  0.00  0.00    +0.067 A 
ATOM     21  C   UNL     1      -3.228   3.645   4.814  0.00  0.00    +0.028 A 
ATOM     22  C   UNL     1      -2.803   3.338   6.090  0.00  0.00    +0.002 A 
ATOM     23  C   UNL     1      -1.686   2.540   6.287  0.00  0.00    +0.002 A 
ATOM     24  C   UNL     1      -0.985   2.042   5.211  0.00  0.00    +0.030 A 
ATOM     25  C   UNL     1      -1.402   2.343   3.912  0.00  0.00    +0.090 A 
ATOM     26  N   UNL     1      -0.936   2.006   2.681  0.00  0.00    -0.222 NA
ENDBRANCH  16  17
ENDBRANCH   4  16
TORSDOF 4
