REMARK  Name = ZINC12872186
REMARK  3 active torsions:
REMARK  status: ('A' for Active; 'I' for Inactive)
REMARK    1  A    between atoms: C_3  and  C_8
REMARK    2  A    between atoms: C_10  and  C_13
REMARK    3  A    between atoms: C_13  and  N_14
REMARK                            x       y       z     vdW  Elec       q    Type
REMARK                         _______ _______ _______ _____ _____    ______ ____
ROOT
ATOM      1  N   UNL     1       1.866  -2.358   1.353  0.00  0.00    -0.215 N 
ATOM      2  C   UNL     1       3.016  -2.279   2.057  0.00  0.00    +0.252 C 
ATOM      3  O   UNL     1       4.075  -1.820   1.685  0.00  0.00    -0.272 OA
ATOM      4  C   UNL     1       2.701  -2.879   3.405  0.00  0.00    +0.139 C 
ATOM      5  C   UNL     1       2.913  -1.867   4.521  0.00  0.00    +0.040 C 
ATOM      6  C   UNL     1       4.409  -1.589   4.703  0.00  0.00    +0.008 C 
ATOM      7  C   UNL     1       5.081  -2.844   5.278  0.00  0.00    +0.043 C 
ATOM      8  C   UNL     1       4.631  -4.031   4.490  0.00  0.00    -0.005 A 
ATOM      9  C   UNL     1       3.571  -4.103   3.636  0.00  0.00    -0.005 A 
ATOM     10  C   UNL     1       3.356  -5.333   3.016  0.00  0.00    +0.014 A 
ATOM     11  C   UNL     1       4.178  -6.376   3.275  0.00  0.00    +0.046 A 
ATOM     12  S   UNL     1       5.329  -5.659   4.437  0.00  0.00    -0.101 S 
ATOM     13  N   UNL     1       1.293  -3.275   3.307  0.00  0.00    -0.281 N 
ATOM     14  C   UNL     1       0.889  -2.930   2.068  0.00  0.00    +0.310 C 
ATOM     15  O   UNL     1      -0.236  -3.117   1.648  0.00  0.00    -0.252 OA
ATOM     16  H   UNL     1       0.759  -3.700   3.996  0.00  0.00    +0.152 HD
ENDROOT
BRANCH   1  17
ATOM     17  C   UNL     1       1.709  -1.884  -0.024  0.00  0.00    +0.216 C 
BRANCH  17  20
ATOM     18  C   UNL     1       1.207   1.675  -0.001  0.00  0.00    +0.202 A 
ATOM     19  N   UNL     1       2.041   0.610  -0.014  0.00  0.00    -0.190 NA
ATOM     20  C   UNL     1       1.264  -0.445  -0.012  0.00  0.00    +0.246 A 
ATOM     21  O   UNL     1       0.002  -0.004   0.002  0.00  0.00    -0.336 OA
ATOM     22  N   UNL     1      -0.014   1.209   0.009  0.00  0.00    -0.056 NA
BRANCH  18  25
ATOM     23  C   UNL     1       3.318   4.787  -0.005  0.00  0.00    +0.002 A 
ATOM     24  C   UNL     1       2.953   3.455  -0.003  0.00  0.00    +0.012 A 
ATOM     25  C   UNL     1       1.605   3.105   0.003  0.00  0.00    +0.024 A 
ATOM     26  C   UNL     1       0.631   4.101   0.018  0.00  0.00    +0.031 A 
ATOM     27  C   UNL     1       1.007   5.430   0.021  0.00  0.00    +0.042 A 
ATOM     28  C   UNL     1       2.348   5.772   0.010  0.00  0.00    +0.020 A 
ATOM     29 CL   UNL     1      -0.205   6.673   0.039  0.00  0.00    -0.084 Cl
ENDBRANCH  18  25
ENDBRANCH  17  20
ENDBRANCH   1  17
TORSDOF 3
