REMARK  Name = ZINC35592558
REMARK  11 active torsions:
REMARK  status: ('A' for Active; 'I' for Inactive)
REMARK    1  A    between atoms: C_1  and  C_2
REMARK    2  A    between atoms: C_2  and  C_42
REMARK    3  A    between atoms: C_7  and  C_24
REMARK    4  A    between atoms: C_7  and  O_34
REMARK    5  A    between atoms: C_9  and  O_14
REMARK    6  A    between atoms: O_14  and  C_15
REMARK    7  A    between atoms: C_15  and  C_16
REMARK    8  A    between atoms: N_26  and  C_27
REMARK    9  A    between atoms: C_27  and  C_28
REMARK   10  A    between atoms: O_34  and  C_35
REMARK   11  A    between atoms: C_35  and  C_36
REMARK                            x       y       z     vdW  Elec       q    Type
REMARK                         _______ _______ _______ _____ _____    ______ ____
ROOT
ATOM      1  C   UNL     1      -0.056   1.664  -0.606  0.00  0.00    +0.074 C 
ATOM      2  C   UNL     1      -0.026   0.146  -0.420  0.00  0.00    +0.165 C 
ATOM      3  O   UNL     1       0.683  -0.465  -1.520  0.00  0.00    -0.343 OA
ATOM      4  C   UNL     1       2.023  -0.611  -1.015  0.00  0.00    +0.156 C 
ATOM      5  C   UNL     1       2.846  -1.607  -1.783  0.00  0.00    +0.079 C 
ATOM      6  C   UNL     1       2.337  -3.029  -1.681  0.00  0.00    +0.150 C 
ATOM      7  C   UNL     1       2.065  -3.448  -0.253  0.00  0.00    +0.079 C 
ATOM      8  C   UNL     1       1.214  -2.453   0.502  0.00  0.00    +0.153 C 
ATOM      9  C   UNL     1       1.765  -1.050   0.440  0.00  0.00    +0.179 C 
ATOM     10  O   UNL     1       0.657  -0.178   0.802  0.00  0.00    -0.341 OA
ATOM     11  C   UNL     1      -1.456  -0.395  -0.369  0.00  0.00    +0.074 C 
ENDROOT
BRANCH   6  12
ATOM     12  C   UNL     1       3.364  -3.958  -2.275  0.00  0.00    +0.245 C 
ATOM     13  O   UNL     1       4.527  -3.619  -2.332  0.00  0.00    -0.273 OA
ATOM     14  N   UNL     1       2.990  -5.166  -2.742  0.00  0.00    -0.310 N 
ATOM     15  H   UNL     1       2.051  -5.409  -2.760  0.00  0.00    +0.149 HD
BRANCH  14  16
ATOM     16  C   UNL     1       4.001  -6.111  -3.220  0.00  0.00    +0.135 C 
BRANCH  16  17
ATOM     17  C   UNL     1       3.316  -7.396  -3.692  0.00  0.00    +0.135 C 
ATOM     18  C   UNL     1       4.372  -8.424  -4.171  0.00  0.00    +0.035 C 
ATOM     19  C   UNL     1       3.599  -9.755  -3.970  0.00  0.00    +0.031 C 
ATOM     20  C   UNL     1       2.751  -9.456  -2.715  0.00  0.00    +0.160 C 
ATOM     21  O   UNL     1       2.640  -8.032  -2.596  0.00  0.00    -0.375 OA
ENDBRANCH  16  17
ENDBRANCH  14  16
ENDBRANCH   6  12
BRANCH   8  22
ATOM     22  O   UNL     1       1.135  -2.859   1.869  0.00  0.00    -0.369 OA
BRANCH  22  23
ATOM     23  C   UNL     1       0.039  -3.730   2.155  0.00  0.00    +0.198 C 
BRANCH  23  24
ATOM     24  C   UNL     1       0.053  -4.093   3.617  0.00  0.00    +0.016 A 
ATOM     25  C   UNL     1       1.035  -3.583   4.447  0.00  0.00    +0.009 A 
ATOM     26  C   UNL     1       1.049  -3.915   5.788  0.00  0.00    +0.003 A 
ATOM     27  C   UNL     1       0.082  -4.757   6.304  0.00  0.00    +0.041 A 
ATOM     28  C   UNL     1      -0.902  -5.269   5.477  0.00  0.00    +0.159 A 
ATOM     29  C   UNL     1      -0.920  -4.932   4.131  0.00  0.00    +0.164 A 
ATOM     30  F   UNL     1      -1.883  -5.426   3.323  0.00  0.00    -0.202 F 
ATOM     31  F   UNL     1      -1.847  -6.093   5.980  0.00  0.00    -0.202 F 
ENDBRANCH  23  24
ENDBRANCH  22  23
ENDBRANCH   8  22
BRANCH   6  32
ATOM     32  O   UNL     1       1.127  -3.141  -2.433  0.00  0.00    -0.359 OA
BRANCH  32  33
ATOM     33  C   UNL     1       1.280  -2.861  -3.826  0.00  0.00    +0.196 C 
BRANCH  33  34
ATOM     34  C   UNL     1      -0.016  -3.143  -4.541  0.00  0.00    -0.022 A 
ATOM     35  C   UNL     1      -0.265  -4.403  -5.052  0.00  0.00    +0.006 A 
ATOM     36  C   UNL     1      -1.454  -4.661  -5.707  0.00  0.00    +0.000 A 
ATOM     37  C   UNL     1      -2.395  -3.659  -5.852  0.00  0.00    +0.000 A 
ATOM     38  C   UNL     1      -2.147  -2.399  -5.340  0.00  0.00    +0.000 A 
ATOM     39  C   UNL     1      -0.960  -2.142  -4.681  0.00  0.00    +0.006 A 
ENDBRANCH  33  34
ENDBRANCH  32  33
ENDBRANCH   6  32
TORSDOF 9
