REMARK  Name = ZINC63557075
REMARK  7 active torsions:
REMARK  status: ('A' for Active; 'I' for Inactive)
REMARK    1  A    between atoms: C_1  and  C_2
REMARK    2  A    between atoms: C_2  and  C_3
REMARK    3  A    between atoms: C_7  and  N_10
REMARK    4  A    between atoms: C_11  and  C_13
REMARK    5  A    between atoms: N_18  and  C_20
REMARK    6  A    between atoms: C_20  and  C_21
REMARK    7  A    between atoms: C_21  and  C_22
REMARK                            x       y       z     vdW  Elec       q    Type
REMARK                         _______ _______ _______ _____ _____    ______ ____
ROOT
ATOM      1  C   UNL     1       6.204  -3.575   0.407  0.00  0.00    +0.101 C 
ATOM      2  C   UNL     1       5.773  -3.934  -1.034  0.00  0.00    +0.110 C 
ATOM      3  C   UNL     1       6.665  -5.097  -1.409  0.00  0.00    +0.216 C 
ATOM      4  O   UNL     1       6.848  -5.497  -2.540  0.00  0.00    -0.276 OA
ATOM      5  N   UNL     1       7.226  -5.624  -0.307  0.00  0.00    -0.300 N 
ATOM      6  C   UNL     1       6.793  -4.914   0.903  0.00  0.00    +0.121 C 
ENDROOT
BRANCH   1   8
ATOM      7  N   UNL     1       4.322  -2.055   0.924  0.00  0.00    -0.284 N 
ATOM      8  C   UNL     1       5.015  -3.167   1.239  0.00  0.00    +0.220 C 
ATOM      9  O   UNL     1       4.683  -3.839   2.192  0.00  0.00    -0.275 OA
ATOM     10  H   UNL     1       4.589  -1.517   0.162  0.00  0.00    +0.152 HD
BRANCH   7  14
ATOM     11  C   UNL     1       0.742  -0.511   1.242  0.00  0.00    +0.188 C 
ATOM     12  N   UNL     1       0.902  -1.983   1.210  0.00  0.00    -0.175 NA
ATOM     13  N   UNL     1       1.983  -2.494   1.429  0.00  0.00    -0.157 NA
ATOM     14  C   UNL     1       3.167  -1.658   1.732  0.00  0.00    +0.275 C 
ATOM     15  S   UNL     1       2.519  -0.003   1.220  0.00  0.00    -0.085 S 
BRANCH  11  17
ATOM     16  C   UNL     1      -0.019   1.526   0.010  0.00  0.00    +0.007 C 
ATOM     17  C   UNL     1       0.002  -0.004   0.002  0.00  0.00    +0.036 C 
ENDBRANCH  11  17
ENDBRANCH   7  14
ENDBRANCH   1   8
BRANCH   5  18
ATOM     18  C   UNL     1       8.153  -6.758  -0.312  0.00  0.00    +0.112 C 
BRANCH  18  19
ATOM     19  C   UNL     1       9.588  -6.245  -0.446  0.00  0.00    +0.052 C 
BRANCH  19  20
ATOM     20  C   UNL     1      10.541  -7.412  -0.451  0.00  0.00    -0.040 C 
ATOM     21  C   UNL     1      11.053  -8.039  -1.535  0.00  0.00    +0.000 A 
ATOM     22  C   UNL     1      10.882  -7.829  -2.978  0.00  0.00    +0.030 A 
ATOM     23  C   UNL     1      11.541  -8.637  -3.841  0.00  0.00    +0.042 A 
ATOM     24  C   UNL     1      12.381  -9.667  -3.392  0.00  0.00    +0.022 A 
ATOM     25  C   UNL     1      12.587  -9.920  -2.082  0.00  0.00    +0.027 A 
ATOM     26  C   UNL     1      11.945  -9.132  -1.087  0.00  0.00    +0.043 A 
ATOM     27  N   UNL     1      11.982  -9.180   0.222  0.00  0.00    -0.380 N 
ATOM     28  C   UNL     1      11.123  -8.117   0.754  0.00  0.00    +0.144 C 
ATOM     29 CL   UNL     1      11.341  -8.392  -5.548  0.00  0.00    -0.084 Cl
ATOM     30  H   UNL     1      12.496  -9.810   0.751  0.00  0.00    +0.160 HD
ENDBRANCH  19  20
ENDBRANCH  18  19
ENDBRANCH   5  18
TORSDOF 6
