REMARK  Name = ZINC09090732
REMARK  7 active torsions:
REMARK  status: ('A' for Active; 'I' for Inactive)
REMARK    1  A    between atoms: C_1  and  N_2
REMARK    2  A    between atoms: C_6  and  C_23
REMARK    3  A    between atoms: C_8  and  C_16
REMARK    4  A    between atoms: C_10  and  C_11
REMARK    5  A    between atoms: C_10  and  O_15
REMARK    6  A    between atoms: C_16  and  C_18
REMARK    7  A    between atoms: C_26  and  C_29
REMARK                            x       y       z     vdW  Elec       q    Type
REMARK                         _______ _______ _______ _____ _____    ______ ____
ROOT
ATOM      1  C   UNL     1      -6.402   3.840   6.896  0.00  0.00    +0.137 C 
ATOM      2  N   UNL     1      -5.141   3.635   6.180  0.00  0.00    -0.253 N 
ATOM      3  C   UNL     1      -4.865   4.388   5.105  0.00  0.00    +0.305 C 
ATOM      4  O   UNL     1      -5.670   5.232   4.761  0.00  0.00    -0.253 OA
ATOM      5  N   UNL     1      -3.736   4.247   4.394  0.00  0.00    -0.292 N 
ATOM      6  C   UNL     1      -2.722   3.259   4.764  0.00  0.00    +0.120 C 
ATOM      7  C   UNL     1      -3.402   2.077   5.462  0.00  0.00    +0.145 C 
ATOM      8  C   UNL     1      -4.207   2.611   6.652  0.00  0.00    +0.245 C 
ATOM      9  H   UNL     1      -3.589   4.812   3.619  0.00  0.00    +0.151 HD
ENDROOT
BRANCH   6  10
ATOM     10  C   UNL     1      -2.016   2.773   3.524  0.00  0.00    -0.026 A 
ATOM     11  C   UNL     1      -0.650   2.560   3.544  0.00  0.00    +0.006 A 
ATOM     12  C   UNL     1      -0.003   2.115   2.407  0.00  0.00    +0.013 A 
ATOM     13  C   UNL     1      -0.722   1.881   1.250  0.00  0.00    +0.055 A 
ATOM     14  C   UNL     1      -2.087   2.098   1.228  0.00  0.00    +0.013 A 
ATOM     15  C   UNL     1      -2.735   2.540   2.366  0.00  0.00    +0.006 A 
BRANCH  13  16
ATOM     16  C   UNL     1      -0.017   1.395   0.010  0.00  0.00    +0.417 C 
ATOM     17  F   UNL     1       0.002  -0.004   0.002  0.00  0.00    -0.166 F 
ATOM     18  F   UNL     1       1.296   1.879  -0.000  0.00  0.00    -0.166 F 
ATOM     19  F   UNL     1      -0.694   1.858  -1.124  0.00  0.00    -0.166 F 
ENDBRANCH  13  16
ENDBRANCH   6  10
BRANCH   8  20
ATOM     20  C   UNL     1      -4.989   1.464   7.296  0.00  0.00    +0.436 C 
ATOM     21  F   UNL     1      -5.857   0.904   6.353  0.00  0.00    -0.166 F 
ATOM     22  F   UNL     1      -4.095   0.486   7.747  0.00  0.00    -0.166 F 
ATOM     23  F   UNL     1      -5.729   1.954   8.378  0.00  0.00    -0.166 F 
ENDBRANCH   8  20
BRANCH   8  24
ATOM     24  O   UNL     1      -3.318   3.182   7.614  0.00  0.00    -0.364 OA
ATOM     25  H   UNL     1      -3.761   3.545   8.393  0.00  0.00    +0.212 HD
ENDBRANCH   8  24
BRANCH   7  26
ATOM     26  C   UNL     1      -4.327   1.383   4.496  0.00  0.00    +0.180 C 
ATOM     27  O   UNL     1      -5.487   1.734   4.407  0.00  0.00    -0.291 OA
BRANCH  26  28
ATOM     28  C   UNL     1      -3.846   0.325   3.695  0.00  0.00    +0.055 A 
ATOM     29  C   UNL     1      -4.527  -0.444   2.755  0.00  0.00    +0.019 A 
ATOM     30  C   UNL     1      -3.810  -1.415   2.108  0.00  0.00    +0.008 A 
ATOM     31  C   UNL     1      -2.496  -1.588   2.416  0.00  0.00    +0.046 A 
ATOM     32  S   UNL     1      -2.209  -0.381   3.627  0.00  0.00    -0.094 S 
ENDBRANCH  26  28
ENDBRANCH   7  26
TORSDOF 6
