REMARK  Name = ZINC02253533
REMARK  11 active torsions:
REMARK  status: ('A' for Active; 'I' for Inactive)
REMARK    1  A    between atoms: C_1  and  O_2
REMARK    2  A    between atoms: O_2  and  C_3
REMARK    3  A    between atoms: C_6  and  C_13
REMARK    4  A    between atoms: C_7  and  O_11
REMARK    5  A    between atoms: C_8  and  O_9
REMARK    6  A    between atoms: O_9  and  C_10
REMARK    7  A    between atoms: O_11  and  C_12
REMARK    8  A    between atoms: C_16  and  C_32
REMARK    9  A    between atoms: N_18  and  C_26
REMARK   10  A    between atoms: C_21  and  N_25
REMARK   11  A    between atoms: C_22  and  C_23
REMARK                            x       y       z     vdW  Elec       q    Type
REMARK                         _______ _______ _______ _____ _____    ______ ____
ROOT
ATOM      1  C   UNL     1      -4.994  -2.620   0.038  0.00  0.00    +0.105 C 
ATOM      2  C   UNL     1      -5.769  -2.215   1.265  0.00  0.00    +0.055 A 
ATOM      3  C   UNL     1      -5.561  -2.573   2.601  0.00  0.00    +0.101 A 
ATOM      4  N   UNL     1      -6.485  -1.978   3.331  0.00  0.00    -0.163 NA
ATOM      5  N   UNL     1      -7.306  -1.225   2.477  0.00  0.00    -0.199 N 
ATOM      6  C   UNL     1      -6.850  -1.385   1.214  0.00  0.00    +0.230 A 
ATOM      7  O   UNL     1      -7.316  -0.860   0.053  0.00  0.00    -0.423 OA
ATOM      8  C   UNL     1      -6.859  -1.389  -1.100  0.00  0.00    +0.200 C 
ATOM      9  C   UNL     1      -5.789  -2.213  -1.178  0.00  0.00    +0.098 C 
ENDROOT
BRANCH   1  13
ATOM     10  C   UNL     1      -1.201  -0.638   0.010  0.00  0.00    +0.165 A 
ATOM     11  C   UNL     1      -2.375   0.101   0.019  0.00  0.00    +0.050 A 
ATOM     12  C   UNL     1      -3.598  -0.543   0.028  0.00  0.00    +0.012 A 
ATOM     13  C   UNL     1      -3.657  -1.924   0.028  0.00  0.00    +0.011 A 
ATOM     14  C   UNL     1      -2.488  -2.670   0.018  0.00  0.00    +0.169 A 
ATOM     15  C   UNL     1      -1.256  -2.026   0.003  0.00  0.00    +0.204 A 
BRANCH  10  17
ATOM     16  C   UNL     1      -0.017   1.425   0.010  0.00  0.00    +0.277 C 
ATOM     17  O   UNL     1       0.002  -0.004   0.002  0.00  0.00    -0.491 OA
ENDBRANCH  10  17
BRANCH  15  18
ATOM     18  O   UNL     1      -0.106  -2.755  -0.012  0.00  0.00    -0.488 OA
ATOM     19  C   UNL     1       0.454  -3.109   1.254  0.00  0.00    +0.277 C 
ENDBRANCH  15  18
BRANCH  14  20
ATOM     20  O   UNL     1      -2.547  -4.028   0.018  0.00  0.00    -0.491 OA
ATOM     21  C   UNL     1      -2.586  -4.676  -1.255  0.00  0.00    +0.277 C 
ENDBRANCH  14  20
ENDBRANCH   1  13
BRANCH   5  22
ATOM     22  C   UNL     1      -8.404  -0.447   2.864  0.00  0.00    +0.069 A 
ATOM     23  C   UNL     1      -8.689   0.736   2.195  0.00  0.00    +0.028 A 
ATOM     24  C   UNL     1      -9.773   1.502   2.579  0.00  0.00    +0.002 A 
ATOM     25  C   UNL     1     -10.573   1.091   3.630  0.00  0.00    +0.000 A 
ATOM     26  C   UNL     1     -10.292  -0.086   4.298  0.00  0.00    +0.002 A 
ATOM     27  C   UNL     1      -9.214  -0.859   3.914  0.00  0.00    +0.028 A 
ENDBRANCH   5  22
BRANCH   3  28
ATOM     28  C   UNL     1      -4.489  -3.466   3.108  0.00  0.00    +0.003 A 
ATOM     29  C   UNL     1      -4.060  -4.548   2.343  0.00  0.00    +0.010 A 
ATOM     30  C   UNL     1      -3.063  -5.375   2.820  0.00  0.00    +0.001 A 
ATOM     31  C   UNL     1      -2.490  -5.131   4.055  0.00  0.00    +0.000 A 
ATOM     32  C   UNL     1      -2.913  -4.058   4.819  0.00  0.00    +0.001 A 
ATOM     33  C   UNL     1      -3.905  -3.221   4.349  0.00  0.00    +0.010 A 
ENDBRANCH   3  28
BRANCH   8  34
ATOM     34  N   UNL     1      -7.516  -1.072  -2.263  0.00  0.00    -0.328 N 
ATOM     35  H   UNL     1      -8.287  -0.483  -2.239  0.00  0.00    +0.145 HD
ATOM     36  H   UNL     1      -7.210  -1.437  -3.108  0.00  0.00    +0.145 HD
ENDBRANCH   8  34
BRANCH   9  37
ATOM     37  C   UNL     1      -5.397  -2.717  -2.459  0.00  0.00    +0.101 C 
ATOM     38  N   UNL     1      -5.085  -3.117  -3.476  0.00  0.00    -0.191 NA
ENDBRANCH   9  37
TORSDOF 8
