REMARK  Name = ZINC39469369
REMARK  7 active torsions:
REMARK  status: ('A' for Active; 'I' for Inactive)
REMARK    1  A    between atoms: C_1  and  C_2
REMARK    2  A    between atoms: C_2  and  O_3
REMARK    3  A    between atoms: O_3  and  P_4
REMARK    4  A    between atoms: C_12  and  C_24
REMARK    5  A    between atoms: C_13  and  O_22
REMARK    6  A    between atoms: O_22  and  C_23
REMARK    7  A    between atoms: C_29  and  O_30
REMARK                            x       y       z     vdW  Elec       q    Type
REMARK                         _______ _______ _______ _____ _____    ______ ____
ROOT
ATOM      1  P   UNL     1       0.877  -2.026  -1.510  0.00  0.00    +0.421 P 
ATOM      2  O   UNL     1       1.285  -2.763  -0.293  0.00  0.00    -0.239 OA
ATOM      3  N   UNL     1      -0.511  -2.665  -2.133  0.00  0.00    -0.156 NA
ATOM      4  N   UNL     1      -0.407  -3.827  -2.872  0.00  0.00    -0.228 NA
ATOM      5  C   UNL     1      -1.755  -4.147  -3.372  0.00  0.00    +0.111 C 
ATOM      6  C   UNL     1      -1.749  -5.444  -4.168  0.00  0.00    +0.035 C 
ATOM      7  C   UNL     1      -1.322  -6.598  -3.301  0.00  0.00    -0.010 C 
ATOM      8  C   UNL     1      -0.832  -7.708  -3.878  0.00  0.00    +0.023 C 
ATOM      9  C   UNL     1      -0.736  -7.772  -5.356  0.00  0.00    +0.124 C 
ATOM     10  C   UNL     1      -0.711  -6.644  -6.065  0.00  0.00    +0.023 C 
ATOM     11  C   UNL     1      -0.775  -5.321  -5.343  0.00  0.00    +0.025 C 
ATOM     12  C   UNL     1       0.610  -4.976  -4.794  0.00  0.00    +0.031 C 
ATOM     13  C   UNL     1       0.557  -3.686  -3.968  0.00  0.00    +0.100 C 
ATOM     14  C   UNL     1       1.974  -3.429  -3.440  0.00  0.00    +0.191 C 
ATOM     15  O   UNL     1       1.994  -2.208  -2.680  0.00  0.00    -0.294 OA
ATOM     16  H   UNL     1      -1.370  -2.240  -1.984  0.00  0.00    +0.153 HD
ENDROOT
BRANCH   8  17
ATOM     17  C   UNL     1      -0.393  -8.854  -3.047  0.00  0.00    +0.027 A 
ATOM     18  C   UNL     1      -1.336  -9.688  -2.451  0.00  0.00    +0.012 A 
ATOM     19  C   UNL     1      -0.922 -10.754  -1.678  0.00  0.00    +0.001 A 
ATOM     20  C   UNL     1       0.428 -10.997  -1.492  0.00  0.00    +0.004 A 
ATOM     21  C   UNL     1       1.372 -10.175  -2.078  0.00  0.00    +0.046 A 
ATOM     22  C   UNL     1       0.970  -9.106  -2.862  0.00  0.00    +0.125 A 
BRANCH  22  23
ATOM     23  O   UNL     1       1.897  -8.301  -3.444  0.00  0.00    -0.506 OA
ATOM     24  H   UNL     1       2.164  -7.549  -2.897  0.00  0.00    +0.292 HD
ENDBRANCH  22  23
ENDBRANCH   8  17
BRANCH   9  25
ATOM     25  O   UNL     1      -0.673  -8.976  -5.983  0.00  0.00    -0.495 OA
ATOM     26  C   UNL     1      -0.582  -8.960  -7.409  0.00  0.00    +0.277 C 
ENDBRANCH   9  25
BRANCH   1  27
ATOM     27  O   UNL     1       0.671  -0.465  -1.174  0.00  0.00    -0.296 OA
BRANCH  27  29
ATOM     28  C   UNL     1      -0.019   1.526   0.010  0.00  0.00    +0.035 C 
ATOM     29  C   UNL     1       0.002  -0.004   0.002  0.00  0.00    +0.168 C 
ENDBRANCH  27  29
ENDBRANCH   1  27
TORSDOF 5
