REMARK  Name = ZINC09477516
REMARK  3 active torsions:
REMARK  status: ('A' for Active; 'I' for Inactive)
REMARK    1  A    between atoms: N_11  and  C_12
REMARK    2  A    between atoms: C_17  and  C_18
REMARK    3  A    between atoms: C_17  and  N_46
REMARK                            x       y       z     vdW  Elec       q    Type
REMARK                         _______ _______ _______ _____ _____    ______ ____
ROOT
ATOM      1  C   UNL     1      -1.852   3.155   0.045  0.00  0.00    +0.089 C 
ATOM      2  C   UNL     1      -2.689   3.384   1.306  0.00  0.00    +0.006 C 
ATOM      3  C   UNL     1      -3.256   4.805   1.284  0.00  0.00    -0.076 C 
ATOM      4  C   UNL     1      -3.288   4.819  -1.139  0.00  0.00    -0.076 C 
ATOM      5  C   UNL     1      -2.723   3.398  -1.190  0.00  0.00    +0.006 C 
ATOM      6  N   UNL     1      -4.105   4.967   0.085  0.00  0.00    +0.383 N 
ATOM      7  H   UNL     1      -4.831   4.241   0.090  0.00  0.00    -0.081 HD
ENDROOT
BRANCH   1  18
ATOM      8  C   UNL     1       2.397   0.035  -0.020  0.00  0.00    +0.002 A 
ATOM      9  C   UNL     1       2.378   1.419  -0.012  0.00  0.00    +0.002 A 
ATOM     10  C   UNL     1       1.176   2.099   0.002  0.00  0.00    +0.028 A 
ATOM     11  C   UNL     1      -0.017   1.392   0.010  0.00  0.00    +0.070 A 
ATOM     12  C   UNL     1       0.002  -0.004   0.002  0.00  0.00    +0.067 A 
ATOM     13  C   UNL     1       1.214  -0.678  -0.013  0.00  0.00    +0.028 A 
ATOM     14  N   UNL     1      -1.326  -0.425   0.012  0.00  0.00    -0.306 N 
ATOM     15  H   UNL     1      -1.629  -1.346   0.011  0.00  0.00    +0.170 HD
ATOM     16  C   UNL     1      -2.116   0.665   0.026  0.00  0.00    +0.328 A 
ATOM     17  O   UNL     1      -3.333   0.649   0.037  0.00  0.00    -0.247 OA
ATOM     18  N   UNL     1      -1.355   1.776   0.030  0.00  0.00    -0.289 N 
ENDBRANCH   1  18
BRANCH   6  19
ATOM     19  C   UNL     1      -4.754   6.294   0.101  0.00  0.00    -0.022 C 
BRANCH  19  20
ATOM     20  C   UNL     1      -5.354   6.534   1.463  0.00  0.00    +0.033 A 
ATOM     21  C   UNL     1      -4.887   7.552   2.266  0.00  0.00    +0.092 A 
ATOM     22  C   UNL     1      -5.459   7.762   3.521  0.00  0.00    +0.259 A 
ATOM     23  O   UNL     1      -5.052   8.665   4.235  0.00  0.00    -0.267 OA
ATOM     24  N   UNL     1      -6.470   6.951   3.954  0.00  0.00    -0.262 N 
ATOM     25  C   UNL     1      -7.125   7.026   5.159  0.00  0.00    +0.104 A 
ATOM     26  C   UNL     1      -8.101   6.171   5.466  0.00  0.00    +0.067 A 
ATOM     27  S   UNL     1      -8.166   5.150   4.003  0.00  0.00    -0.058 S 
ATOM     28  C   UNL     1      -6.868   5.961   3.095  0.00  0.00    +0.180 A 
ATOM     29  N   UNL     1      -6.340   5.762   1.913  0.00  0.00    -0.229 NA
ENDBRANCH  19  20
ENDBRANCH   6  19
TORSDOF 3
