REMARK  Name = ZINC08053368
REMARK  7 active torsions:
REMARK  status: ('A' for Active; 'I' for Inactive)
REMARK    1  A    between atoms: C_1  and  C_2
REMARK    2  A    between atoms: C_7  and  N_8
REMARK    3  A    between atoms: C_9  and  C_11
REMARK    4  A    between atoms: C_11  and  N_12
REMARK    5  A    between atoms: N_12  and  C_13
REMARK    6  A    between atoms: N_12  and  C_14
REMARK    7  A    between atoms: C_17  and  N_21
REMARK                            x       y       z     vdW  Elec       q    Type
REMARK                         _______ _______ _______ _____ _____    ______ ____
ROOT
ATOM      1  C   UNL     1      -0.005   1.503   0.017  0.00  0.00    +0.200 C 
ENDROOT
BRANCH   1   3
ATOM      2  N   UNL     1       0.585  -0.664  -1.018  0.00  0.00    -0.284 N 
ATOM      3  C   UNL     1       0.005  -0.004   0.004  0.00  0.00    +0.235 C 
ATOM      4  O   UNL     1      -0.509  -0.622   0.912  0.00  0.00    -0.274 OA
ATOM      5  H   UNL     1       0.925  -0.174  -1.782  0.00  0.00    +0.155 HD
BRANCH   2  12
ATOM      6  C   UNL     1       0.770  -2.073  -3.483  0.00  0.00    +0.046 C 
ATOM      7  C   UNL     1       0.790  -2.785  -2.155  0.00  0.00    -0.028 A 
ATOM      8  C   UNL     1       0.906  -4.161  -2.111  0.00  0.00    +0.020 A 
ATOM      9  C   UNL     1       0.918  -4.816  -0.892  0.00  0.00    +0.018 A 
ATOM     10  C   UNL     1       0.820  -4.095   0.285  0.00  0.00    +0.017 A 
ATOM     11  C   UNL     1       0.710  -2.719   0.246  0.00  0.00    +0.024 A 
ATOM     12  C   UNL     1       0.697  -2.059  -0.976  0.00  0.00    +0.036 A 
ATOM     13 BR   UNL     1       1.068  -6.700  -0.835  0.00  0.00    -0.050 Br
ENDBRANCH   2  12
ENDBRANCH   1   3
BRANCH   1  14
ATOM     14  N   UNL     1      -0.691   1.977   1.226  0.00  0.00    -0.323 N 
ATOM     15  C   UNL     1      -2.116   1.619   1.198  0.00  0.00    +0.130 C 
BRANCH  14  16
ATOM     16  C   UNL     1      -0.525   3.355   1.389  0.00  0.00    +0.049 A 
ATOM     17  C   UNL     1      -0.977   4.231   0.411  0.00  0.00    +0.027 A 
ATOM     18  C   UNL     1      -0.811   5.592   0.574  0.00  0.00    +0.034 A 
ATOM     19  C   UNL     1      -0.196   6.084   1.711  0.00  0.00    +0.128 A 
ATOM     20  C   UNL     1       0.256   5.216   2.688  0.00  0.00    +0.054 A 
ATOM     21  C   UNL     1       0.088   3.853   2.533  0.00  0.00    +0.064 A 
ATOM     22 CL   UNL     1       0.648   2.763   3.763  0.00  0.00    -0.082 Cl
BRANCH  19  23
ATOM     23  N   UNL     1      -0.020   7.544   1.883  0.00  0.00    +0.056 N 
ATOM     24  O   UNL     1      -0.418   8.310   1.023  0.00  0.00    -0.126 OA
ATOM     25  O   UNL     1       0.522   7.979   2.883  0.00  0.00    -0.126 OA
ENDBRANCH  19  23
ENDBRANCH  14  16
ENDBRANCH   1  14
TORSDOF 5
