REMARK  Name = ZINC57646751
REMARK  10 active torsions:
REMARK  status: ('A' for Active; 'I' for Inactive)
REMARK    1  A    between atoms: C_1  and  C_2
REMARK    2  A    between atoms: C_3  and  C_34
REMARK    3  A    between atoms: C_4  and  C_33
REMARK    4  A    between atoms: C_7  and  C_8
REMARK    5  A    between atoms: C_8  and  O_10
REMARK    6  A    between atoms: O_10  and  C_11
REMARK    7  A    between atoms: C_11  and  C_13
REMARK    8  A    between atoms: C_11  and  C_14
REMARK    9  A    between atoms: N_16  and  C_17
REMARK   10  A    between atoms: C_34  and  C_36
REMARK                            x       y       z     vdW  Elec       q    Type
REMARK                         _______ _______ _______ _____ _____    ______ ____
ROOT
ATOM      1  C   UNL     1      -0.629  -1.803   5.732  0.00  0.00    +0.258 C 
ATOM      2  O   UNL     1      -1.008  -2.866   5.288  0.00  0.00    -0.271 OA
ATOM      3  N   UNL     1      -0.832  -1.504   7.031  0.00  0.00    -0.282 N 
ATOM      4  H   UNL     1      -0.601  -0.624   7.367  0.00  0.00    +0.155 HD
ENDROOT
BRANCH   3   5
ATOM      5  C   UNL     1      -1.371  -2.457   7.888  0.00  0.00    +0.045 A 
ATOM      6  C   UNL     1      -1.228  -3.816   7.605  0.00  0.00    +0.024 A 
ATOM      7  C   UNL     1      -1.762  -4.764   8.452  0.00  0.00    +0.003 A 
ATOM      8  C   UNL     1      -2.447  -4.383   9.596  0.00  0.00    +0.012 A 
ATOM      9  C   UNL     1      -2.601  -3.035   9.898  0.00  0.00    +0.035 A 
ATOM     10  C   UNL     1      -2.054  -2.060   9.041  0.00  0.00    +0.054 A 
ATOM     11  C   UNL     1      -2.212  -0.630   9.365  0.00  0.00    +0.196 C 
ATOM     12  O   UNL     1      -1.979   0.220   8.528  0.00  0.00    -0.287 OA
ATOM     13  C   UNL     1      -2.659  -0.241  10.721  0.00  0.00    +0.033 A 
ATOM     14  C   UNL     1      -2.547   1.076  11.153  0.00  0.00    +0.012 A 
ATOM     15  C   UNL     1      -2.970   1.421  12.425  0.00  0.00    +0.001 A 
ATOM     16  C   UNL     1      -3.504   0.465  13.270  0.00  0.00    +0.001 A 
ATOM     17  C   UNL     1      -3.623  -0.850  12.856  0.00  0.00    +0.012 A 
ATOM     18  C   UNL     1      -3.202  -1.214  11.581  0.00  0.00    +0.033 A 
ATOM     19  C   UNL     1      -3.329  -2.615  11.115  0.00  0.00    +0.195 C 
ATOM     20  O   UNL     1      -4.010  -3.411  11.730  0.00  0.00    -0.287 OA
ENDBRANCH   3   5
BRANCH   1  21
ATOM     21  C   UNL     1       0.068  -0.816   4.831  0.00  0.00    +0.259 C 
ATOM     22  C   UNL     1       1.513  -0.632   5.298  0.00  0.00    +0.062 C 
BRANCH  21  23
ATOM     23  O   UNL     1       0.059  -1.307   3.489  0.00  0.00    -0.448 OA
BRANCH  23  24
ATOM     24  C   UNL     1       0.045  -0.389   2.502  0.00  0.00    +0.357 C 
ATOM     25  O   UNL     1       0.041   0.797   2.773  0.00  0.00    -0.243 OA
BRANCH  24  32
ATOM     26  C   UNL     1       0.013   1.510   0.028  0.00  0.00    +0.047 C 
ATOM     27  C   UNL     1       0.021   0.003   0.013  0.00  0.00    -0.008 A 
ATOM     28  C   UNL     1       0.021  -0.828  -1.134  0.00  0.00    +0.041 A 
ATOM     29  C   UNL     1       0.030  -2.139  -0.683  0.00  0.00    +0.024 A 
ATOM     30  N   UNL     1       0.035  -2.125   0.657  0.00  0.00    -0.352 N 
ATOM     31  H   UNL     1       0.042  -2.911   1.226  0.00  0.00    +0.166 HD
ATOM     32  C   UNL     1       0.035  -0.820   1.100  0.00  0.00    +0.128 A 
ATOM     33  C   UNL     1       0.033  -3.370  -1.553  0.00  0.00    +0.064 C 
BRANCH  28  34
ATOM     34  C   UNL     1       0.013  -0.385  -2.531  0.00  0.00    +0.162 C 
ATOM     35  O   UNL     1      -1.037  -0.295  -3.133  0.00  0.00    -0.292 OA
ATOM     36  C   UNL     1       1.308  -0.042  -3.221  0.00  0.00    +0.091 C 
ENDBRANCH  28  34
ENDBRANCH  24  32
ENDBRANCH  23  24
ENDBRANCH  21  23
ENDBRANCH   1  21
TORSDOF 6
