REMARK  Name = ZINC63686453
REMARK  6 active torsions:
REMARK  status: ('A' for Active; 'I' for Inactive)
REMARK    1  A    between atoms: C_1  and  O_2
REMARK    2  A    between atoms: O_2  and  C_3
REMARK    3  A    between atoms: C_6  and  C_9
REMARK    4  A    between atoms: C_12  and  S_16
REMARK    5  A    between atoms: S_16  and  C_17
REMARK    6  A    between atoms: C_17  and  C_18
REMARK                            x       y       z     vdW  Elec       q    Type
REMARK                         _______ _______ _______ _____ _____    ______ ____
ROOT
ATOM      1  C   UNL     1       2.587  -2.550   4.310  0.00  0.00    +0.198 C 
ATOM      2  N   UNL     1       3.198  -3.828   3.865  0.00  0.00    -0.261 NA
ATOM      3  C   UNL     1       4.587  -3.398   3.563  0.00  0.00    +0.254 C 
ATOM      4  N   UNL     1       4.792  -2.194   4.379  0.00  0.00    -0.184 NA
ATOM      5  N   UNL     1       3.715  -1.737   4.782  0.00  0.00    -0.290 N 
ATOM      6  H   UNL     1       3.184  -4.513   4.605  0.00  0.00    +0.127 HD
ATOM      7  H   UNL     1       3.627  -0.946   5.337  0.00  0.00    +0.184 HD
ENDROOT
BRANCH   1  11
ATOM      8  C   UNL     1       0.626  -0.618   1.042  0.00  0.00    +0.120 A 
ATOM      9  C   UNL     1       1.202   0.138   2.051  0.00  0.00    +0.046 A 
ATOM     10  C   UNL     1       1.835  -0.488   3.107  0.00  0.00    +0.010 A 
ATOM     11  C   UNL     1       1.895  -1.869   3.158  0.00  0.00    -0.009 A 
ATOM     12  C   UNL     1       1.322  -2.625   2.152  0.00  0.00    +0.010 A 
ATOM     13  C   UNL     1       0.682  -2.003   1.098  0.00  0.00    +0.046 A 
BRANCH   8  15
ATOM     14  C   UNL     1      -0.017   1.425   0.010  0.00  0.00    +0.277 C 
ATOM     15  O   UNL     1       0.002  -0.004   0.002  0.00  0.00    -0.495 OA
ENDBRANCH   8  15
ENDBRANCH   1  11
BRANCH   3  16
ATOM     16  S   UNL     1       5.765  -4.694   4.036  0.00  0.00    -0.111 S 
BRANCH  16  17
ATOM     17  C   UNL     1       5.498  -4.901   5.819  0.00  0.00    +0.125 C 
BRANCH  17  18
ATOM     18  C   UNL     1       6.427  -5.963   6.346  0.00  0.00    +0.030 A 
ATOM     19  N   UNL     1       6.152  -7.262   6.075  0.00  0.00    -0.356 N 
ATOM     20  C   UNL     1       6.961  -8.281   6.528  0.00  0.00    +0.069 A 
ATOM     21  C   UNL     1       8.101  -7.973   7.290  0.00  0.00    +0.046 A 
ATOM     22  C   UNL     1       8.928  -8.996   7.755  0.00  0.00    +0.014 A 
ATOM     23  C   UNL     1       8.623 -10.297   7.466  0.00  0.00    +0.002 A 
ATOM     24  C   UNL     1       7.499 -10.608   6.714  0.00  0.00    +0.022 A 
ATOM     25  C   UNL     1       6.669  -9.613   6.244  0.00  0.00    +0.065 A 
ATOM     26 CL   UNL     1       5.266 -10.017   5.305  0.00  0.00    -0.081 Cl
ATOM     27  C   UNL     1       8.392  -6.558   7.579  0.00  0.00    +0.190 A 
ATOM     28  O   UNL     1       9.368  -6.236   8.236  0.00  0.00    -0.287 OA
ATOM     29  C   UNL     1       7.503  -5.585   7.066  0.00  0.00    +0.073 A 
ATOM     30  H   UNL     1       5.367  -7.480   5.549  0.00  0.00    +0.166 HD
ENDBRANCH  17  18
ENDBRANCH  16  17
ENDBRANCH   3  16
TORSDOF 5
