REMARK  Name = ZINC37004731
REMARK  10 active torsions:
REMARK  status: ('A' for Active; 'I' for Inactive)
REMARK    1  A    between atoms: C_1  and  C_2
REMARK    2  A    between atoms: C_2  and  C_3
REMARK    3  A    between atoms: C_2  and  C_4
REMARK    4  A    between atoms: C_4  and  C_5
REMARK    5  A    between atoms: C_5  and  C_7
REMARK    6  A    between atoms: C_5  and  N_20
REMARK    7  A    between atoms: N_9  and  C_10
REMARK    8  A    between atoms: C_10  and  C_11
REMARK    9  A    between atoms: C_10  and  C_12
REMARK   10  A    between atoms: C_10  and  C_13
REMARK                            x       y       z     vdW  Elec       q    Type
REMARK                         _______ _______ _______ _____ _____    ______ ____
ROOT
ATOM      1  C   UNL     1       3.072  -0.677  -1.895  0.00  0.00    +0.199 C 
ATOM      2  O   UNL     1       3.500   0.176  -2.643  0.00  0.00    -0.278 OA
ATOM      3  N   UNL     1       3.361  -1.974  -2.118  0.00  0.00    -0.308 N 
ATOM      4  H   UNL     1       3.018  -2.657  -1.520  0.00  0.00    +0.149 HD
ENDROOT
BRANCH   3   5
ATOM      5  C   UNL     1       4.192  -2.354  -3.263  0.00  0.00    +0.054 C 
ATOM      6  C   UNL     1       3.494  -1.938  -4.559  0.00  0.00    +0.036 C 
ATOM      7  C   UNL     1       5.547  -1.650  -3.165  0.00  0.00    +0.036 C 
BRANCH   5   8
ATOM      8  C   UNL     1       4.399  -3.846  -3.260  0.00  0.00    -0.025 A 
ATOM      9  C   UNL     1       4.693  -4.505  -4.439  0.00  0.00    +0.007 A 
ATOM     10  C   UNL     1       4.884  -5.874  -4.437  0.00  0.00    +0.015 A 
ATOM     11  C   UNL     1       4.782  -6.585  -3.255  0.00  0.00    +0.018 A 
ATOM     12  C   UNL     1       4.488  -5.925  -2.075  0.00  0.00    +0.015 A 
ATOM     13  C   UNL     1       4.302  -4.556  -2.077  0.00  0.00    +0.007 A 
ATOM     14 BR   UNL     1       5.042  -8.458  -3.252  0.00  0.00    -0.050 Br
ENDBRANCH   5   8
ENDBRANCH   3   5
BRANCH   1  15
ATOM     15  C   UNL     1       2.217  -0.287  -0.717  0.00  0.00    +0.013 C 
BRANCH  15  16
ATOM     16  N   UNL     1       2.432   1.133  -0.405  0.00  0.00    +0.386 N 
ATOM     17  H   UNL     1       2.200   1.693  -1.211  0.00  0.00    -0.089 HD
ATOM     18  H   UNL     1       1.844   1.399   0.370  0.00  0.00    -0.089 HD
ATOM     19  H   UNL     1       3.399   1.281  -0.160  0.00  0.00    -0.089 HD
ENDBRANCH  15  16
BRANCH  15  20
ATOM     20  C   UNL     1       0.743  -0.517  -1.058  0.00  0.00    -0.004 C 
BRANCH  20  22
ATOM     21  C   UNL     1      -1.596  -0.326  -0.202  0.00  0.00    +0.007 C 
ATOM     22  C   UNL     1      -0.117  -0.225   0.174  0.00  0.00    -0.018 C 
ATOM     23  C   UNL     1       0.202  -1.242   1.271  0.00  0.00    +0.007 C 
ENDBRANCH  20  22
ENDBRANCH  15  20
ENDBRANCH   1  15
TORSDOF 6
