REMARK  Name = ZINC02290427
REMARK  9 active torsions:
REMARK  status: ('A' for Active; 'I' for Inactive)
REMARK    1  A    between atoms: C_1  and  C_2
REMARK    2  A    between atoms: C_2  and  C_3
REMARK    3  A    between atoms: C_3  and  C_4
REMARK    4  A    between atoms: C_4  and  C_5
REMARK    5  A    between atoms: C_8  and  C_10
REMARK    6  A    between atoms: C_12  and  C_25
REMARK    7  A    between atoms: C_13  and  N_24
REMARK    8  A    between atoms: C_20  and  C_22
REMARK    9  A    between atoms: C_20  and  C_23
REMARK                            x       y       z     vdW  Elec       q    Type
REMARK                         _______ _______ _______ _____ _____    ______ ____
ROOT
ATOM      1  C   UNL     1       1.433  -1.094   8.287  0.00  0.00    +0.108 C 
ATOM      2  C   UNL     1       0.250  -1.289   9.193  0.00  0.00    +0.099 C 
ATOM      3  C   UNL     1      -0.472  -2.431   9.145  0.00  0.00    +0.198 C 
ATOM      4  O   UNL     1      -0.163  -3.417   8.288  0.00  0.00    -0.445 OA
ATOM      5  C   UNL     1       1.080  -3.497   7.778  0.00  0.00    +0.115 C 
ATOM      6  C   UNL     1       1.895  -2.426   7.748  0.00  0.00    +0.046 C 
ATOM      7  C   UNL     1       3.198  -2.512   7.220  0.00  0.00    +0.164 C 
ATOM      8  O   UNL     1       3.898  -1.519   7.195  0.00  0.00    -0.292 OA
ATOM      9  C   UNL     1       3.738  -3.810   6.685  0.00  0.00    +0.086 C 
ATOM     10  C   UNL     1       3.049  -4.970   7.413  0.00  0.00    -0.021 C 
ATOM     11  C   UNL     1       1.537  -4.828   7.229  0.00  0.00    +0.081 C 
ATOM     12  C   UNL     1       3.393  -4.918   8.903  0.00  0.00    +0.012 C 
ATOM     13  C   UNL     1       3.516  -6.302   6.823  0.00  0.00    +0.012 C 
ENDROOT
BRANCH   1  17
ATOM     14  C   UNL     1       0.024   1.067   4.986  0.00  0.00    -0.010 A 
ATOM     15  C   UNL     1       1.033   1.652   5.677  0.00  0.00    +0.011 A 
ATOM     16  C   UNL     1       1.554   1.003   6.780  0.00  0.00    +0.012 A 
ATOM     17  C   UNL     1       1.042  -0.199   7.139  0.00  0.00    +0.003 A 
ATOM     18  S   UNL     1      -0.223  -0.445   5.903  0.00  0.00    -0.097 S 
BRANCH  14  19
ATOM     19  C   UNL     1      -0.705   1.566   3.765  0.00  0.00    +0.042 C 
BRANCH  19  20
ATOM     20  C   UNL     1       0.011   1.072   2.506  0.00  0.00    +0.005 C 
BRANCH  20  22
ATOM     21  C   UNL     1      -0.013   1.086   0.008  0.00  0.00    +0.004 C 
ATOM     22  C   UNL     1      -0.729   1.579   1.267  0.00  0.00    -0.003 C 
ENDBRANCH  20  22
ENDBRANCH  19  20
ENDBRANCH  14  19
ENDBRANCH   1  17
BRANCH   3  23
ATOM     23  N   UNL     1      -1.544  -2.586   9.988  0.00  0.00    -0.328 N 
ATOM     24  H   UNL     1      -2.069  -3.402   9.961  0.00  0.00    +0.145 HD
ATOM     25  H   UNL     1      -1.777  -1.880  10.611  0.00  0.00    +0.145 HD
ENDBRANCH   3  23
BRANCH   2  26
ATOM     26  C   UNL     1      -0.117  -0.258  10.117  0.00  0.00    +0.101 C 
ATOM     27  N   UNL     1      -0.408   0.560  10.849  0.00  0.00    -0.191 NA
ENDBRANCH   2  26
TORSDOF 6
