REMARK  Name = ZINC13811705
REMARK  4 active torsions:
REMARK  status: ('A' for Active; 'I' for Inactive)
REMARK    1  A    between atoms: C_8  and  C_27
REMARK    2  A    between atoms: C_10  and  C_18
REMARK    3  A    between atoms: C_22  and  N_24
REMARK    4  A    between atoms: C_27  and  C_29
REMARK                            x       y       z     vdW  Elec       q    Type
REMARK                         _______ _______ _______ _____ _____    ______ ____
ROOT
ATOM      1  C   UNL     1       2.379  -2.552  -2.204  0.00  0.00    +0.000 A 
ATOM      2  C   UNL     1       1.935  -2.897  -3.468  0.00  0.00    +0.002 A 
ATOM      3  C   UNL     1       0.586  -3.037  -3.719  0.00  0.00    +0.023 A 
ATOM      4  C   UNL     1      -0.341  -2.832  -2.699  0.00  0.00    +0.039 A 
ATOM      5  C   UNL     1       0.117  -2.486  -1.432  0.00  0.00    +0.004 A 
ATOM      6  C   UNL     1       1.465  -2.347  -1.186  0.00  0.00    +0.008 A 
ATOM      7  C   UNL     1      -1.110  -2.339  -0.575  0.00  0.00    +0.137 C 
ATOM      8  C   UNL     1      -1.213  -0.926   0.007  0.00  0.00    +0.103 C 
ATOM      9  C   UNL     1      -1.703  -1.116   1.458  0.00  0.00    +0.050 C 
ATOM     10  C   UNL     1      -1.877  -2.637   1.631  0.00  0.00    +0.077 C 
ATOM     11  N   UNL     1      -1.085  -3.272   0.562  0.00  0.00    -0.271 NA
ATOM     12  C   UNL     1       0.329  -3.511   0.976  0.00  0.00    +0.155 C 
ATOM     13  S   UNL     1       0.079  -4.033   2.714  0.00  0.00    -0.144 S 
ATOM     14  C   UNL     1      -1.425  -3.022   3.055  0.00  0.00    +0.090 C 
ATOM     15  C   UNL     1      -2.264  -2.634  -1.497  0.00  0.00    +0.243 C 
ATOM     16  O   UNL     1      -3.442  -2.624  -1.208  0.00  0.00    -0.273 OA
ATOM     17  N   UNL     1      -1.735  -2.911  -2.704  0.00  0.00    -0.283 N 
ATOM     18  H   UNL     1      -2.268  -3.177  -3.629  0.00  0.00    +0.155 HD
ENDROOT
BRANCH   9  19
ATOM     19  C   UNL     1      -0.675  -0.593   2.428  0.00  0.00    -0.040 A 
ATOM     20  C   UNL     1       0.443  -1.350   2.724  0.00  0.00    +0.004 A 
ATOM     21  C   UNL     1       1.388  -0.869   3.611  0.00  0.00    +0.002 A 
ATOM     22  C   UNL     1       1.210   0.365   4.209  0.00  0.00    +0.033 A 
ATOM     23  C   UNL     1       0.089   1.119   3.917  0.00  0.00    +0.126 A 
ATOM     24  C   UNL     1      -0.854   0.640   3.027  0.00  0.00    +0.036 A 
BRANCH  23  25
ATOM     25  N   UNL     1      -0.102   2.440   4.558  0.00  0.00    +0.056 N 
ATOM     26  O   UNL     1      -1.090   3.104   4.300  0.00  0.00    -0.126 OA
ATOM     27  O   UNL     1       0.728   2.862   5.342  0.00  0.00    -0.126 OA
ENDBRANCH  23  25
ENDBRANCH   9  19
BRANCH   8  28
ATOM     28  C   UNL     1       0.136  -0.256  -0.005  0.00  0.00    +0.176 C 
ATOM     29  O   UNL     1       1.037  -0.691   0.684  0.00  0.00    -0.291 OA
BRANCH  28  30
ATOM     30  C   UNL     1       0.354   0.879  -0.818  0.00  0.00    +0.055 A 
ATOM     31  C   UNL     1       1.510   1.637  -0.974  0.00  0.00    +0.019 A 
ATOM     32  C   UNL     1       1.447   2.698  -1.837  0.00  0.00    +0.008 A 
ATOM     33  C   UNL     1       0.280   2.957  -2.489  0.00  0.00    +0.046 A 
ATOM     34  S   UNL     1      -0.778   1.708  -1.919  0.00  0.00    -0.094 S 
ENDBRANCH  28  30
ENDBRANCH   8  28
TORSDOF 4
