REMARK  Name = ZINC30378816
REMARK  4 active torsions:
REMARK  status: ('A' for Active; 'I' for Inactive)
REMARK    1  A    between atoms: C_1  and  C_2
REMARK    2  A    between atoms: C_8  and  N_10
REMARK    3  A    between atoms: N_10  and  C_11
REMARK    4  A    between atoms: C_12  and  C_14
REMARK                            x       y       z     vdW  Elec       q    Type
REMARK                         _______ _______ _______ _____ _____    ______ ____
ROOT
ATOM      1  N   UNL     1       0.883  -2.825   0.080  0.00  0.00    -0.296 N 
ATOM      2  C   UNL     1      -0.552  -2.534   0.096  0.00  0.00    +0.132 C 
ATOM      3  C   UNL     1       1.763  -1.860  -0.256  0.00  0.00    +0.263 C 
ATOM      4  O   UNL     1       2.954  -2.106  -0.284  0.00  0.00    -0.268 OA
ENDROOT
BRANCH   1  11
ATOM      5  C   UNL     1       1.528  -3.480   2.827  0.00  0.00    +0.009 C 
ATOM      6  C   UNL     1       0.933  -4.503   1.858  0.00  0.00    +0.006 C 
ATOM      7  C   UNL     1       1.434  -5.902   2.223  0.00  0.00    +0.005 C 
ATOM      8  C   UNL     1       0.839  -6.926   1.254  0.00  0.00    +0.000 C 
ATOM      9  C   UNL     1       1.269  -6.587  -0.174  0.00  0.00    +0.002 C 
ATOM     10  C   UNL     1       0.768  -5.188  -0.539  0.00  0.00    +0.023 C 
ATOM     11  C   UNL     1       1.363  -4.164   0.430  0.00  0.00    +0.079 C 
ENDBRANCH   1  11
BRANCH   3  12
ATOM     12  C   UNL     1       1.284  -0.514  -0.586  0.00  0.00    +0.103 A 
ATOM     13  C   UNL     1       2.062   0.615  -0.732  0.00  0.00    +0.047 A 
ATOM     14  C   UNL     1       1.200   1.671  -1.046  0.00  0.00    +0.036 A 
ATOM     15  C   UNL     1      -0.062   1.179  -1.085  0.00  0.00    +0.098 A 
ATOM     16  N   UNL     1      -0.024  -0.147  -0.807  0.00  0.00    -0.356 N 
ATOM     17  H   UNL     1      -0.825  -0.899  -0.742  0.00  0.00    +0.165 HD
ATOM     18 BR   UNL     1       1.706   3.466  -1.359  0.00  0.00    -0.049 Br
ENDBRANCH   3  12
TORSDOF 2
