REMARK  Name = ZINC36359096
REMARK  8 active torsions:
REMARK  status: ('A' for Active; 'I' for Inactive)
REMARK    1  A    between atoms: C_1  and  O_2
REMARK    2  A    between atoms: O_2  and  C_3
REMARK    3  A    between atoms: C_9  and  C_13
REMARK    4  A    between atoms: C_13  and  C_14
REMARK    5  A    between atoms: C_14  and  N_15
REMARK    6  A    between atoms: C_16  and  C_32
REMARK    7  A    between atoms: C_19  and  C_26
REMARK    8  A    between atoms: C_36  and  O_38
REMARK                            x       y       z     vdW  Elec       q    Type
REMARK                         _______ _______ _______ _____ _____    ______ ____
ROOT
ATOM      1  N   UNL     1       1.758  -6.730  -0.088  0.00  0.00    -0.285 N 
ATOM      2  C   UNL     1       2.097  -8.119   0.244  0.00  0.00    +0.141 C 
ATOM      3  C   UNL     1       1.448  -8.976  -0.808  0.00  0.00    +0.035 A 
ATOM      4  C   UNL     1       1.220 -10.225  -1.291  0.00  0.00    +0.072 A 
ATOM      5  N   UNL     1       0.446 -10.078  -2.407  0.00  0.00    -0.276 N 
ATOM      6  H   UNL     1       0.126 -10.806  -2.962  0.00  0.00    +0.189 HD
ATOM      7  N   UNL     1       0.206  -8.832  -2.612  0.00  0.00    -0.168 NA
ATOM      8  C   UNL     1       0.779  -8.092  -1.685  0.00  0.00    +0.153 A 
ATOM      9  C   UNL     1       0.996  -6.719  -1.195  0.00  0.00    +0.268 C 
ATOM     10  O   UNL     1       0.551  -5.717  -1.720  0.00  0.00    -0.268 OA
ENDROOT
BRANCH   4  11
ATOM     11  C   UNL     1       1.713 -11.497  -0.718  0.00  0.00    +0.000 A 
ATOM     12  C   UNL     1       3.038 -11.609  -0.299  0.00  0.00    +0.010 A 
ATOM     13  C   UNL     1       3.492 -12.798   0.234  0.00  0.00    +0.001 A 
ATOM     14  C   UNL     1       2.636 -13.878   0.353  0.00  0.00    +0.000 A 
ATOM     15  C   UNL     1       1.320 -13.773  -0.062  0.00  0.00    +0.001 A 
ATOM     16  C   UNL     1       0.853 -12.588  -0.591  0.00  0.00    +0.010 A 
ENDBRANCH   4  11
BRANCH   2  17
ATOM     17  C   UNL     1       3.592  -8.308   0.218  0.00  0.00    -0.019 A 
ATOM     18  C   UNL     1       4.348  -7.694  -0.764  0.00  0.00    +0.006 A 
ATOM     19  C   UNL     1       5.720  -7.866  -0.791  0.00  0.00    +0.004 A 
ATOM     20  C   UNL     1       6.338  -8.651   0.163  0.00  0.00    +0.045 A 
ATOM     21  C   UNL     1       5.581  -9.267   1.149  0.00  0.00    +0.117 A 
ATOM     22  C   UNL     1       4.206  -9.089   1.177  0.00  0.00    +0.051 A 
BRANCH  21  23
ATOM     23  O   UNL     1       6.187 -10.040   2.089  0.00  0.00    -0.507 OA
ATOM     24  H   UNL     1       6.461  -9.556   2.879  0.00  0.00    +0.292 HD
ENDBRANCH  21  23
ENDBRANCH   2  17
BRANCH   1  25
ATOM     25  C   UNL     1       2.178  -5.548   0.669  0.00  0.00    +0.114 C 
BRANCH  25  26
ATOM     26  C   UNL     1       1.138  -5.237   1.747  0.00  0.00    +0.056 C 
BRANCH  26  33
ATOM     27  C   UNL     1       0.626  -0.619   1.042  0.00  0.00    +0.121 A 
ATOM     28  C   UNL     1       1.204   0.145   2.054  0.00  0.00    +0.047 A 
ATOM     29  C   UNL     1       1.839  -0.461   3.114  0.00  0.00    +0.030 A 
ATOM     30  C   UNL     1       1.909  -1.849   3.182  0.00  0.00    +0.047 A 
ATOM     31  C   UNL     1       1.327  -2.623   2.162  0.00  0.00    +0.006 A 
ATOM     32  C   UNL     1       0.680  -1.997   1.094  0.00  0.00    +0.056 A 
ATOM     33  C   UNL     1       1.570  -4.021   2.526  0.00  0.00    -0.021 A 
ATOM     34  C   UNL     1       2.249  -4.014   3.683  0.00  0.00    +0.087 A 
ATOM     35  N   UNL     1       2.461  -2.726   4.092  0.00  0.00    -0.360 N 
ATOM     36  H   UNL     1       2.931  -2.467   4.900  0.00  0.00    +0.165 HD
BRANCH  27  38
ATOM     37  C   UNL     1      -0.017   1.425   0.010  0.00  0.00    +0.277 C 
ATOM     38  O   UNL     1       0.002  -0.004   0.002  0.00  0.00    -0.495 OA
ENDBRANCH  27  38
ENDBRANCH  26  33
ENDBRANCH  25  26
ENDBRANCH   1  25
TORSDOF 7
