REMARK  Name = ZINC67535207
REMARK  7 active torsions:
REMARK  status: ('A' for Active; 'I' for Inactive)
REMARK    1  A    between atoms: C_1  and  C_2
REMARK    2  A    between atoms: C_3  and  C_9
REMARK    3  A    between atoms: C_4  and  C_8
REMARK    4  A    between atoms: N_5  and  C_7
REMARK    5  A    between atoms: C_9  and  C_11
REMARK    6  A    between atoms: C_9  and  N_12
REMARK    7  A    between atoms: C_19  and  C_22
REMARK                            x       y       z     vdW  Elec       q    Type
REMARK                         _______ _______ _______ _____ _____    ______ ____
ROOT
ATOM      1  N   UNL     1      -0.616   0.845  -2.745  0.00  0.00    -0.293 N 
ATOM      2  C   UNL     1      -1.168   1.100  -3.947  0.00  0.00    +0.303 C 
ATOM      3  O   UNL     1      -0.903   0.393  -4.900  0.00  0.00    -0.253 OA
ATOM      4  N   UNL     1      -2.015   2.138  -4.093  0.00  0.00    -0.281 N 
ATOM      5  C   UNL     1      -2.720   2.368  -5.364  0.00  0.00    +0.137 C 
ATOM      6  C   UNL     1      -4.213   2.544  -5.064  0.00  0.00    +0.179 C 
ATOM      7  O   UNL     1      -4.376   3.546  -4.058  0.00  0.00    -0.369 OA
ATOM      8  C   UNL     1      -3.778   3.216  -2.801  0.00  0.00    +0.166 C 
ATOM      9  C   UNL     1      -2.267   3.072  -2.983  0.00  0.00    +0.145 C 
ATOM     10  H   UNL     1      -0.771   1.448  -2.001  0.00  0.00    +0.151 HD
ENDROOT
BRANCH   8  11
ATOM     11  C   UNL     1      -4.066   4.309  -1.805  0.00  0.00    -0.017 A 
ATOM     12  C   UNL     1      -4.129   5.626  -2.222  0.00  0.00    +0.007 A 
ATOM     13  C   UNL     1      -4.393   6.629  -1.309  0.00  0.00    +0.020 A 
ATOM     14  C   UNL     1      -4.593   6.315   0.024  0.00  0.00    +0.041 A 
ATOM     15  C   UNL     1      -4.530   4.998   0.441  0.00  0.00    +0.020 A 
ATOM     16  C   UNL     1      -4.272   3.995  -0.475  0.00  0.00    +0.007 A 
ATOM     17 CL   UNL     1      -4.924   7.575   1.172  0.00  0.00    -0.084 Cl
ENDBRANCH   8  11
BRANCH   1  18
ATOM     18  C   UNL     1       0.221  -0.344  -2.560  0.00  0.00    +0.105 C 
ATOM     19  C   UNL     1       1.673  -0.003  -2.898  0.00  0.00    +0.033 C 
BRANCH  18  22
ATOM     20  C   UNL     1      -0.219  -3.326  -1.583  0.00  0.00    +0.068 C 
ATOM     21  C   UNL     1      -0.061  -2.118  -0.695  0.00  0.00    +0.065 A 
ATOM     22  C   UNL     1       0.133  -0.802  -1.127  0.00  0.00    +0.016 A 
ATOM     23  C   UNL     1       0.228  -0.014  -0.032  0.00  0.00    +0.041 A 
ATOM     24  N   UNL     1       0.099  -0.803   1.056  0.00  0.00    -0.271 N 
ATOM     25  N   UNL     1      -0.087  -2.119   0.613  0.00  0.00    -0.176 NA
ATOM     26  C   UNL     1       0.140  -0.360   2.451  0.00  0.00    +0.172 C 
ATOM     27  C   UNL     1       0.440   1.478  -0.026  0.00  0.00    +0.065 C 
ENDBRANCH  18  22
ENDBRANCH   1  18
TORSDOF 3
