REMARK  Name = ZINC39638455
REMARK  8 active torsions:
REMARK  status: ('A' for Active; 'I' for Inactive)
REMARK    1  A    between atoms: C_1  and  O_2
REMARK    2  A    between atoms: O_2  and  C_3
REMARK    3  A    between atoms: C_7  and  C_11
REMARK    4  A    between atoms: C_8  and  O_9
REMARK    5  A    between atoms: O_9  and  C_10
REMARK    6  A    between atoms: C_11  and  N_12
REMARK    7  A    between atoms: C_13  and  C_15
REMARK    8  A    between atoms: C_26  and  C_28
REMARK                            x       y       z     vdW  Elec       q    Type
REMARK                         _______ _______ _______ _____ _____    ______ ____
ROOT
ATOM      1  C   UNL     1       3.822  -6.418   0.338  0.00  0.00    +0.100 C 
ATOM      2  C   UNL     1       3.463  -6.161  -1.143  0.00  0.00    +0.121 C 
ATOM      3  N   UNL     1       3.985  -7.345  -1.866  0.00  0.00    -0.297 N 
ATOM      4  C   UNL     1       3.688  -8.486  -0.967  0.00  0.00    +0.115 C 
ATOM      5  C   UNL     1       3.968  -7.945   0.450  0.00  0.00    -0.004 C 
ATOM      6  C   UNL     1       2.948  -8.503   1.438  0.00  0.00    -0.010 C 
ATOM      7  C   UNL     1       3.151 -10.014   1.576  0.00  0.00    -0.082 C 
ATOM      8  N   UNL     1       4.515 -10.286   2.045  0.00  0.00    +0.379 N 
ATOM      9  C   UNL     1       5.488  -9.830   1.045  0.00  0.00    -0.082 C 
ATOM     10  C   UNL     1       5.384  -8.311   0.884  0.00  0.00    -0.010 C 
ATOM     11  C   UNL     1       4.593  -7.378  -3.068  0.00  0.00    +0.260 C 
ATOM     12  O   UNL     1       4.966  -8.435  -3.531  0.00  0.00    -0.271 OA
ATOM     13  H   UNL     1       4.674  -9.798   2.914  0.00  0.00    -0.086 HD
ATOM     14  H   UNL     1       4.627 -11.277   2.193  0.00  0.00    -0.086 HD
ENDROOT
BRANCH  11  15
ATOM     15  C   UNL     1       4.808  -6.100  -3.838  0.00  0.00    +0.296 C 
ATOM     16  C   UNL     1       3.452  -5.509  -4.249  0.00  0.00    +0.283 C 
ATOM     17  O   UNL     1       3.693  -4.307  -4.989  0.00  0.00    -0.484 OA
ATOM     18  C   UNL     1       4.648  -4.366  -5.957  0.00  0.00    +0.162 A 
ATOM     19  C   UNL     1       4.686  -3.385  -6.936  0.00  0.00    +0.049 A 
ATOM     20  C   UNL     1       5.652  -3.429  -7.924  0.00  0.00    +0.004 A 
ATOM     21  C   UNL     1       6.583  -4.451  -7.938  0.00  0.00    +0.004 A 
ATOM     22  C   UNL     1       6.549  -5.433  -6.966  0.00  0.00    +0.049 A 
ATOM     23  C   UNL     1       5.582  -5.395  -5.973  0.00  0.00    +0.163 A 
ATOM     24  O   UNL     1       5.558  -6.374  -5.027  0.00  0.00    -0.473 OA
ENDBRANCH  11  15
BRANCH   1  26
ATOM     25  N   UNL     1       3.000  -5.516   2.489  0.00  0.00    -0.311 N 
ATOM     26  C   UNL     1       2.717  -5.929   1.238  0.00  0.00    +0.218 C 
ATOM     27  O   UNL     1       1.573  -5.908   0.837  0.00  0.00    -0.275 OA
ATOM     28  H   UNL     1       3.916  -5.534   2.810  0.00  0.00    +0.149 HD
BRANCH  25  29
ATOM     29  C   UNL     1       1.926  -5.041   3.364  0.00  0.00    +0.143 C 
BRANCH  29  34
ATOM     30  C   UNL     1       3.654  -3.043   6.076  0.00  0.00    +0.162 A 
ATOM     31  C   UNL     1       3.566  -3.912   7.151  0.00  0.00    +0.049 A 
ATOM     32  C   UNL     1       2.948  -5.140   6.999  0.00  0.00    +0.004 A 
ATOM     33  C   UNL     1       2.419  -5.503   5.775  0.00  0.00    +0.009 A 
ATOM     34  C   UNL     1       2.504  -4.641   4.697  0.00  0.00    +0.015 A 
ATOM     35  C   UNL     1       3.116  -3.407   4.845  0.00  0.00    +0.166 A 
BRANCH  30  37
ATOM     36  C   UNL     1       4.790  -1.529   7.516  0.00  0.00    +0.277 C 
ATOM     37  O   UNL     1       4.261  -1.835   6.224  0.00  0.00    -0.491 OA
ENDBRANCH  30  37
BRANCH  35  38
ATOM     38  O   UNL     1       3.196  -2.555   3.788  0.00  0.00    -0.491 OA
ATOM     39  C   UNL     1       4.348  -2.667   2.950  0.00  0.00    +0.277 C 
ENDBRANCH  35  38
ENDBRANCH  29  34
ENDBRANCH  25  29
ENDBRANCH   1  26
TORSDOF 6
