REMARK  Name = ZINC20830542
REMARK  9 active torsions:
REMARK  status: ('A' for Active; 'I' for Inactive)
REMARK    1  A    between atoms: C_1  and  C_2
REMARK    2  A    between atoms: C_2  and  C_3
REMARK    3  A    between atoms: C_2  and  S_4
REMARK    4  A    between atoms: S_4  and  C_5
REMARK    5  A    between atoms: C_11  and  C_13
REMARK    6  A    between atoms: C_13  and  S_14
REMARK    7  A    between atoms: S_14  and  C_15
REMARK    8  A    between atoms: C_18  and  C_21
REMARK    9  A    between atoms: N_19  and  N_20
REMARK                            x       y       z     vdW  Elec       q    Type
REMARK                         _______ _______ _______ _____ _____    ______ ____
ROOT
ATOM      1  S   UNL     1      -0.768  -5.209   0.408  0.00  0.00    -0.075 S 
ENDROOT
BRANCH   1   2
ATOM      2  C   UNL     1      -0.401  -6.910   0.137  0.00  0.00    +0.209 A 
ATOM      3  N   UNL     1       0.795  -7.454   0.103  0.00  0.00    -0.121 NA
ATOM      4  N   UNL     1       0.700  -8.717  -0.113  0.00  0.00    -0.127 NA
ATOM      5  C   UNL     1      -0.562  -9.056  -0.240  0.00  0.00    +0.182 A 
ATOM      6  N   UNL     1      -1.306  -7.909  -0.084  0.00  0.00    -0.224 N 
BRANCH   5   7
ATOM      7  C   UNL     1      -1.085 -10.414  -0.501  0.00  0.00    +0.021 A 
ATOM      8  C   UNL     1      -0.273 -11.530  -0.293  0.00  0.00    +0.013 A 
ATOM      9  C   UNL     1      -0.768 -12.795  -0.534  0.00  0.00    +0.016 A 
ATOM     10  C   UNL     1      -2.065 -12.958  -0.992  0.00  0.00    +0.018 A 
ATOM     11  C   UNL     1      -2.873 -11.854  -1.205  0.00  0.00    +0.016 A 
ATOM     12  C   UNL     1      -2.391 -10.585  -0.963  0.00  0.00    +0.013 A 
ATOM     13 BR   UNL     1      -2.733 -14.694  -1.327  0.00  0.00    -0.050 Br
ENDBRANCH   5   7
BRANCH   6  14
ATOM     14  N   UNL     1      -2.666  -7.794  -0.139  0.00  0.00    -0.295 N 
ATOM     15  H   UNL     1      -3.286  -8.683  -0.326  0.00  0.00    +0.163 HD
ATOM     16  H   UNL     1      -3.141  -6.812   0.003  0.00  0.00    +0.163 HD
ENDBRANCH   6  14
ENDBRANCH   1   2
BRANCH   1  17
ATOM     17  C   UNL     1       0.907  -4.554   0.612  0.00  0.00    +0.173 C 
BRANCH  17  24
ATOM     18  C   UNL     1       2.164   1.617   1.739  0.00  0.00    +0.160 A 
ATOM     19  N   UNL     1       0.980   1.045   1.576  0.00  0.00    -0.133 NA
ATOM     20  N   UNL     1       0.861  -0.191   1.357  0.00  0.00    -0.125 NA
ATOM     21  C   UNL     1       1.911  -0.993   1.277  0.00  0.00    +0.189 A 
ATOM     22  S   UNL     1       3.227   0.189   1.552  0.00  0.00    -0.024 S 
ATOM     23  N   UNL     1       1.973  -2.365   1.046  0.00  0.00    -0.263 N 
ATOM     24  C   UNL     1       0.839  -3.070   0.863  0.00  0.00    +0.229 C 
ATOM     25  O   UNL     1      -0.236  -2.509   0.900  0.00  0.00    -0.275 OA
ATOM     26  H   UNL     1       2.948  -2.873   1.012  0.00  0.00    +0.157 HD
BRANCH  18  27
ATOM     27  S   UNL     1       2.575   3.303   2.050  0.00  0.00    -0.094 S 
BRANCH  27  29
ATOM     28  C   UNL     1       0.165   3.628   3.303  0.00  0.00    +0.019 C 
ATOM     29  C   UNL     1       0.968   4.143   2.106  0.00  0.00    +0.047 C 
ATOM     30  C   UNL     1       1.185   5.651   2.248  0.00  0.00    +0.019 C 
ENDBRANCH  27  29
ENDBRANCH  18  27
ENDBRANCH  17  24
ENDBRANCH   1  17
TORSDOF 7
