REMARK  Name = ZINC34708282
REMARK  11 active torsions:
REMARK  status: ('A' for Active; 'I' for Inactive)
REMARK    1  A    between atoms: C_3  and  C_8
REMARK    2  A    between atoms: C_8  and  N_9
REMARK    3  A    between atoms: C_10  and  C_12
REMARK    4  A    between atoms: C_12  and  C_14
REMARK    5  A    between atoms: C_12  and  O_33
REMARK    6  A    between atoms: C_14  and  N_15
REMARK    7  A    between atoms: N_15  and  C_16
REMARK    8  A    between atoms: N_15  and  C_26
REMARK    9  A    between atoms: C_16  and  C_17
REMARK   10  A    between atoms: C_26  and  C_27
REMARK   11  A    between atoms: O_33  and  C_34
REMARK                            x       y       z     vdW  Elec       q    Type
REMARK                         _______ _______ _______ _____ _____    ______ ____
ROOT
ATOM      1  C   UNL     1       5.937   3.509   3.587  0.00  0.00    +0.242 C 
ENDROOT
BRANCH   1   3
ATOM      2  N   UNL     1       3.731   3.069   2.559  0.00  0.00    -0.308 N 
ATOM      3  C   UNL     1       4.970   3.583   2.433  0.00  0.00    +0.252 C 
ATOM      4  O   UNL     1       5.308   4.105   1.392  0.00  0.00    -0.272 OA
ATOM      5  H   UNL     1       3.461   2.652   3.392  0.00  0.00    +0.149 HD
BRANCH   2   6
ATOM      6  C   UNL     1       2.791   3.141   1.438  0.00  0.00    +0.139 C 
BRANCH   6   9
ATOM      7  C   UNL     1      -0.707   2.676   2.780  0.00  0.00    +0.003 A 
ATOM      8  C   UNL     1       0.490   3.263   2.416  0.00  0.00    +0.005 A 
ATOM      9  C   UNL     1       1.486   2.500   1.834  0.00  0.00    -0.028 A 
ATOM     10  C   UNL     1       1.284   1.151   1.615  0.00  0.00    +0.043 A 
ATOM     11  C   UNL     1       0.085   0.562   1.979  0.00  0.00    +0.124 A 
ATOM     12  C   UNL     1      -0.911   1.327   2.563  0.00  0.00    +0.038 A 
ATOM     13  F   UNL     1      -0.113  -0.757   1.765  0.00  0.00    -0.205 F 
ENDBRANCH   6   9
ENDBRANCH   2   6
ENDBRANCH   1   3
BRANCH   1  14
ATOM     14  C   UNL     1       6.276   2.045   3.875  0.00  0.00    -0.023 C 
BRANCH  14  15
ATOM     15  N   UNL     1       7.212   1.972   5.006  0.00  0.00    +0.387 N 
ATOM     16  H   UNL     1       8.019   2.546   4.812  0.00  0.00    -0.081 HD
BRANCH  15  17
ATOM     17  C   UNL     1       6.547   2.458   6.223  0.00  0.00    -0.043 C 
BRANCH  17  18
ATOM     18  C   UNL     1       7.541   2.499   7.355  0.00  0.00    -0.060 A 
ATOM     19  C   UNL     1       7.713   1.390   8.162  0.00  0.00    +0.005 A 
ATOM     20  C   UNL     1       8.624   1.423   9.202  0.00  0.00    +0.050 A 
ATOM     21  C   UNL     1       9.366   2.569   9.437  0.00  0.00    +0.166 A 
ATOM     22  C   UNL     1       9.192   3.686   8.624  0.00  0.00    +0.166 A 
ATOM     23  C   UNL     1       8.282   3.644   7.580  0.00  0.00    +0.051 A 
ATOM     24  O   UNL     1      10.029   4.674   9.056  0.00  0.00    -0.453 OA
ATOM     25  C   UNL     1      10.419   4.293  10.388  0.00  0.00    +0.466 C 
ATOM     26  O   UNL     1      10.312   2.857  10.378  0.00  0.00    -0.453 OA
ENDBRANCH  17  18
ENDBRANCH  15  17
BRANCH  15  27
ATOM     27  C   UNL     1       7.636   0.580   5.201  0.00  0.00    -0.046 C 
BRANCH  27  28
ATOM     28  C   UNL     1       8.459   0.123   3.995  0.00  0.00    +0.102 C 
ATOM     29  C   UNL     1       8.896  -1.345   4.185  0.00  0.00    +0.032 C 
ATOM     30  C   UNL     1      10.344  -1.334   3.622  0.00  0.00    +0.030 C 
ATOM     31  C   UNL     1      10.808   0.086   4.034  0.00  0.00    +0.160 C 
ATOM     32  O   UNL     1       9.645   0.919   3.887  0.00  0.00    -0.378 OA
ENDBRANCH  27  28
ENDBRANCH  15  27
ENDBRANCH  14  15
ENDBRANCH   1  14
BRANCH   1  33
ATOM     33  O   UNL     1       7.132   4.218   3.253  0.00  0.00    -0.481 OA
BRANCH  33  34
ATOM     34  C   UNL     1       7.127   5.563   3.449  0.00  0.00    +0.124 A 
ATOM     35  C   UNL     1       5.963   6.201   3.854  0.00  0.00    +0.046 A 
ATOM     36  C   UNL     1       5.959   7.568   4.052  0.00  0.00    +0.006 A 
ATOM     37  C   UNL     1       7.113   8.302   3.849  0.00  0.00    +0.038 A 
ATOM     38  C   UNL     1       8.276   7.668   3.445  0.00  0.00    +0.127 A 
ATOM     39  C   UNL     1       8.286   6.298   3.250  0.00  0.00    +0.084 A 
ATOM     40  F   UNL     1       9.403   8.386   3.246  0.00  0.00    -0.205 F 
ENDBRANCH  33  34
ENDBRANCH   1  33
TORSDOF 11
