REMARK  Name = ZINC39710297
REMARK  12 active torsions:
REMARK  status: ('A' for Active; 'I' for Inactive)
REMARK    1  A    between atoms: C_1  and  C_2
REMARK    2  A    between atoms: C_9  and  C_14
REMARK    3  A    between atoms: C_14  and  C_16
REMARK    4  A    between atoms: C_14  and  N_25
REMARK    5  A    between atoms: N_20  and  C_21
REMARK    6  A    between atoms: C_21  and  C_22
REMARK    7  A    between atoms: C_22  and  O_23
REMARK    8  A    between atoms: O_23  and  C_24
REMARK    9  A    between atoms: N_25  and  C_26
REMARK   10  A    between atoms: N_25  and  C_34
REMARK   11  A    between atoms: C_26  and  C_27
REMARK   12  A    between atoms: C_34  and  C_35
REMARK                            x       y       z     vdW  Elec       q    Type
REMARK                         _______ _______ _______ _____ _____    ______ ____
ROOT
ATOM      1  C   UNL     1       2.331  -6.084   2.315  0.00  0.00    +0.019 C 
ENDROOT
BRANCH   1  10
ATOM      2  C   UNL     1       1.709  -1.655  -3.253  0.00  0.00    +0.044 C 
ATOM      3  C   UNL     1       1.735  -3.020  -2.615  0.00  0.00    -0.050 A 
ATOM      4  C   UNL     1       2.030  -4.135  -3.401  0.00  0.00    +0.005 A 
ATOM      5  C   UNL     1       2.072  -5.396  -2.897  0.00  0.00    +0.024 A 
ATOM      6  C   UNL     1       1.814  -5.629  -1.534  0.00  0.00    +0.040 A 
ATOM      7  N   UNL     1       1.859  -6.871  -1.050  0.00  0.00    -0.285 N 
ATOM      8  C   UNL     1       1.626  -7.160   0.219  0.00  0.00    +0.223 C 
ATOM      9  O   UNL     1       1.681  -8.313   0.602  0.00  0.00    -0.275 OA
ATOM     10  C   UNL     1       1.292  -6.052   1.192  0.00  0.00    +0.092 C 
ATOM     11  C   UNL     1       1.240  -4.638   0.647  0.00  0.00    -0.006 C 
ATOM     12  C   UNL     1       1.500  -4.470  -0.680  0.00  0.00    -0.007 A 
ATOM     13  C   UNL     1       1.476  -3.139  -1.288  0.00  0.00    +0.012 A 
ATOM     14  H   UNL     1       2.071  -7.596  -1.658  0.00  0.00    +0.155 HD
ENDBRANCH   1  10
BRANCH   1  15
ATOM     15  C   UNL     1       2.183  -4.853   3.171  0.00  0.00    +0.139 A 
ATOM     16  N   UNL     1       1.286  -4.652   4.106  0.00  0.00    -0.115 NA
ATOM     17  N   UNL     1       1.489  -3.483   4.607  0.00  0.00    -0.023 NA
ATOM     18  N   UNL     1       2.492  -2.933   4.017  0.00  0.00    -0.044 NA
ATOM     19  N   UNL     1       2.951  -3.748   3.129  0.00  0.00    -0.229 N 
BRANCH  19  20
ATOM     20  C   UNL     1       4.091  -3.514   2.239  0.00  0.00    +0.175 C 
BRANCH  20  21
ATOM     21  C   UNL     1       3.632  -2.703   1.025  0.00  0.00    +0.183 C 
BRANCH  21  22
ATOM     22  O   UNL     1       4.744  -2.474   0.157  0.00  0.00    -0.381 OA
ATOM     23  C   UNL     1       4.422  -1.721  -1.014  0.00  0.00    +0.194 C 
ENDBRANCH  21  22
ENDBRANCH  20  21
ENDBRANCH  19  20
ENDBRANCH   1  15
BRANCH   1  24
ATOM     24  N   UNL     1       2.123  -7.282   3.140  0.00  0.00    +0.394 N 
ATOM     25  H   UNL     1       2.408  -8.100   2.622  0.00  0.00    -0.080 HD
BRANCH  24  26
ATOM     26  C   UNL     1       2.924  -7.176   4.367  0.00  0.00    -0.040 C 
BRANCH  26  27
ATOM     27  C   UNL     1       4.300  -6.664   4.027  0.00  0.00    -0.046 A 
ATOM     28  C   UNL     1       5.143  -7.421   3.234  0.00  0.00    +0.003 A 
ATOM     29  C   UNL     1       6.405  -6.951   2.922  0.00  0.00    +0.000 A 
ATOM     30  C   UNL     1       6.825  -5.724   3.402  0.00  0.00    +0.001 A 
ATOM     31  C   UNL     1       5.983  -4.967   4.194  0.00  0.00    +0.020 A 
ATOM     32  C   UNL     1       4.717  -5.434   4.502  0.00  0.00    +0.042 A 
ATOM     33 CL   UNL     1       3.657  -4.480   5.491  0.00  0.00    -0.083 Cl
ENDBRANCH  26  27
ENDBRANCH  24  26
BRANCH  24  34
ATOM     34  C   UNL     1       0.702  -7.394   3.491  0.00  0.00    -0.002 C 
BRANCH  34  35
ATOM     35  C   UNL     1      -0.021  -8.167   2.418  0.00  0.00    +0.089 A 
ATOM     36  C   UNL     1      -0.233  -9.495   2.412  0.00  0.00    +0.042 A 
ATOM     37  C   UNL     1      -0.944  -9.792   1.227  0.00  0.00    +0.041 A 
ATOM     38  C   UNL     1      -1.124  -8.627   0.579  0.00  0.00    +0.195 A 
ATOM     39  O   UNL     1      -0.568  -7.646   1.308  0.00  0.00    -0.470 OA
ENDBRANCH  34  35
ENDBRANCH  24  34
ENDBRANCH   1  24
TORSDOF 10
