REMARK  Name = ZINC04663853
REMARK  9 active torsions:
REMARK  status: ('A' for Active; 'I' for Inactive)
REMARK    1  A    between atoms: C_1  and  C_2
REMARK    2  A    between atoms: C_3  and  C_9
REMARK    3  A    between atoms: C_4  and  O_8
REMARK    4  A    between atoms: C_9  and  C_10
REMARK    5  A    between atoms: C_9  and  C_25
REMARK    6  A    between atoms: C_13  and  C_15
REMARK    7  A    between atoms: C_20  and  N_21
REMARK    8  A    between atoms: C_26  and  C_32
REMARK    9  A    between atoms: C_30  and  O_31
REMARK                            x       y       z     vdW  Elec       q    Type
REMARK                         _______ _______ _______ _____ _____    ______ ____
ROOT
ATOM      1  C   UNL     1      -0.016  -0.717  -1.264  0.00  0.00    +0.129 C 
ENDROOT
BRANCH   1   4
ATOM      2  C   UNL     1      -0.877   0.549   1.510  0.00  0.00    +0.068 C 
ATOM      3  C   UNL     1      -0.500  -0.891   1.274  0.00  0.00    +0.068 A 
ATOM      4  C   UNL     1      -0.121  -1.448   0.050  0.00  0.00    +0.051 A 
ATOM      5  C   UNL     1       0.137  -2.767   0.254  0.00  0.00    +0.213 A 
ATOM      6  N   UNL     1      -0.074  -3.027   1.564  0.00  0.00    -0.247 N 
ATOM      7  H   UNL     1       0.031  -3.887   1.999  0.00  0.00    +0.192 HD
ATOM      8  N   UNL     1      -0.468  -1.833   2.182  0.00  0.00    -0.176 NA
BRANCH   5   9
ATOM      9  O   UNL     1       0.534  -3.662  -0.686  0.00  0.00    -0.492 OA
ATOM     10  H   UNL     1       1.492  -3.789  -0.729  0.00  0.00    +0.294 HD
ENDBRANCH   5   9
ENDBRANCH   1   4
BRANCH   1  11
ATOM     11  C   UNL     1       1.354  -0.935  -1.852  0.00  0.00    +0.051 A 
ATOM     12  C   UNL     1       2.511  -1.037  -1.159  0.00  0.00    +0.041 A 
ATOM     13  N   UNL     1       3.510  -1.228  -2.047  0.00  0.00    -0.278 N 
ATOM     14  N   UNL     1       2.950  -1.244  -3.331  0.00  0.00    -0.136 NA
ATOM     15  H   UNL     1       4.450  -1.335  -1.834  0.00  0.00    +0.189 HD
ATOM     16  C   UNL     1       1.655  -1.074  -3.216  0.00  0.00    +0.236 A 
ATOM     17  C   UNL     1       2.660  -0.952   0.338  0.00  0.00    +0.065 C 
BRANCH  16  18
ATOM     18  O   UNL     1       0.760  -1.036  -4.239  0.00  0.00    -0.491 OA
ATOM     19  H   UNL     1       0.671  -0.166  -4.652  0.00  0.00    +0.294 HD
ENDBRANCH  16  18
ENDBRANCH   1  11
BRANCH   1  20
ATOM     20  C   UNL     1      -1.060  -1.242  -2.216  0.00  0.00    +0.118 A 
ATOM     21  C   UNL     1      -1.905  -0.489  -2.947  0.00  0.00    +0.046 A 
ATOM     22  C   UNL     1      -2.707  -1.376  -3.693  0.00  0.00    +0.050 A 
ATOM     23  C   UNL     1      -2.303  -2.634  -3.373  0.00  0.00    +0.137 A 
ATOM     24  O   UNL     1      -1.299  -2.537  -2.480  0.00  0.00    -0.459 OA
BRANCH  23  25
ATOM     25  C   UNL     1      -2.863  -3.890  -3.914  0.00  0.00    +0.048 A 
ATOM     26  C   UNL     1      -4.230  -4.152  -3.805  0.00  0.00    +0.016 A 
ATOM     27  C   UNL     1      -4.748  -5.325  -4.313  0.00  0.00    +0.039 A 
ATOM     28  C   UNL     1      -3.913  -6.243  -4.930  0.00  0.00    +0.126 A 
ATOM     29  C   UNL     1      -2.556  -5.989  -5.041  0.00  0.00    +0.071 A 
ATOM     30  C   UNL     1      -2.029  -4.816  -4.542  0.00  0.00    +0.140 A 
ATOM     31  F   UNL     1      -4.426  -7.391  -5.426  0.00  0.00    -0.205 F 
BRANCH  30  32
ATOM     32  N   UNL     1      -0.579  -4.542  -4.667  0.00  0.00    +0.057 N 
ATOM     33  O   UNL     1       0.161  -5.393  -5.103  0.00  0.00    -0.126 OA
ATOM     34  O   UNL     1      -0.135  -3.469  -4.332  0.00  0.00    -0.126 OA
ENDBRANCH  30  32
ENDBRANCH  23  25
ENDBRANCH   1  20
TORSDOF 7
