REMARK  Name = ZINC65265782
REMARK  7 active torsions:
REMARK  status: ('A' for Active; 'I' for Inactive)
REMARK    1  A    between atoms: C_1  and  C_2
REMARK    2  A    between atoms: C_4  and  C_30
REMARK    3  A    between atoms: C_6  and  C_8
REMARK    4  A    between atoms: N_25  and  C_26
REMARK    5  A    between atoms: C_26  and  C_27
REMARK    6  A    between atoms: C_27  and  O_28
REMARK    7  A    between atoms: O_28  and  C_29
REMARK                            x       y       z     vdW  Elec       q    Type
REMARK                         _______ _______ _______ _____ _____    ______ ____
ROOT
ATOM      1  C   UNL     1       0.057  -2.851   2.459  0.00  0.00    +0.247 C 
ATOM      2  O   UNL     1      -0.034  -4.063   2.452  0.00  0.00    -0.270 OA
ATOM      3  N   UNL     1       0.154  -2.189   3.629  0.00  0.00    -0.295 N 
ATOM      4  C   UNL     1       0.141  -0.723   3.792  0.00  0.00    +0.110 C 
ATOM      5  C   UNL     1      -0.336  -0.485   5.249  0.00  0.00    +0.050 C 
ATOM      6  C   UNL     1       0.318  -1.670   5.982  0.00  0.00    +0.091 C 
ATOM      7  C   UNL     1       0.283  -2.809   4.959  0.00  0.00    +0.137 C 
ATOM      8  C   UNL     1      -0.413  -2.021   7.233  0.00  0.00    +0.095 C 
ATOM      9  N   UNL     1      -0.001  -1.393   8.384  0.00  0.00    -0.303 N 
ATOM     10  C   UNL     1       1.002  -1.981   9.148  0.00  0.00    +0.037 A 
ATOM     11  C   UNL     1       0.867  -2.064  10.527  0.00  0.00    +0.023 A 
ATOM     12  C   UNL     1       1.868  -2.634  11.289  0.00  0.00    +0.002 A 
ATOM     13  C   UNL     1       3.004  -3.118  10.667  0.00  0.00    +0.000 A 
ATOM     14  C   UNL     1       3.136  -3.041   9.297  0.00  0.00    +0.007 A 
ATOM     15  C   UNL     1       2.134  -2.478   8.512  0.00  0.00    -0.012 A 
ATOM     16  C   UNL     1       2.358  -2.474   7.022  0.00  0.00    +0.119 C 
ATOM     17  N   UNL     1       1.713  -1.338   6.352  0.00  0.00    -0.299 NA
ATOM     18  N   UNL     1      -1.386  -2.872   7.235  0.00  0.00    -0.373 N 
ATOM     19  H   UNL     1       2.242  -1.046   5.544  0.00  0.00    +0.123 HD
ATOM     20  H   UNL     1      -1.611  -3.354   6.423  0.00  0.00    +0.161 HD
ATOM     21  H   UNL     1      -0.403  -0.554   8.659  0.00  0.00    +0.153 HD
ENDROOT
BRANCH   1  27
ATOM     22  C   UNL     1       1.288   1.217  -0.156  0.00  0.00    +0.044 C 
ATOM     23  C   UNL     1       0.651  -0.146  -0.079  0.00  0.00    -0.049 A 
ATOM     24  C   UNL     1       0.066  -0.700  -1.204  0.00  0.00    +0.006 A 
ATOM     25  C   UNL     1      -0.521  -1.951  -1.141  0.00  0.00    -0.049 A 
ATOM     26  C   UNL     1      -0.528  -2.655   0.045  0.00  0.00    +0.016 A 
ATOM     27  C   UNL     1       0.060  -2.102   1.184  0.00  0.00    +0.037 A 
ATOM     28  C   UNL     1       0.656  -0.842   1.113  0.00  0.00    +0.016 A 
ATOM     29  C   UNL     1      -1.156  -2.546  -2.372  0.00  0.00    +0.044 C 
ENDBRANCH   1  27
BRANCH  18  30
ATOM     30  C   UNL     1      -2.150  -3.110   8.463  0.00  0.00    +0.141 C 
BRANCH  30  31
ATOM     31  C   UNL     1      -3.235  -4.154   8.194  0.00  0.00    +0.180 C 
BRANCH  31  32
ATOM     32  O   UNL     1      -2.623  -5.407   7.881  0.00  0.00    -0.381 OA
ATOM     33  C   UNL     1      -3.554  -6.457   7.612  0.00  0.00    +0.194 C 
ENDBRANCH  31  32
ENDBRANCH  30  31
ENDBRANCH  18  30
TORSDOF 4
