REMARK  Name = ZINC13064334
REMARK  11 active torsions:
REMARK  status: ('A' for Active; 'I' for Inactive)
REMARK    1  A    between atoms: C_1  and  C_2
REMARK    2  A    between atoms: C_2  and  C_3
REMARK    3  A    between atoms: C_3  and  C_5
REMARK    4  A    between atoms: C_3  and  N_70
REMARK    5  A    between atoms: N_9  and  C_10
REMARK    6  A    between atoms: C_10  and  C_11
REMARK    7  A    between atoms: C_18  and  C_19
REMARK    8  A    between atoms: C_18  and  N_70
REMARK    9  A    between atoms: C_24  and  O_31
REMARK   10  A    between atoms: O_31  and  C_32
REMARK   11  A    between atoms: C_33  and  N_70
REMARK                            x       y       z     vdW  Elec       q    Type
REMARK                         _______ _______ _______ _____ _____    ______ ____
ROOT
ATOM      1  N   UNL     1       2.604   1.054   9.027  0.00  0.00    +0.391 N 
ATOM      2  H   UNL     1       2.125   1.958   8.934  0.00  0.00    -0.080 HD
ENDROOT
BRANCH   1   3
ATOM      3  C   UNL     1       3.842   1.082   8.220  0.00  0.00    -0.067 C 
ATOM      4  C   UNL     1       4.672  -0.179   8.468  0.00  0.00    -0.015 C 
ATOM      5  C   UNL     1       5.948  -0.124   7.625  0.00  0.00    -0.002 C 
ATOM      6  C   UNL     1       6.764   1.110   8.014  0.00  0.00    -0.000 C 
ATOM      7  C   UNL     1       5.934   2.370   7.765  0.00  0.00    -0.002 C 
ATOM      8  C   UNL     1       4.659   2.316   8.609  0.00  0.00    -0.015 C 
ENDBRANCH   1   3
BRANCH   1   9
ATOM      9  C   UNL     1       2.934   0.831  10.450  0.00  0.00    +0.003 C 
BRANCH   9  10
ATOM     10  C   UNL     1       3.235  -0.625  10.700  0.00  0.00    +0.138 A 
ATOM     11  N   UNL     1       2.502  -1.649  10.336  0.00  0.00    -0.115 NA
ATOM     12  N   UNL     1       3.094  -2.722  10.731  0.00  0.00    -0.023 NA
ATOM     13  N   UNL     1       4.186  -2.410  11.337  0.00  0.00    -0.044 NA
ATOM     14  N   UNL     1       4.311  -1.126  11.333  0.00  0.00    -0.226 N 
BRANCH  14  15
ATOM     15  C   UNL     1       5.415  -0.357  11.914  0.00  0.00    +0.182 C 
BRANCH  15  16
ATOM     16  C   UNL     1       5.097  -0.026  13.349  0.00  0.00    -0.026 A 
ATOM     17  C   UNL     1       4.432   1.146  13.657  0.00  0.00    +0.008 A 
ATOM     18  C   UNL     1       4.136   1.448  14.972  0.00  0.00    +0.038 A 
ATOM     19  C   UNL     1       4.514   0.581  15.983  0.00  0.00    +0.123 A 
ATOM     20  C   UNL     1       5.185  -0.590  15.675  0.00  0.00    +0.038 A 
ATOM     21  C   UNL     1       5.476  -0.893  14.358  0.00  0.00    +0.008 A 
ATOM     22  F   UNL     1       4.229   0.878  17.270  0.00  0.00    -0.205 F 
ENDBRANCH  15  16
ENDBRANCH  14  15
ENDBRANCH   9  10
BRANCH   9  24
ATOM     23  C   UNL     1       1.520   2.765  11.157  0.00  0.00    +0.002 C 
ATOM     24  C   UNL     1       1.739   1.258  11.304  0.00  0.00    -0.011 C 
ENDBRANCH   9  24
ENDBRANCH   1   9
BRANCH   1  25
ATOM     25  C   UNL     1       1.708  -0.017   8.542  0.00  0.00    -0.036 C 
BRANCH  25  26
ATOM     26  C   UNL     1       1.092   0.422   7.239  0.00  0.00    +0.001 A 
ATOM     27  C   UNL     1       1.506  -0.138   6.073  0.00  0.00    +0.017 A 
ATOM     28  C   UNL     1       0.888   0.310   4.825  0.00  0.00    -0.001 A 
ATOM     29  C   UNL     1       1.275  -0.231   3.593  0.00  0.00    +0.013 A 
ATOM     30  C   UNL     1       0.677   0.201   2.446  0.00  0.00    +0.046 A 
ATOM     31  C   UNL     1      -0.309   1.186   2.489  0.00  0.00    +0.122 A 
ATOM     32  C   UNL     1      -0.705   1.734   3.696  0.00  0.00    +0.072 A 
ATOM     33  C   UNL     1      -0.112   1.302   4.876  0.00  0.00    +0.053 A 
ATOM     34  N   UNL     1      -0.486   1.830   6.093  0.00  0.00    -0.322 N 
ATOM     35  H   UNL     1      -1.175   2.513   6.126  0.00  0.00    +0.169 HD
ATOM     36  C   UNL     1       0.087   1.411   7.235  0.00  0.00    +0.251 A 
ATOM     37  O   UNL     1      -0.269   1.901   8.293  0.00  0.00    -0.268 OA
BRANCH  31  38
ATOM     38  O   UNL     1      -0.889   1.609   1.336  0.00  0.00    -0.495 OA
ATOM     39  C   UNL     1      -0.436   1.005   0.123  0.00  0.00    +0.277 C 
ENDBRANCH  31  38
ENDBRANCH  25  26
ENDBRANCH   1  25
TORSDOF 9
