REMARK  Name = ZINC32879982
REMARK  8 active torsions:
REMARK  status: ('A' for Active; 'I' for Inactive)
REMARK    1  A    between atoms: C_1  and  C_2
REMARK    2  A    between atoms: N_4  and  C_5
REMARK    3  A    between atoms: C_5  and  C_7
REMARK    4  A    between atoms: C_5  and  C_25
REMARK    5  A    between atoms: C_7  and  C_8
REMARK    6  A    between atoms: N_10  and  N_11
REMARK    7  A    between atoms: C_14  and  C_18
REMARK    8  A    between atoms: C_14  and  C_19
REMARK                            x       y       z     vdW  Elec       q    Type
REMARK                         _______ _______ _______ _____ _____    ______ ____
ROOT
ATOM      1  C   UNL     1       4.635   1.380  -0.681  0.00  0.00    +0.232 C 
ATOM      2  O   UNL     1       3.732   1.706  -1.421  0.00  0.00    -0.274 OA
ATOM      3  N   UNL     1       4.361   0.955   0.569  0.00  0.00    -0.224 N 
ATOM      4  H   UNL     1       5.180   0.659   1.241  0.00  0.00    +0.174 HD
ENDROOT
BRANCH   3   5
ATOM      5  N   UNL     1       3.034   0.890   1.012  0.00  0.00    -0.137 N 
ATOM      6  C   UNL     1       2.336  -0.255   1.147  0.00  0.00    +0.267 C 
ATOM      7  O   UNL     1       2.724  -1.381   0.917  0.00  0.00    -0.271 OA
ATOM      8  C   UNL     1       0.965   0.157   1.645  0.00  0.00    +0.137 C 
ATOM      9  N   UNL     1       1.058   1.624   1.742  0.00  0.00    -0.280 N 
ATOM     10  C   UNL     1       2.302   1.957   1.352  0.00  0.00    +0.327 C 
ATOM     11  O   UNL     1       2.715   3.099   1.313  0.00  0.00    -0.251 OA
ATOM     12  C   UNL     1       0.685  -0.457   3.019  0.00  0.00    +0.047 C 
ATOM     13  H   UNL     1       0.192   2.208   2.086  0.00  0.00    +0.152 HD
BRANCH   8  14
ATOM     14  C   UNL     1      -0.103  -0.243   0.660  0.00  0.00    -0.015 A 
ATOM     15  C   UNL     1       0.036  -1.404  -0.076  0.00  0.00    +0.006 A 
ATOM     16  C   UNL     1      -0.946  -1.773  -0.977  0.00  0.00    +0.000 A 
ATOM     17  C   UNL     1      -2.062  -0.976  -1.147  0.00  0.00    +0.000 A 
ATOM     18  C   UNL     1      -2.199   0.189  -0.414  0.00  0.00    +0.000 A 
ATOM     19  C   UNL     1      -1.219   0.555   0.489  0.00  0.00    +0.006 A 
ENDBRANCH   8  14
ENDBRANCH   3   5
BRANCH   1  20
ATOM     20  C   UNL     1       6.063   1.450  -1.157  0.00  0.00    +0.124 C 
BRANCH  20  21
ATOM     21  C   UNL     1       6.096   1.960  -2.599  0.00  0.00    +0.112 C 
BRANCH  21  22
ATOM     22  C   UNL     1       7.526   2.147  -3.034  0.00  0.00    -0.027 A 
ATOM     23  C   UNL     1       8.280   1.054  -3.416  0.00  0.00    +0.007 A 
ATOM     24  C   UNL     1       9.591   1.225  -3.820  0.00  0.00    +0.020 A 
ATOM     25  C   UNL     1      10.152   2.490  -3.831  0.00  0.00    +0.041 A 
ATOM     26  C   UNL     1       9.398   3.583  -3.443  0.00  0.00    +0.020 A 
ATOM     27  C   UNL     1       8.086   3.411  -3.045  0.00  0.00    +0.007 A 
ATOM     28 CL   UNL     1      11.800   2.705  -4.333  0.00  0.00    -0.084 Cl
ENDBRANCH  21  22
BRANCH  21  32
ATOM     29  C   UNL     1       4.123   0.411  -5.488  0.00  0.00    +0.109 C 
ATOM     30  C   UNL     1       4.892   1.390  -4.639  0.00  0.00    +0.210 C 
ATOM     31  O   UNL     1       5.018   2.540  -5.002  0.00  0.00    -0.276 OA
ATOM     32  N   UNL     1       5.441   0.987  -3.476  0.00  0.00    -0.308 N 
ATOM     33  H   UNL     1       5.399  -0.073  -3.186  0.00  0.00    +0.149 HD
ENDBRANCH  21  32
ENDBRANCH  20  21
ENDBRANCH   1  20
TORSDOF 6
