REMARK  Name = ZINC09222718
REMARK  7 active torsions:
REMARK  status: ('A' for Active; 'I' for Inactive)
REMARK    1  A    between atoms: C_4  and  C_7
REMARK    2  A    between atoms: C_7  and  C_8
REMARK    3  A    between atoms: C_8  and  C_10
REMARK    4  A    between atoms: C_8  and  N_20
REMARK    5  A    between atoms: C_21  and  C_23
REMARK    6  A    between atoms: N_26  and  S_29
REMARK    7  A    between atoms: S_29  and  C_32
REMARK                            x       y       z     vdW  Elec       q    Type
REMARK                         _______ _______ _______ _____ _____    ______ ____
ROOT
ATOM      1  N   UNL     1       1.500  -2.656  -2.184  0.00  0.00    -0.305 N 
ATOM      2  C   UNL     1       0.828  -1.999  -1.218  0.00  0.00    +0.217 C 
ATOM      3  O   UNL     1       0.219  -2.621  -0.373  0.00  0.00    -0.275 OA
ATOM      4  H   UNL     1       1.986  -2.158  -2.860  0.00  0.00    +0.149 HD
ENDROOT
BRANCH   2   5
ATOM      5  C   UNL     1       0.834  -0.492  -1.186  0.00  0.00    +0.077 C 
ATOM      6  C   UNL     1       0.002  -0.004   0.002  0.00  0.00    +0.030 C 
ATOM      7  C   UNL     1      -0.019   1.528   0.010  0.00  0.00    +0.110 C 
ATOM      8  N   UNL     1       1.366   2.019  -0.000  0.00  0.00    -0.177 NA
ATOM      9  C   UNL     1       2.277   1.541  -1.048  0.00  0.00    +0.110 C 
ATOM     10  C   UNL     1       2.272   0.009  -1.045  0.00  0.00    +0.030 C 
BRANCH   8  11
ATOM     11  S   UNL     1       1.889   3.092   1.148  0.00  0.00    +0.061 S 
ATOM     12  O   UNL     1       2.997   3.781   0.585  0.00  0.00    -0.153 OA
ATOM     13  O   UNL     1       0.735   3.768   1.628  0.00  0.00    -0.153 OA
BRANCH  11  14
ATOM     14  C   UNL     1       2.517   2.147   2.496  0.00  0.00    +0.105 A 
ATOM     15  C   UNL     1       1.677   1.774   3.529  0.00  0.00    +0.028 A 
ATOM     16  C   UNL     1       2.168   1.029   4.585  0.00  0.00    +0.002 A 
ATOM     17  C   UNL     1       3.502   0.664   4.612  0.00  0.00    +0.000 A 
ATOM     18  C   UNL     1       4.343   1.042   3.581  0.00  0.00    +0.002 A 
ATOM     19  C   UNL     1       3.850   1.783   2.523  0.00  0.00    +0.028 A 
ENDBRANCH  11  14
ENDBRANCH   8  11
ENDBRANCH   2   5
BRANCH   1  20
ATOM     20  C   UNL     1       1.494  -4.120  -2.215  0.00  0.00    +0.143 C 
BRANCH  20  21
ATOM     21  C   UNL     1       2.726  -4.612  -2.929  0.00  0.00    +0.129 A 
ATOM     22  N   UNL     1       3.734  -3.819  -3.381  0.00  0.00    -0.340 N 
ATOM     23  H   UNL     1       3.787  -2.823  -3.301  0.00  0.00    +0.167 HD
ATOM     24  C   UNL     1       4.672  -4.642  -3.973  0.00  0.00    +0.066 A 
ATOM     25  C   UNL     1       5.891  -4.425  -4.599  0.00  0.00    +0.028 A 
ATOM     26  C   UNL     1       6.601  -5.494  -5.102  0.00  0.00    +0.002 A 
ATOM     27  C   UNL     1       6.103  -6.785  -4.987  0.00  0.00    +0.002 A 
ATOM     28  C   UNL     1       4.905  -7.017  -4.374  0.00  0.00    +0.030 A 
ATOM     29  C   UNL     1       4.169  -5.949  -3.856  0.00  0.00    +0.089 A 
ATOM     30  N   UNL     1       2.978  -5.858  -3.209  0.00  0.00    -0.231 NA
ENDBRANCH  20  21
BRANCH  20  31
ATOM     31  C   UNL     1       0.247  -4.611  -2.952  0.00  0.00    +0.065 C 
BRANCH  31  35
ATOM     32  C   UNL     1      -3.239  -3.514  -0.740  0.00  0.00    +0.000 A 
ATOM     33  C   UNL     1      -2.729  -2.655  -1.696  0.00  0.00    +0.000 A 
ATOM     34  C   UNL     1      -1.600  -3.010  -2.412  0.00  0.00    +0.004 A 
ATOM     35  C   UNL     1      -0.983  -4.223  -2.171  0.00  0.00    -0.045 A 
ATOM     36  C   UNL     1      -1.497  -5.084  -1.220  0.00  0.00    +0.004 A 
ATOM     37  C   UNL     1      -2.622  -4.727  -0.500  0.00  0.00    +0.000 A 
ENDBRANCH  31  35
ENDBRANCH  20  31
ENDBRANCH   1  20
TORSDOF 7
