REMARK  Name = ZINC32827387
REMARK  9 active torsions:
REMARK  status: ('A' for Active; 'I' for Inactive)
REMARK    1  A    between atoms: C_1  and  C_2
REMARK    2  A    between atoms: C_3  and  C_15
REMARK    3  A    between atoms: C_10  and  C_14
REMARK    4  A    between atoms: N_12  and  C_13
REMARK    5  A    between atoms: C_15  and  C_16
REMARK    6  A    between atoms: C_16  and  C_17
REMARK    7  A    between atoms: N_19  and  C_20
REMARK    8  A    between atoms: C_20  and  C_22
REMARK    9  A    between atoms: C_20  and  C_23
REMARK                            x       y       z     vdW  Elec       q    Type
REMARK                         _______ _______ _______ _____ _____    ______ ____
ROOT
ATOM      1  C   UNL     1      -0.443   3.601   1.030  0.00  0.00    +0.214 C 
ATOM      2  O   UNL     1      -0.017   4.140   0.030  0.00  0.00    -0.276 OA
ATOM      3  N   UNL     1      -0.887   4.347   2.061  0.00  0.00    -0.309 N 
ATOM      4  H   UNL     1      -1.273   3.858   2.967  0.00  0.00    +0.149 HD
ENDROOT
BRANCH   3   5
ATOM      5  C   UNL     1      -0.856   5.809   1.974  0.00  0.00    +0.100 C 
ATOM      6  C   UNL     1      -2.116   6.305   1.263  0.00  0.00    +0.033 C 
BRANCH   5   7
ATOM      7  C   UNL     1      -0.799   6.393   3.362  0.00  0.00    -0.024 A 
ATOM      8  C   UNL     1      -1.556   5.836   4.375  0.00  0.00    +0.009 A 
ATOM      9  C   UNL     1      -1.504   6.363   5.653  0.00  0.00    +0.050 A 
ATOM     10  C   UNL     1      -0.700   7.460   5.911  0.00  0.00    +0.162 A 
ATOM     11  C   UNL     1       0.056   8.023   4.892  0.00  0.00    +0.162 A 
ATOM     12  C   UNL     1       0.006   7.490   3.616  0.00  0.00    +0.055 A 
ATOM     13  O   UNL     1       0.847   9.104   5.157  0.00  0.00    -0.488 OA
ATOM     14  C   UNL     1       0.161  10.320   5.463  0.00  0.00    +0.232 C 
ATOM     15  C   UNL     1      -0.213  10.373   6.936  0.00  0.00    +0.082 C 
ATOM     16  C   UNL     1      -1.215   9.295   7.318  0.00  0.00    +0.232 C 
ATOM     17  O   UNL     1      -0.643   7.994   7.166  0.00  0.00    -0.488 OA
ENDBRANCH   5   7
ENDBRANCH   3   5
BRANCH   1  18
ATOM     18  C   UNL     1      -0.475   2.097   1.119  0.00  0.00    +0.100 C 
BRANCH  18  19
ATOM     19  C   UNL     1       0.081   1.497  -0.174  0.00  0.00    +0.050 C 
BRANCH  19  22
ATOM     20  C   UNL     1      -2.165   0.037  -1.222  0.00  0.00    +0.045 C 
ATOM     21  C   UNL     1      -1.014  -0.694  -0.581  0.00  0.00    -0.030 A 
ATOM     22  C   UNL     1       0.049  -0.007  -0.085  0.00  0.00    +0.021 A 
ATOM     23  C   UNL     1       1.121  -0.699   0.506  0.00  0.00    +0.254 A 
ATOM     24  O   UNL     1       2.074  -0.075   0.943  0.00  0.00    -0.268 OA
ATOM     25  N   UNL     1       1.108  -2.042   0.600  0.00  0.00    -0.307 N 
ATOM     26  H   UNL     1       1.950  -2.569   1.073  0.00  0.00    +0.170 HD
ATOM     27  C   UNL     1       0.052  -2.764   0.111  0.00  0.00    +0.139 A 
ATOM     28  C   UNL     1      -1.024  -2.105  -0.487  0.00  0.00    +0.043 A 
ATOM     29  C   UNL     1      -1.948  -3.098  -0.889  0.00  0.00    +0.069 A 
ATOM     30  N   UNL     1      -1.462  -4.261  -0.558  0.00  0.00    -0.174 NA
ATOM     31  N   UNL     1      -0.220  -4.086   0.064  0.00  0.00    -0.251 N 
ATOM     32  C   UNL     1       0.638  -5.156   0.579  0.00  0.00    +0.174 C 
ATOM     33  C   UNL     1      -3.264  -2.854  -1.580  0.00  0.00    +0.068 C 
ENDBRANCH  19  22
ENDBRANCH  18  19
ENDBRANCH   1  18
TORSDOF 5
