REMARK  Name = ZINC04662683
REMARK  5 active torsions:
REMARK  status: ('A' for Active; 'I' for Inactive)
REMARK    1  A    between atoms: C_1  and  C_2
REMARK    2  A    between atoms: C_4  and  N_20
REMARK    3  A    between atoms: C_7  and  N_8
REMARK    4  A    between atoms: N_8  and  S_9
REMARK    5  A    between atoms: S_9  and  C_12
REMARK                            x       y       z     vdW  Elec       q    Type
REMARK                         _______ _______ _______ _____ _____    ______ ____
ROOT
ATOM      1  N   UNL     1      -0.682   1.944   1.433  0.00  0.00    -0.216 N 
ATOM      2  H   UNL     1      -0.303   2.714   1.887  0.00  0.00    +0.174 HD
ENDROOT
BRANCH   1   9
ATOM      3  C   UNL     1      -2.658   3.615   2.616  0.00  0.00    +0.046 C 
ATOM      4  C   UNL     1      -2.833   2.121   2.514  0.00  0.00    -0.026 A 
ATOM      5  C   UNL     1      -3.981   1.525   2.997  0.00  0.00    +0.038 A 
ATOM      6  C   UNL     1      -4.140   0.154   2.908  0.00  0.00    +0.127 A 
ATOM      7  C   UNL     1      -3.152  -0.624   2.331  0.00  0.00    +0.034 A 
ATOM      8  C   UNL     1      -2.005  -0.033   1.841  0.00  0.00    +0.027 A 
ATOM      9  C   UNL     1      -1.842   1.344   1.928  0.00  0.00    +0.051 A 
BRANCH   6  10
ATOM     10  N   UNL     1      -5.369  -0.483   3.433  0.00  0.00    +0.056 N 
ATOM     11  O   UNL     1      -5.510  -1.690   3.356  0.00  0.00    -0.126 OA
ATOM     12  O   UNL     1      -6.239   0.201   3.942  0.00  0.00    -0.126 OA
ENDBRANCH   6  10
ENDBRANCH   1   9
BRANCH   1  13
ATOM     13  S   UNL     1       0.046   1.343   0.073  0.00  0.00    +0.074 S 
ATOM     14  O   UNL     1       1.163   2.180  -0.194  0.00  0.00    -0.150 OA
ATOM     15  O   UNL     1      -0.987   1.126  -0.878  0.00  0.00    -0.150 OA
BRANCH  13  16
ATOM     16  C   UNL     1       0.692  -0.243   0.485  0.00  0.00    +0.128 A 
ATOM     17  C   UNL     1       0.205  -1.373  -0.145  0.00  0.00    +0.050 A 
ATOM     18  C   UNL     1       0.712  -2.619   0.179  0.00  0.00    +0.043 A 
ATOM     19  C   UNL     1       1.707  -2.733   1.134  0.00  0.00    +0.021 A 
ATOM     20  C   UNL     1       2.194  -1.604   1.764  0.00  0.00    +0.023 A 
ATOM     21  C   UNL     1       1.690  -0.357   1.436  0.00  0.00    +0.068 A 
ATOM     22 CL   UNL     1       2.307   1.062   2.222  0.00  0.00    -0.082 Cl
ATOM     23 CL   UNL     1       0.101  -4.037  -0.613  0.00  0.00    -0.083 Cl
ENDBRANCH  13  16
ENDBRANCH   1  13
TORSDOF 4
