REMARK  Name = ZINC40057033
REMARK  5 active torsions:
REMARK  status: ('A' for Active; 'I' for Inactive)
REMARK    1  A    between atoms: C_1  and  C_2
REMARK    2  A    between atoms: C_5  and  C_9
REMARK    3  A    between atoms: C_6  and  C_8
REMARK    4  A    between atoms: C_11  and  C_14
REMARK    5  A    between atoms: C_14  and  N_15
REMARK                            x       y       z     vdW  Elec       q    Type
REMARK                         _______ _______ _______ _____ _____    ______ ____
ROOT
ATOM      1  N   UNL     1      -0.333  -8.095  -1.442  0.00  0.00    -0.218 N 
ATOM      2  C   UNL     1      -1.018  -8.980  -0.685  0.00  0.00    +0.251 C 
ATOM      3  O   UNL     1      -0.685  -9.449   0.382  0.00  0.00    -0.272 OA
ATOM      4  C   UNL     1      -2.285  -9.258  -1.451  0.00  0.00    +0.138 C 
ATOM      5  C   UNL     1      -3.525  -8.883  -0.628  0.00  0.00    +0.045 C 
ATOM      6  C   UNL     1      -3.920 -10.239  -0.001  0.00  0.00    +0.038 C 
ATOM      7  C   UNL     1      -3.370 -11.289  -0.943  0.00  0.00    -0.042 A 
ATOM      8  C   UNL     1      -2.425 -10.719  -1.780  0.00  0.00    -0.012 A 
ATOM      9  C   UNL     1      -1.788 -11.502  -2.728  0.00  0.00    +0.006 A 
ATOM     10  C   UNL     1      -2.091 -12.845  -2.842  0.00  0.00    +0.000 A 
ATOM     11  C   UNL     1      -3.034 -13.412  -2.007  0.00  0.00    +0.000 A 
ATOM     12  C   UNL     1      -3.672 -12.635  -1.060  0.00  0.00    +0.004 A 
ATOM     13  N   UNL     1      -2.175  -8.436  -2.657  0.00  0.00    -0.281 N 
ATOM     14  C   UNL     1      -0.999  -7.784  -2.561  0.00  0.00    +0.310 C 
ATOM     15  O   UNL     1      -0.588  -7.005  -3.398  0.00  0.00    -0.252 OA
ATOM     16  H   UNL     1      -2.821  -8.371  -3.378  0.00  0.00    +0.152 HD
ENDROOT
BRANCH   1  17
ATOM     17  C   UNL     1       0.974  -7.540  -1.080  0.00  0.00    +0.176 C 
BRANCH  17  20
ATOM     18  C   UNL     1       0.459  -4.208   0.227  0.00  0.00    +0.228 A 
ATOM     19  N   UNL     1       0.589  -5.048  -0.773  0.00  0.00    -0.212 NA
ATOM     20  C   UNL     1       0.780  -6.280  -0.277  0.00  0.00    +0.098 A 
ATOM     21  C   UNL     1       0.766  -6.190   1.066  0.00  0.00    +0.222 A 
ATOM     22  O   UNL     1       0.571  -4.893   1.378  0.00  0.00    -0.443 OA
BRANCH  18  27
ATOM     23  C   UNL     1      -0.419   1.460  -0.240  0.00  0.00    +0.044 C 
ATOM     24  C   UNL     1      -0.189  -0.025  -0.118  0.00  0.00    -0.050 A 
ATOM     25  C   UNL     1       0.790  -0.635  -0.881  0.00  0.00    +0.004 A 
ATOM     26  C   UNL     1       1.006  -1.993  -0.774  0.00  0.00    +0.014 A 
ATOM     27  C   UNL     1       0.234  -2.752   0.107  0.00  0.00    +0.040 A 
ATOM     28  C   UNL     1      -0.752  -2.130   0.874  0.00  0.00    -0.038 A 
ATOM     29  C   UNL     1      -0.954  -0.770   0.761  0.00  0.00    +0.007 A 
ATOM     30  C   UNL     1      -1.591  -2.942   1.827  0.00  0.00    +0.044 C 
ENDBRANCH  18  27
ENDBRANCH  17  20
ENDBRANCH   1  17
TORSDOF 3
