REMARK  Name = ZINC38664264
REMARK  6 active torsions:
REMARK  status: ('A' for Active; 'I' for Inactive)
REMARK    1  A    between atoms: C_1  and  C_2
REMARK    2  A    between atoms: N_4  and  C_5
REMARK    3  A    between atoms: C_5  and  C_6
REMARK    4  A    between atoms: C_6  and  C_7
REMARK    5  A    between atoms: C_15  and  C_17
REMARK    6  A    between atoms: N_24  and  C_27
REMARK                            x       y       z     vdW  Elec       q    Type
REMARK                         _______ _______ _______ _____ _____    ______ ____
ROOT
ATOM      1  C   UNL     1      -3.094  -5.786   0.421  0.00  0.00    -0.033 C 
ATOM      2  C   UNL     1      -2.098  -6.689   0.283  0.00  0.00    -0.000 A 
ATOM      3  C   UNL     1      -0.663  -6.642   0.590  0.00  0.00    +0.010 A 
ATOM      4  C   UNL     1       0.099  -7.730   0.334  0.00  0.00    +0.001 A 
ATOM      5  C   UNL     1      -0.446  -8.899  -0.214  0.00  0.00    +0.002 A 
ATOM      6  C   UNL     1      -1.755  -9.018  -0.522  0.00  0.00    +0.026 A 
ATOM      7  C   UNL     1      -2.649  -7.936  -0.295  0.00  0.00    +0.043 A 
ATOM      8  N   UNL     1      -3.936  -7.807  -0.506  0.00  0.00    -0.374 N 
ATOM      9  C   UNL     1      -4.349  -6.465  -0.080  0.00  0.00    +0.130 C 
ATOM     10  H   UNL     1      -4.519  -8.487  -0.879  0.00  0.00    +0.161 HD
ENDROOT
BRANCH   9  11
ATOM     11  C   UNL     1      -4.920  -5.705  -1.248  0.00  0.00    +0.020 C 
ATOM     12  C   UNL     1      -6.070  -5.008  -1.104  0.00  0.00    +0.100 C 
ATOM     13  C   UNL     1      -6.760  -4.402  -2.264  0.00  0.00    +0.276 C 
ATOM     14  O   UNL     1      -6.257  -4.529  -3.509  0.00  0.00    -0.268 OA
ATOM     15  N   UNL     1      -7.878  -3.736  -2.052  0.00  0.00    -0.123 NA
ATOM     16  C   UNL     1      -8.399  -3.594  -0.833  0.00  0.00    +0.340 C 
ATOM     17  O   UNL     1      -9.434  -2.964  -0.722  0.00  0.00    -0.250 OA
ATOM     18  N   UNL     1      -7.848  -4.106   0.277  0.00  0.00    -0.188 N 
ATOM     19  C   UNL     1      -6.703  -4.819   0.224  0.00  0.00    +0.263 C 
ATOM     20  O   UNL     1      -6.206  -5.287   1.230  0.00  0.00    -0.269 OA
BRANCH  18  21
ATOM     21  C   UNL     1      -8.475  -3.901   1.514  0.00  0.00    +0.046 A 
ATOM     22  C   UNL     1      -8.121  -2.813   2.301  0.00  0.00    +0.025 A 
ATOM     23  C   UNL     1      -8.741  -2.613   3.519  0.00  0.00    +0.022 A 
ATOM     24  C   UNL     1      -9.714  -3.495   3.955  0.00  0.00    +0.041 A 
ATOM     25  C   UNL     1     -10.068  -4.580   3.172  0.00  0.00    +0.022 A 
ATOM     26  C   UNL     1      -9.456  -4.781   1.951  0.00  0.00    +0.025 A 
ATOM     27 CL   UNL     1     -10.490  -3.241   5.487  0.00  0.00    -0.084 Cl
ENDBRANCH  18  21
ENDBRANCH   9  11
BRANCH   1  28
ATOM     28  C   UNL     1      -2.979  -4.387   0.970  0.00  0.00    +0.052 C 
BRANCH  28  29
ATOM     29  C   UNL     1      -1.526  -4.109   1.359  0.00  0.00    +0.108 C 
BRANCH  29  33
ATOM     30  C   UNL     1      -0.103  -0.883   2.850  0.00  0.00    +0.109 C 
ATOM     31  C   UNL     1      -0.218  -2.282   2.301  0.00  0.00    +0.210 C 
ATOM     32  O   UNL     1       0.766  -2.988   2.229  0.00  0.00    -0.276 OA
ATOM     33  N   UNL     1      -1.414  -2.749   1.892  0.00  0.00    -0.315 N 
ATOM     34  H   UNL     1      -2.201  -2.185   1.950  0.00  0.00    +0.149 HD
ENDBRANCH  29  33
ENDBRANCH  28  29
ENDBRANCH   1  28
TORSDOF 5
