REMARK  Name = ZINC32104411
REMARK  4 active torsions:
REMARK  status: ('A' for Active; 'I' for Inactive)
REMARK    1  A    between atoms: C_1  and  C_2
REMARK    2  A    between atoms: N_8  and  C_28
REMARK    3  A    between atoms: N_20  and  C_21
REMARK    4  A    between atoms: C_28  and  C_29
REMARK                            x       y       z     vdW  Elec       q    Type
REMARK                         _______ _______ _______ _____ _____    ______ ____
ROOT
ATOM      1  C   UNL     1      -0.193   1.538   0.055  0.00  0.00    +0.045 C 
ATOM      2  C   UNL     1      -0.073   0.036   0.010  0.00  0.00    -0.029 A 
ATOM      3  C   UNL     1      -0.206  -0.663  -1.179  0.00  0.00    +0.005 A 
ATOM      4  C   UNL     1      -0.098  -2.038  -1.234  0.00  0.00    +0.001 A 
ATOM      5  C   UNL     1       0.151  -2.791  -0.091  0.00  0.00    +0.007 A 
ATOM      6  C   UNL     1       0.284  -2.103   1.095  0.00  0.00    -0.006 A 
ATOM      7  C   UNL     1       0.182  -0.707   1.163  0.00  0.00    +0.044 A 
ATOM      8  N   UNL     1       0.361  -0.275   2.466  0.00  0.00    -0.266 N 
ATOM      9  C   UNL     1       0.589  -1.301   3.312  0.00  0.00    +0.236 C 
ATOM     10  O   UNL     1       0.780  -1.221   4.508  0.00  0.00    -0.274 OA
ATOM     11  C   UNL     1       0.548  -2.570   2.490  0.00  0.00    +0.112 C 
ATOM     12  C   UNL     1       1.893  -3.288   2.588  0.00  0.00    +0.122 C 
ATOM     13  C   UNL     1       1.786  -4.712   2.116  0.00  0.00    +0.220 C 
ATOM     14  O   UNL     1       2.709  -5.196   1.496  0.00  0.00    -0.275 OA
ATOM     15  N   UNL     1       0.696  -5.469   2.362  0.00  0.00    -0.270 N 
ATOM     16  C   UNL     1      -0.434  -4.851   2.897  0.00  0.00    +0.133 A 
ATOM     17  C   UNL     1      -0.541  -3.486   2.976  0.00  0.00    +0.032 A 
ATOM     18  C   UNL     1      -1.766  -3.186   3.552  0.00  0.00    +0.141 A 
ATOM     19  N   UNL     1      -2.390  -4.313   3.804  0.00  0.00    -0.173 NA
ATOM     20  N   UNL     1      -1.573  -5.378   3.391  0.00  0.00    -0.217 N 
ATOM     21  H   UNL     1       0.698  -6.420   2.172  0.00  0.00    +0.156 HD
ENDROOT
BRANCH  20  22
ATOM     22  C   UNL     1      -1.884  -6.742   3.476  0.00  0.00    +0.086 A 
ATOM     23  C   UNL     1      -0.961  -7.635   4.002  0.00  0.00    +0.029 A 
ATOM     24  C   UNL     1      -1.270  -8.979   4.085  0.00  0.00    +0.002 A 
ATOM     25  C   UNL     1      -2.499  -9.435   3.644  0.00  0.00    +0.002 A 
ATOM     26  C   UNL     1      -3.422  -8.549   3.120  0.00  0.00    +0.022 A 
ATOM     27  C   UNL     1      -3.120  -7.202   3.039  0.00  0.00    +0.066 A 
ATOM     28 CL   UNL     1      -4.281  -6.089   2.386  0.00  0.00    -0.081 Cl
ENDBRANCH  20  22
BRANCH   8  29
ATOM     29  C   UNL     1       0.310   1.131   2.876  0.00  0.00    +0.140 C 
BRANCH  29  30
ATOM     30  C   UNL     1      -1.111   1.507   3.204  0.00  0.00    -0.015 C 
ATOM     31  C   UNL     1      -1.399   2.022   4.374  0.00  0.00    +0.005 C 
ENDBRANCH  29  30
ENDBRANCH   8  29
TORSDOF 3
