REMARK  Name = ZINC02771485
REMARK  5 active torsions:
REMARK  status: ('A' for Active; 'I' for Inactive)
REMARK    1  A    between atoms: C_4  and  C_7
REMARK    2  A    between atoms: C_8  and  C_22
REMARK    3  A    between atoms: C_9  and  C_15
REMARK    4  A    between atoms: C_20  and  O_21
REMARK    5  A    between atoms: C_22  and  C_24
REMARK                            x       y       z     vdW  Elec       q    Type
REMARK                         _______ _______ _______ _____ _____    ______ ____
ROOT
ATOM      1  C   UNL     1      -3.686   4.162   2.145  0.00  0.00    +0.049 C 
ATOM      2  C   UNL     1      -2.611   4.400   1.333  0.00  0.00    +0.046 C 
ATOM      3  C   UNL     1      -2.611   3.755  -0.038  0.00  0.00    +0.142 C 
ATOM      4  N   UNL     1      -3.774   2.922  -0.385  0.00  0.00    -0.315 N 
ATOM      5  C   UNL     1      -4.761   2.779   0.519  0.00  0.00    +0.135 C 
ATOM      6  S   UNL     1      -6.114   1.810   0.118  0.00  0.00    -0.019 S 
ATOM      7  N   UNL     1      -4.722   3.366   1.722  0.00  0.00    -0.296 N 
ATOM      8  H   UNL     1      -3.829   2.484  -1.249  0.00  0.00    +0.149 HD
ATOM      9  H   UNL     1      -5.466   3.222   2.327  0.00  0.00    +0.154 HD
ENDROOT
BRANCH   1  13
ATOM     10  C   UNL     1      -3.821   5.903   6.015  0.00  0.00    +0.000 A 
ATOM     11  C   UNL     1      -3.524   6.690   4.916  0.00  0.00    +0.001 A 
ATOM     12  C   UNL     1      -3.479   6.131   3.656  0.00  0.00    +0.010 A 
ATOM     13  C   UNL     1      -3.733   4.768   3.490  0.00  0.00    -0.003 A 
ATOM     14  C   UNL     1      -4.037   3.981   4.604  0.00  0.00    +0.010 A 
ATOM     15  C   UNL     1      -4.073   4.552   5.859  0.00  0.00    +0.001 A 
ENDBRANCH   1  13
BRANCH   3  16
ATOM     16  C   UNL     1      -1.376   2.898  -0.148  0.00  0.00    +0.019 A 
ATOM     17  C   UNL     1      -1.433   1.558   0.183  0.00  0.00    +0.009 A 
ATOM     18  C   UNL     1      -0.299   0.773   0.087  0.00  0.00    +0.001 A 
ATOM     19  C   UNL     1       0.891   1.323  -0.351  0.00  0.00    +0.004 A 
ATOM     20  C   UNL     1       0.952   2.661  -0.689  0.00  0.00    +0.046 A 
ATOM     21  C   UNL     1      -0.183   3.453  -0.588  0.00  0.00    +0.122 A 
BRANCH  21  22
ATOM     22  O   UNL     1      -0.126   4.769  -0.921  0.00  0.00    -0.506 OA
ATOM     23  H   UNL     1      -0.248   4.942  -1.864  0.00  0.00    +0.292 HD
ENDBRANCH  21  22
ENDBRANCH   3  16
BRANCH   2  24
ATOM     24  C   UNL     1      -1.543   5.215   1.756  0.00  0.00    +0.193 C 
ATOM     25  O   UNL     1      -1.448   6.358   1.346  0.00  0.00    -0.287 OA
BRANCH  24  26
ATOM     26  C   UNL     1      -0.534   4.681   2.700  0.00  0.00    +0.022 A 
ATOM     27  C   UNL     1      -0.698   3.412   3.257  0.00  0.00    +0.012 A 
ATOM     28  C   UNL     1       0.249   2.918   4.130  0.00  0.00    +0.001 A 
ATOM     29  C   UNL     1       1.352   3.683   4.464  0.00  0.00    +0.000 A 
ATOM     30  C   UNL     1       1.517   4.945   3.920  0.00  0.00    +0.001 A 
ATOM     31  C   UNL     1       0.581   5.448   3.040  0.00  0.00    +0.012 A 
ENDBRANCH  24  26
ENDBRANCH   2  24
TORSDOF 5
