REMARK  Name = ZINC67419115
REMARK  12 active torsions:
REMARK  status: ('A' for Active; 'I' for Inactive)
REMARK    1  A    between atoms: C_1  and  C_2
REMARK    2  A    between atoms: C_2  and  C_3
REMARK    3  A    between atoms: C_2  and  C_4
REMARK    4  A    between atoms: C_4  and  N_5
REMARK    5  A    between atoms: C_6  and  N_29
REMARK    6  A    between atoms: C_7  and  C_14
REMARK    7  A    between atoms: N_10  and  C_13
REMARK    8  A    between atoms: C_14  and  C_16
REMARK    9  A    between atoms: C_16  and  N_17
REMARK   10  A    between atoms: C_21  and  C_24
REMARK   11  A    between atoms: C_24  and  N_25
REMARK   12  A    between atoms: C_26  and  C_28
REMARK                            x       y       z     vdW  Elec       q    Type
REMARK                         _______ _______ _______ _____ _____    ______ ____
ROOT
ATOM      1  N   UNL     1      -1.424  -2.008  -0.003  0.00  0.00    -0.281 N 
ATOM      2  C   UNL     1      -1.470  -2.466  -1.289  0.00  0.00    +0.116 A 
ATOM      3  C   UNL     1      -1.445  -3.852  -1.519  0.00  0.00    +0.118 A 
ATOM      4  C   UNL     1      -1.369  -4.740  -0.352  0.00  0.00    +0.269 A 
ATOM      5  O   UNL     1      -1.344  -5.949  -0.491  0.00  0.00    -0.267 OA
ATOM      6  N   UNL     1      -1.329  -4.188   0.879  0.00  0.00    -0.263 N 
ATOM      7  C   UNL     1      -1.351  -2.854   1.036  0.00  0.00    +0.333 A 
ATOM      8  O   UNL     1      -1.308  -2.397   2.162  0.00  0.00    -0.246 OA
ATOM      9  C   UNL     1      -1.253  -5.054   2.058  0.00  0.00    +0.157 C 
ENDROOT
BRANCH   2  10
ATOM     10  N   UNL     1      -1.540  -1.593  -2.331  0.00  0.00    -0.344 N 
ATOM     11  H   UNL     1      -1.637  -0.643  -2.162  0.00  0.00    +0.144 HD
ATOM     12  H   UNL     1      -1.493  -1.922  -3.243  0.00  0.00    +0.144 HD
ENDBRANCH   2  10
BRANCH   3  13
ATOM     13  C   UNL     1      -1.490  -4.374  -2.829  0.00  0.00    +0.155 C 
ATOM     14  O   UNL     1      -1.446  -3.624  -3.784  0.00  0.00    -0.294 OA
BRANCH  13  15
ATOM     15  C   UNL     1      -1.595  -5.862  -3.044  0.00  0.00    +0.002 C 
BRANCH  15  16
ATOM     16  N   UNL     1      -1.625  -6.148  -4.485  0.00  0.00    +0.385 N 
ATOM     17  C   UNL     1      -0.348  -5.748  -5.088  0.00  0.00    -0.078 C 
ATOM     18  C   UNL     1      -0.404  -5.968  -6.602  0.00  0.00    -0.018 C 
ATOM     19  C   UNL     1      -0.664  -7.450  -6.888  0.00  0.00    +0.001 C 
ATOM     20  C   UNL     1      -1.960  -7.874  -6.191  0.00  0.00    -0.011 C 
ATOM     21  C   UNL     1      -1.847  -7.584  -4.693  0.00  0.00    -0.073 C 
ATOM     22  H   UNL     1      -2.375  -5.627  -4.914  0.00  0.00    -0.081 HD
BRANCH  20  23
ATOM     23  C   UNL     1      -2.189  -9.372  -6.406  0.00  0.00    +0.105 C 
BRANCH  23  24
ATOM     24  N   UNL     1      -2.411  -9.632  -7.831  0.00  0.00    -0.315 N 
ATOM     25  C   UNL     1      -2.636 -10.890  -8.258  0.00  0.00    +0.210 C 
ATOM     26  O   UNL     1      -2.654 -11.807  -7.464  0.00  0.00    -0.276 OA
ATOM     27  C   UNL     1      -2.865 -11.158  -9.724  0.00  0.00    +0.109 C 
ATOM     28  H   UNL     1      -2.397  -8.899  -8.466  0.00  0.00    +0.149 HD
ENDBRANCH  23  24
ENDBRANCH  20  23
ENDBRANCH  15  16
ENDBRANCH  13  15
ENDBRANCH   3  13
BRANCH   1  29
ATOM     29  C   UNL     1      -1.450  -0.565   0.247  0.00  0.00    +0.131 C 
BRANCH  29  31
ATOM     30  C   UNL     1      -0.050   1.499   0.399  0.00  0.00    +0.009 C 
ATOM     31  C   UNL     1      -0.018  -0.025   0.263  0.00  0.00    +0.003 C 
ATOM     32  C   UNL     1       0.741  -0.627   1.446  0.00  0.00    +0.009 C 
ENDBRANCH  29  31
ENDBRANCH   1  29
TORSDOF 8
