REMARK  Name = ZINC14472662
REMARK  3 active torsions:
REMARK  status: ('A' for Active; 'I' for Inactive)
REMARK    1  A    between atoms: C_5  and  C_7
REMARK    2  A    between atoms: C_11  and  C_20
REMARK    3  A    between atoms: C_22  and  N_27
REMARK                            x       y       z     vdW  Elec       q    Type
REMARK                         _______ _______ _______ _____ _____    ______ ____
ROOT
ATOM      1  C   UNL     1       1.108   5.503  -1.839  0.00  0.00    +0.001 A 
ATOM      2  C   UNL     1       1.020   4.464  -0.931  0.00  0.00    +0.006 A 
ATOM      3  C   UNL     1       1.565   3.220  -1.213  0.00  0.00    -0.019 A 
ATOM      4  C   UNL     1       2.208   3.017  -2.422  0.00  0.00    +0.044 A 
ATOM      5  C   UNL     1       2.299   4.073  -3.349  0.00  0.00    +0.058 A 
ATOM      6  C   UNL     1       1.744   5.317  -3.047  0.00  0.00    +0.015 A 
ATOM      7  N   UNL     1       2.777   1.800  -2.764  0.00  0.00    -0.336 N 
ATOM      8  C   UNL     1       2.140   0.676  -2.076  0.00  0.00    +0.106 C 
ATOM      9  C   UNL     1       2.239   0.885  -0.563  0.00  0.00    +0.029 C 
ATOM     10  C   UNL     1       1.427   2.140  -0.179  0.00  0.00    +0.049 C 
ATOM     11  C   UNL     1      -0.001   1.649  -0.111  0.00  0.00    -0.023 C 
ATOM     12  C   UNL     1      -0.031   0.350   0.052  0.00  0.00    -0.030 C 
ATOM     13  C   UNL     1       1.375  -0.210   0.125  0.00  0.00    +0.033 C 
ATOM     14  H   UNL     1       3.772   1.807  -2.601  0.00  0.00    +0.147 HD
ENDROOT
BRANCH   8  15
ATOM     15  C   UNL     1       0.690   0.596  -2.479  0.00  0.00    -0.007 A 
ATOM     16  C   UNL     1      -0.011   1.752  -2.770  0.00  0.00    +0.039 A 
ATOM     17  C   UNL     1      -1.339   1.678  -3.145  0.00  0.00    +0.127 A 
ATOM     18  C   UNL     1      -1.970   0.450  -3.219  0.00  0.00    +0.034 A 
ATOM     19  C   UNL     1      -1.272  -0.705  -2.923  0.00  0.00    +0.022 A 
ATOM     20  C   UNL     1       0.059  -0.632  -2.553  0.00  0.00    +0.046 A 
ATOM     21 CL   UNL     1       0.938  -2.083  -2.181  0.00  0.00    -0.083 Cl
BRANCH  17  22
ATOM     22  N   UNL     1      -2.088   2.915  -3.462  0.00  0.00    +0.056 N 
ATOM     23  O   UNL     1      -3.260   2.850  -3.787  0.00  0.00    -0.126 OA
ATOM     24  O   UNL     1      -1.533   3.997  -3.397  0.00  0.00    -0.126 OA
ENDBRANCH  17  22
ENDBRANCH   8  15
BRANCH   5  25
ATOM     25  C   UNL     1       2.981   3.864  -4.640  0.00  0.00    +0.243 C 
ATOM     26  O   UNL     1       3.465   2.780  -4.903  0.00  0.00    -0.270 OA
ATOM     27  N   UNL     1       3.067   4.875  -5.527  0.00  0.00    -0.325 N 
ATOM     28  H   UNL     1       2.681   5.739  -5.317  0.00  0.00    +0.145 HD
ATOM     29  H   UNL     1       3.516   4.738  -6.376  0.00  0.00    +0.145 HD
ENDBRANCH   5  25
TORSDOF 3
