REMARK  Name = ZINC64735041
REMARK  7 active torsions:
REMARK  status: ('A' for Active; 'I' for Inactive)
REMARK    1  A    between atoms: C_1  and  N_2
REMARK    2  A    between atoms: N_7  and  C_10
REMARK    3  A    between atoms: C_10  and  C_11
REMARK    4  A    between atoms: N_13  and  C_14
REMARK    5  A    between atoms: C_14  and  C_15
REMARK    6  A    between atoms: C_15  and  C_17
REMARK    7  A    between atoms: C_15  and  C_22
REMARK                            x       y       z     vdW  Elec       q    Type
REMARK                         _______ _______ _______ _____ _____    ______ ____
ROOT
ATOM      1  C   UNL     1      -4.492  -4.054   1.423  0.00  0.00    +0.233 C 
ATOM      2  O   UNL     1      -3.909  -3.524   2.345  0.00  0.00    -0.274 OA
ATOM      3  N   UNL     1      -5.461  -4.957   1.668  0.00  0.00    -0.313 N 
ATOM      4  H   UNL     1      -5.927  -5.382   0.931  0.00  0.00    +0.149 HD
ENDROOT
BRANCH   1   5
ATOM      5  C   UNL     1      -4.131  -3.704   0.002  0.00  0.00    +0.221 C 
BRANCH   5  12
ATOM      6  C   UNL     1      -0.018   1.461   0.010  0.00  0.00    +0.151 C 
ATOM      7  N   UNL     1       0.002  -0.004   0.002  0.00  0.00    -0.253 N 
ATOM      8  C   UNL     1      -1.127  -0.789   0.003  0.00  0.00    +0.146 A 
ATOM      9  C   UNL     1      -0.771  -2.127  -0.007  0.00  0.00    +0.073 A 
ATOM     10  C   UNL     1      -1.766  -3.104  -0.007  0.00  0.00    +0.261 A 
ATOM     11  O   UNL     1      -1.476  -4.290  -0.015  0.00  0.00    -0.267 OA
ATOM     12  N   UNL     1      -3.058  -2.707   0.002  0.00  0.00    -0.290 N 
ATOM     13  C   UNL     1      -3.357  -1.393   0.012  0.00  0.00    +0.204 A 
ATOM     14  N   UNL     1      -2.436  -0.471   0.012  0.00  0.00    -0.221 NA
ATOM     15  C   UNL     1       0.736  -2.170  -0.015  0.00  0.00    +0.146 C 
ATOM     16  N   UNL     1       1.142  -0.751  -0.013  0.00  0.00    -0.235 NA
ATOM     17  H   UNL     1       1.721  -0.543   0.786  0.00  0.00    +0.145 HD
ENDBRANCH   5  12
ENDBRANCH   1   5
BRANCH   3  18
ATOM     18  C   UNL     1      -5.812  -5.298   3.049  0.00  0.00    +0.117 C 
BRANCH  18  19
ATOM     19  C   UNL     1      -6.933  -6.339   3.049  0.00  0.00    +0.071 C 
BRANCH  19  20
ATOM     20  C   UNL     1      -7.210  -6.781   4.463  0.00  0.00    -0.032 C 
ATOM     21  C   UNL     1      -7.104  -8.035   4.959  0.00  0.00    -0.000 A 
ATOM     22  C   UNL     1      -6.717  -9.314   4.353  0.00  0.00    +0.010 A 
ATOM     23  C   UNL     1      -6.707 -10.428   5.120  0.00  0.00    +0.001 A 
ATOM     24  C   UNL     1      -7.057 -10.390   6.477  0.00  0.00    +0.002 A 
ATOM     25  C   UNL     1      -7.424  -9.253   7.105  0.00  0.00    +0.026 A 
ATOM     26  C   UNL     1      -7.469  -8.022   6.393  0.00  0.00    +0.043 A 
ATOM     27  N   UNL     1      -7.787  -6.807   6.770  0.00  0.00    -0.380 N 
ATOM     28  C   UNL     1      -7.654  -5.910   5.617  0.00  0.00    +0.145 C 
ATOM     29  H   UNL     1      -8.060  -6.545   7.663  0.00  0.00    +0.160 HD
ENDBRANCH  19  20
BRANCH  19  30
ATOM     30  C   UNL     1      -8.181  -5.734   2.459  0.00  0.00    -0.002 A 
ATOM     31  C   UNL     1      -8.888  -6.126   1.371  0.00  0.00    +0.012 A 
ATOM     32  C   UNL     1     -10.015  -5.412   1.010  0.00  0.00    +0.008 A 
ATOM     33  C   UNL     1     -10.380  -4.340   1.756  0.00  0.00    +0.045 A 
ATOM     34  S   UNL     1      -9.115  -4.318   3.016  0.00  0.00    -0.101 S 
ENDBRANCH  19  30
ENDBRANCH  18  19
ENDBRANCH   3  18
TORSDOF 6
