REMARK  Name = ZINC13425042
REMARK  8 active torsions:
REMARK  status: ('A' for Active; 'I' for Inactive)
REMARK    1  A    between atoms: C_1  and  C_2
REMARK    2  A    between atoms: C_5  and  S_8
REMARK    3  A    between atoms: S_8  and  O_11
REMARK    4  A    between atoms: O_11  and  C_12
REMARK    5  A    between atoms: C_14  and  O_36
REMARK    6  A    between atoms: C_22  and  C_25
REMARK    7  A    between atoms: C_32  and  O_34
REMARK    8  A    between atoms: O_34  and  C_35
REMARK                            x       y       z     vdW  Elec       q    Type
REMARK                         _______ _______ _______ _____ _____    ______ ____
ROOT
ATOM      1  C   UNL     1       1.822  -0.406  -1.306  0.00  0.00    +0.236 C 
ATOM      2  C   UNL     1       1.395   1.037  -1.590  0.00  0.00    +0.182 C 
ATOM      3  C   UNL     1       0.337   1.460  -0.566  0.00  0.00    +0.184 C 
ATOM      4  C   UNL     1      -0.837   0.476  -0.615  0.00  0.00    +0.178 C 
ATOM      5  C   UNL     1      -1.505   0.566  -1.990  0.00  0.00    +0.197 C 
ATOM      6  O   UNL     1      -1.864   1.928  -2.243  0.00  0.00    -0.345 OA
ATOM      7  C   UNL     1      -0.760   2.835  -2.192  0.00  0.00    +0.282 C 
ATOM      8  O   UNL     1      -0.143   2.766  -0.904  0.00  0.00    -0.339 OA
ATOM      9  O   UNL     1      -0.368  -0.852  -0.391  0.00  0.00    -0.340 OA
ATOM     10  C   UNL     1       0.587  -1.311  -1.350  0.00  0.00    +0.284 C 
ENDROOT
BRANCH   7  11
ATOM     11  C   UNL     1      -1.251   4.238  -2.439  0.00  0.00    +0.008 A 
ATOM     12  C   UNL     1      -1.070   5.213  -1.476  0.00  0.00    +0.008 A 
ATOM     13  C   UNL     1      -1.516   6.501  -1.704  0.00  0.00    +0.000 A 
ATOM     14  C   UNL     1      -2.151   6.812  -2.892  0.00  0.00    +0.000 A 
ATOM     15  C   UNL     1      -2.337   5.836  -3.853  0.00  0.00    +0.000 A 
ATOM     16  C   UNL     1      -1.886   4.549  -3.627  0.00  0.00    +0.008 A 
ENDBRANCH   7  11
BRANCH  10  17
ATOM     17  O   UNL     1       0.967  -2.653  -1.039  0.00  0.00    -0.352 OA
ATOM     18  C   UNL     1      -0.053  -3.620  -1.296  0.00  0.00    +0.197 C 
ENDBRANCH  10  17
BRANCH   2  19
ATOM     19  O   UNL     1       2.530   1.899  -1.489  0.00  0.00    -0.386 OA
ATOM     20  H   UNL     1       3.205   1.741  -2.163  0.00  0.00    +0.210 HD
ENDBRANCH   2  19
BRANCH   1  21
ATOM     21  O   UNL     1       2.761  -0.831  -2.296  0.00  0.00    -0.223 OA
BRANCH  21  22
ATOM     22  S   UNL     1       4.192  -0.931  -1.789  0.00  0.00    +0.112 S 
ATOM     23  O   UNL     1       5.013  -1.148  -2.929  0.00  0.00    -0.142 OA
ATOM     24  O   UNL     1       4.389   0.165  -0.906  0.00  0.00    -0.142 OA
BRANCH  22  29
ATOM     25  C   UNL     1       4.550  -5.931   1.569  0.00  0.00    +0.044 C 
ATOM     26  C   UNL     1       4.460  -4.683   0.730  0.00  0.00    -0.050 A 
ATOM     27  C   UNL     1       4.631  -4.756  -0.639  0.00  0.00    +0.005 A 
ATOM     28  C   UNL     1       4.549  -3.611  -1.409  0.00  0.00    +0.030 A 
ATOM     29  C   UNL     1       4.296  -2.392  -0.808  0.00  0.00    +0.117 A 
ATOM     30  C   UNL     1       4.131  -2.317   0.562  0.00  0.00    +0.030 A 
ATOM     31  C   UNL     1       4.207  -3.463   1.331  0.00  0.00    +0.005 A 
ENDBRANCH  22  29
ENDBRANCH  21  22
ENDBRANCH   1  21
TORSDOF 6
