REMARK  Name = ZINC28582034
REMARK  10 active torsions:
REMARK  status: ('A' for Active; 'I' for Inactive)
REMARK    1  A    between atoms: C_1  and  C_2
REMARK    2  A    between atoms: C_2  and  C_3
REMARK    3  A    between atoms: C_2  and  N_4
REMARK    4  A    between atoms: N_7  and  C_8
REMARK    5  A    between atoms: C_8  and  C_9
REMARK    6  A    between atoms: C_12  and  C_15
REMARK    7  A    between atoms: N_17  and  C_18
REMARK    8  A    between atoms: C_18  and  C_19
REMARK    9  A    between atoms: C_19  and  N_20
REMARK   10  A    between atoms: C_24  and  C_25
REMARK                            x       y       z     vdW  Elec       q    Type
REMARK                         _______ _______ _______ _____ _____    ______ ____
ROOT
ATOM      1  C   UNL     1      -4.100   2.603   4.391  0.00  0.00    +0.244 C 
ATOM      2  O   UNL     1      -5.135   2.149   4.839  0.00  0.00    -0.270 OA
ATOM      3  N   UNL     1      -3.477   3.615   5.027  0.00  0.00    -0.310 N 
ATOM      4  H   UNL     1      -2.541   4.026   4.622  0.00  0.00    +0.149 HD
ENDROOT
BRANCH   1   8
ATOM      5  C   UNL     1      -2.448   1.002   0.820  0.00  0.00    -0.030 A 
ATOM      6  C   UNL     1      -1.803   2.037   1.474  0.00  0.00    +0.006 A 
ATOM      7  C   UNL     1      -2.337   2.565   2.631  0.00  0.00    +0.013 A 
ATOM      8  C   UNL     1      -3.525   2.045   3.148  0.00  0.00    +0.037 A 
ATOM      9  C   UNL     1      -4.168   0.998   2.487  0.00  0.00    +0.013 A 
ATOM     10  C   UNL     1      -3.626   0.482   1.327  0.00  0.00    +0.006 A 
BRANCH   5  11
ATOM     11  C   UNL     1      -1.863   0.434  -0.447  0.00  0.00    +0.141 C 
BRANCH  11  15
ATOM     12  N   UNL     1      -2.500   1.497  -3.909  0.00  0.00    -0.297 N 
ATOM     13  C   UNL     1      -2.010   0.826  -2.848  0.00  0.00    +0.300 C 
ATOM     14  O   UNL     1      -1.219  -0.082  -3.015  0.00  0.00    -0.253 OA
ATOM     15  N   UNL     1      -2.396   1.163  -1.601  0.00  0.00    -0.295 N 
ATOM     16  H   UNL     1      -3.216   2.318  -3.758  0.00  0.00    +0.150 HD
ATOM     17  H   UNL     1      -3.111   1.984  -1.450  0.00  0.00    +0.151 HD
BRANCH  12  19
ATOM     18  C   UNL     1      -2.950  -0.020  -5.774  0.00  0.00    +0.027 C 
ATOM     19  C   UNL     1      -2.081   1.131  -5.264  0.00  0.00    +0.068 C 
ATOM     20  C   UNL     1      -2.238   2.339  -6.190  0.00  0.00    +0.027 C 
ENDBRANCH  12  19
ENDBRANCH  11  15
ENDBRANCH   5  11
ENDBRANCH   1   8
BRANCH   3  21
ATOM     21  C   UNL     1      -4.047   4.167   6.258  0.00  0.00    +0.124 C 
BRANCH  21  22
ATOM     22  C   UNL     1      -3.151   5.296   6.773  0.00  0.00    +0.136 C 
BRANCH  22  23
ATOM     23  N   UNL     1      -3.721   5.848   8.005  0.00  0.00    -0.227 N 
ATOM     24  C   UNL     1      -4.572   6.858   7.926  0.00  0.00    +0.260 C 
ATOM     25  O   UNL     1      -4.896   7.340   6.857  0.00  0.00    -0.269 OA
ATOM     26  C   UNL     1      -5.114   7.366   9.204  0.00  0.00    +0.080 C 
ATOM     27  C   UNL     1      -5.994   8.373   9.431  0.00  0.00    +0.028 C 
ATOM     28  S   UNL     1      -4.287   6.292  10.370  0.00  0.00    -0.026 S 
ATOM     29  C   UNL     1      -3.362   5.320   9.192  0.00  0.00    +0.286 C 
ATOM     30  O   UNL     1      -2.594   4.402   9.408  0.00  0.00    -0.262 OA
BRANCH  27  31
ATOM     31  C   UNL     1      -6.518   8.600  10.785  0.00  0.00    -0.024 A 
ATOM     32  C   UNL     1      -6.258   7.677  11.804  0.00  0.00    +0.008 A 
ATOM     33  C   UNL     1      -6.749   7.900  13.073  0.00  0.00    +0.001 A 
ATOM     34  C   UNL     1      -7.506   9.028  13.338  0.00  0.00    +0.000 A 
ATOM     35  C   UNL     1      -7.772   9.943  12.334  0.00  0.00    +0.001 A 
ATOM     36  C   UNL     1      -7.285   9.738  11.061  0.00  0.00    +0.008 A 
ENDBRANCH  27  31
ENDBRANCH  22  23
ENDBRANCH  21  22
ENDBRANCH   3  21
TORSDOF 8
