REMARK  Name = ZINC23701049
REMARK  10 active torsions:
REMARK  status: ('A' for Active; 'I' for Inactive)
REMARK    1  A    between atoms: C_1  and  C_2
REMARK    2  A    between atoms: C_2  and  C_27
REMARK    3  A    between atoms: N_5  and  N_9
REMARK    4  A    between atoms: C_10  and  C_12
REMARK    5  A    between atoms: C_12  and  N_13
REMARK    6  A    between atoms: N_13  and  C_14
REMARK    7  A    between atoms: C_14  and  C_15
REMARK    8  A    between atoms: C_14  and  C_21
REMARK    9  A    between atoms: C_27  and  C_28
REMARK   10  A    between atoms: C_28  and  C_29
REMARK                            x       y       z     vdW  Elec       q    Type
REMARK                         _______ _______ _______ _____ _____    ______ ____
ROOT
ATOM      1  N   UNL     1       4.229   1.799  -4.517  0.00  0.00    -0.225 N 
ATOM      2  C   UNL     1       4.217   2.036  -3.190  0.00  0.00    +0.213 C 
ATOM      3  O   UNL     1       4.992   2.837  -2.710  0.00  0.00    -0.276 OA
ATOM      4  H   UNL     1       3.526   1.073  -4.952  0.00  0.00    +0.173 HD
ENDROOT
BRANCH   1   9
ATOM      5  C   UNL     1       6.983   2.617  -8.157  0.00  0.00    +0.041 C 
ATOM      6  C   UNL     1       6.908   3.012  -6.681  0.00  0.00    +0.112 C 
ATOM      7  C   UNL     1       6.243   1.917  -5.870  0.00  0.00    +0.263 C 
ATOM      8  O   UNL     1       6.627   0.777  -5.725  0.00  0.00    -0.271 OA
ATOM      9  N   UNL     1       5.136   2.477  -5.341  0.00  0.00    -0.137 N 
ATOM     10  C   UNL     1       5.008   3.758  -5.706  0.00  0.00    +0.326 C 
ATOM     11  O   UNL     1       4.088   4.471  -5.358  0.00  0.00    -0.251 OA
ATOM     12  N   UNL     1       6.015   4.169  -6.498  0.00  0.00    -0.284 N 
ATOM     13  H   UNL     1       6.253   5.129  -6.980  0.00  0.00    +0.151 HD
BRANCH   6  14
ATOM     14  C   UNL     1       8.305   3.314  -6.134  0.00  0.00    +0.040 C 
BRANCH  14  15
ATOM     15  C   UNL     1       8.902   4.503  -6.890  0.00  0.00    +0.038 C 
BRANCH  15  16
ATOM     16  C   UNL     1      10.278   4.800  -6.352  0.00  0.00    -0.047 A 
ATOM     17  C   UNL     1      10.433   5.690  -5.305  0.00  0.00    +0.003 A 
ATOM     18  C   UNL     1      11.695   5.959  -4.808  0.00  0.00    +0.000 A 
ATOM     19  C   UNL     1      12.802   5.346  -5.364  0.00  0.00    +0.000 A 
ATOM     20  C   UNL     1      12.647   4.460  -6.414  0.00  0.00    +0.000 A 
ATOM     21  C   UNL     1      11.385   4.187  -6.908  0.00  0.00    +0.003 A 
ENDBRANCH  15  16
ENDBRANCH  14  15
ENDBRANCH   6  14
ENDBRANCH   1   9
BRANCH   2  22
ATOM     22  C   UNL     1       3.241   1.307  -2.303  0.00  0.00    +0.018 C 
BRANCH  22  23
ATOM     23  N   UNL     1       3.427   1.739  -0.911  0.00  0.00    +0.392 N 
ATOM     24  H   UNL     1       4.455   1.511  -0.591  0.00  0.00    -0.084 HD
ATOM     25  H   UNL     1       3.252   2.822  -0.837  0.00  0.00    -0.084 HD
BRANCH  23  26
ATOM     26  C   UNL     1       2.490   1.048  -0.016  0.00  0.00    -0.009 C 
BRANCH  26  27
ATOM     27  C   UNL     1       1.175   1.783   0.000  0.00  0.00    -0.057 A 
ATOM     28  C   UNL     1      -0.013   1.076   0.008  0.00  0.00    +0.002 A 
ATOM     29  C   UNL     1      -1.219   1.751   0.017  0.00  0.00    +0.000 A 
ATOM     30  C   UNL     1      -1.238   3.133   0.029  0.00  0.00    +0.000 A 
ATOM     31  C   UNL     1      -0.050   3.840   0.022  0.00  0.00    +0.000 A 
ATOM     32  C   UNL     1       1.156   3.165   0.008  0.00  0.00    +0.002 A 
ENDBRANCH  26  27
BRANCH  26  33
ATOM     33  C   UNL     1       3.062   1.011   1.378  0.00  0.00    -0.057 A 
ATOM     34  C   UNL     1       3.730   2.112   1.881  0.00  0.00    +0.002 A 
ATOM     35  C   UNL     1       4.250   2.079   3.161  0.00  0.00    +0.000 A 
ATOM     36  C   UNL     1       4.112   0.942   3.935  0.00  0.00    +0.000 A 
ATOM     37  C   UNL     1       3.449  -0.161   3.430  0.00  0.00    +0.000 A 
ATOM     38  C   UNL     1       2.924  -0.127   2.152  0.00  0.00    +0.002 A 
ENDBRANCH  26  33
ENDBRANCH  23  26
ENDBRANCH  22  23
ENDBRANCH   2  22
TORSDOF 9
