REMARK  Name = ZINC35646598
REMARK  12 active torsions:
REMARK  status: ('A' for Active; 'I' for Inactive)
REMARK    1  A    between atoms: C_1  and  C_2
REMARK    2  A    between atoms: C_2  and  N_3
REMARK    3  A    between atoms: C_4  and  C_24
REMARK    4  A    between atoms: C_5  and  C_19
REMARK    5  A    between atoms: C_6  and  C_11
REMARK    6  A    between atoms: C_14  and  C_18
REMARK    7  A    between atoms: C_16  and  C_17
REMARK    8  A    between atoms: C_19  and  O_21
REMARK    9  A    between atoms: O_21  and  C_22
REMARK   10  A    between atoms: C_22  and  C_23
REMARK   11  A    between atoms: C_24  and  N_25
REMARK   12  A    between atoms: C_32  and  C_34
REMARK                            x       y       z     vdW  Elec       q    Type
REMARK                         _______ _______ _______ _____ _____    ______ ____
ROOT
ATOM      1  N   UNL     1      -1.450  -0.316  -0.285  0.00  0.00    -0.261 N 
ATOM      2  C   UNL     1      -1.870  -0.907   0.873  0.00  0.00    +0.010 C 
ATOM      3  C   UNL     1      -3.003  -1.641   0.909  0.00  0.00    +0.076 C 
ATOM      4  C   UNL     1      -3.792  -1.784  -0.376  0.00  0.00    +0.144 C 
ATOM      5  N   UNL     1      -3.255  -1.107  -1.568  0.00  0.00    -0.288 N 
ATOM      6  C   UNL     1      -2.111  -0.405  -1.446  0.00  0.00    +0.307 C 
ATOM      7  O   UNL     1      -1.661   0.161  -2.423  0.00  0.00    -0.252 OA
ATOM      8  H   UNL     1      -3.715  -1.162  -2.420  0.00  0.00    +0.151 HD
ENDROOT
BRANCH   4   9
ATOM      9  C   UNL     1      -3.906  -3.254  -0.690  0.00  0.00    -0.020 A 
ATOM     10  C   UNL     1      -3.035  -4.155  -0.106  0.00  0.00    +0.006 A 
ATOM     11  C   UNL     1      -3.140  -5.503  -0.394  0.00  0.00    +0.004 A 
ATOM     12  C   UNL     1      -4.116  -5.950  -1.264  0.00  0.00    -0.050 A 
ATOM     13  C   UNL     1      -4.988  -5.050  -1.847  0.00  0.00    +0.007 A 
ATOM     14  C   UNL     1      -4.886  -3.702  -1.556  0.00  0.00    -0.045 A 
ATOM     15  C   UNL     1      -5.840  -2.720  -2.187  0.00  0.00    +0.044 C 
ATOM     16  C   UNL     1      -4.230  -7.420  -1.579  0.00  0.00    +0.044 C 
ENDBRANCH   4   9
BRANCH   1  18
ATOM     17  C   UNL     1      -0.545   1.939  -0.007  0.00  0.00    +0.025 C 
ATOM     18  C   UNL     1      -0.212   0.466  -0.252  0.00  0.00    +0.111 C 
ENDBRANCH   1  18
BRANCH   3  19
ATOM     19  C   UNL     1      -3.438  -2.255   2.107  0.00  0.00    +0.339 C 
ATOM     20  O   UNL     1      -2.826  -2.071   3.143  0.00  0.00    -0.245 OA
BRANCH  19  21
ATOM     21  O   UNL     1      -4.531  -3.046   2.102  0.00  0.00    -0.462 OA
BRANCH  21  22
ATOM     22  C   UNL     1      -4.978  -3.544   3.364  0.00  0.00    +0.229 C 
ATOM     23  C   UNL     1      -6.143  -4.512   3.147  0.00  0.00    +0.048 C 
ENDBRANCH  21  22
ENDBRANCH  19  21
ENDBRANCH   3  19
BRANCH   2  24
ATOM     24  C   UNL     1      -1.054  -0.739   2.129  0.00  0.00    -0.026 C 
BRANCH  24  25
ATOM     25  N   UNL     1      -0.227  -1.935   2.339  0.00  0.00    +0.384 N 
ATOM     26  C   UNL     1       0.346  -1.868   3.682  0.00  0.00    -0.077 C 
ATOM     27  C   UNL     1       0.563  -3.272   4.202  0.00  0.00    +0.000 C 
ATOM     28  C   UNL     1       2.001  -3.720   3.885  0.00  0.00    +0.106 C 
ATOM     29  N   UNL     1       2.412  -3.270   2.539  0.00  0.00    -0.297 N 
ATOM     30  C   UNL     1       1.523  -3.329   1.397  0.00  0.00    +0.089 C 
ATOM     31  C   UNL     1       0.717  -2.014   1.292  0.00  0.00    -0.059 C 
ATOM     32  C   UNL     1       3.659  -2.788   2.368  0.00  0.00    +0.282 C 
ATOM     33  O   UNL     1       4.456  -2.823   3.287  0.00  0.00    -0.267 OA
ATOM     34  H   UNL     1      -0.825  -2.746   2.291  0.00  0.00    -0.081 HD
BRANCH  32  35
ATOM     35  C   UNL     1       4.055  -2.222   1.075  0.00  0.00    +0.189 A 
ATOM     36  C   UNL     1       5.311  -1.811   0.729  0.00  0.00    +0.054 A 
ATOM     37  C   UNL     1       5.233  -1.343  -0.592  0.00  0.00    +0.042 A 
ATOM     38  C   UNL     1       3.950  -1.486  -0.990  0.00  0.00    +0.196 A 
ATOM     39  O   UNL     1       3.244  -2.021   0.015  0.00  0.00    -0.458 OA
ENDBRANCH  32  35
ENDBRANCH  24  25
ENDBRANCH   2  24
TORSDOF 8
