REMARK  Name = ZINC66176885
REMARK  5 active torsions:
REMARK  status: ('A' for Active; 'I' for Inactive)
REMARK    1  A    between atoms: N_4  and  C_6
REMARK    2  A    between atoms: N_14  and  C_15
REMARK    3  A    between atoms: C_15  and  C_16
REMARK    4  A    between atoms: C_16  and  C_18
REMARK    5  A    between atoms: C_16  and  N_24
REMARK                            x       y       z     vdW  Elec       q    Type
REMARK                         _______ _______ _______ _____ _____    ______ ____
ROOT
ATOM      1  C   UNL     1       1.994  -1.763  -0.067  0.00  0.00    -0.049 C 
ATOM      2  C   UNL     1       1.797  -2.946  -1.052  0.00  0.00    +0.005 C 
ATOM      3  C   UNL     1       2.449  -4.129  -0.306  0.00  0.00    +0.108 C 
ATOM      4  N   UNL     1       3.394  -3.563   0.668  0.00  0.00    -0.287 N 
ATOM      5  C   UNL     1       3.378  -2.094   0.545  0.00  0.00    +0.094 C 
ATOM      6  C   UNL     1       4.149  -4.271   1.531  0.00  0.00    +0.302 C 
ATOM      7  O   UNL     1       4.900  -3.695   2.296  0.00  0.00    -0.253 OA
ATOM      8  N   UNL     1       4.073  -5.616   1.548  0.00  0.00    -0.298 N 
ATOM      9  H   UNL     1       3.474  -6.075   0.939  0.00  0.00    +0.150 HD
ENDROOT
BRANCH   1  13
ATOM     10  C   UNL     1       0.490   1.328  -1.290  0.00  0.00    -0.020 C 
ATOM     11  C   UNL     1       1.752   1.873  -0.583  0.00  0.00    -0.020 C 
ATOM     12  C   UNL     1       2.294   0.630   0.165  0.00  0.00    -0.078 C 
ATOM     13  N   UNL     1       2.029  -0.481  -0.784  0.00  0.00    +0.383 N 
ATOM     14  C   UNL     1       0.706  -0.194  -1.380  0.00  0.00    -0.078 C 
ATOM     15  H   UNL     1       2.737  -0.502  -1.503  0.00  0.00    -0.081 HD
ENDBRANCH   1  13
BRANCH   8  16
ATOM     16  C   UNL     1       4.894  -6.385   2.487  0.00  0.00    +0.125 C 
BRANCH  16  17
ATOM     17  C   UNL     1       4.484  -7.858   2.435  0.00  0.00    +0.079 C 
BRANCH  17  18
ATOM     18  N   UNL     1       3.125  -8.007   2.974  0.00  0.00    -0.293 NA
ATOM     19  C   UNL     1       2.119  -7.863   1.912  0.00  0.00    +0.113 C 
ATOM     20  C   UNL     1       0.724  -8.084   2.504  0.00  0.00    +0.175 C 
ATOM     21  O   UNL     1       0.516  -7.162   3.577  0.00  0.00    -0.377 OA
ATOM     22  C   UNL     1       1.478  -7.275   4.629  0.00  0.00    +0.175 C 
ATOM     23  C   UNL     1       2.880  -7.046   4.058  0.00  0.00    +0.113 C 
ENDBRANCH  17  18
BRANCH  17  24
ATOM     24  C   UNL     1       5.458  -8.689   3.272  0.00  0.00    +0.035 C 
ATOM     25  C   UNL     1       6.851  -8.734   2.596  0.00  0.00    +0.035 C 
ATOM     26  C   UNL     1       7.274 -10.208   2.824  0.00  0.00    +0.160 C 
ATOM     27  O   UNL     1       6.038 -10.940   2.677  0.00  0.00    -0.379 OA
ATOM     28  C   UNL     1       5.009 -10.162   3.319  0.00  0.00    +0.165 C 
ENDBRANCH  17  24
ENDBRANCH  16  17
ENDBRANCH   8  16
TORSDOF 5
