REMARK  Name = ZINC20995546
REMARK  7 active torsions:
REMARK  status: ('A' for Active; 'I' for Inactive)
REMARK    1  A    between atoms: C_1  and  C_2
REMARK    2  A    between atoms: C_2  and  N_3
REMARK    3  A    between atoms: C_5  and  C_9
REMARK    4  A    between atoms: C_6  and  C_8
REMARK    5  A    between atoms: C_9  and  N_10
REMARK    6  A    between atoms: C_23  and  C_25
REMARK    7  A    between atoms: C_29  and  O_31
REMARK                            x       y       z     vdW  Elec       q    Type
REMARK                         _______ _______ _______ _____ _____    ______ ____
ROOT
ATOM      1  N   UNL     1       4.340  -0.948  -3.585  0.00  0.00    -0.286 NA
ATOM      2  C   UNL     1       3.794   0.037  -4.530  0.00  0.00    +0.090 C 
ATOM      3  C   UNL     1       4.688   1.284  -4.542  0.00  0.00    +0.053 C 
ATOM      4  C   UNL     1       6.118   0.830  -4.700  0.00  0.00    -0.016 A 
ATOM      5  C   UNL     1       7.286   1.596  -5.073  0.00  0.00    +0.003 A 
ATOM      6  C   UNL     1       7.477   2.944  -5.394  0.00  0.00    +0.010 A 
ATOM      7  C   UNL     1       8.756   3.333  -5.706  0.00  0.00    +0.001 A 
ATOM      8  C   UNL     1       9.817   2.442  -5.707  0.00  0.00    +0.002 A 
ATOM      9  C   UNL     1       9.657   1.103  -5.394  0.00  0.00    +0.026 A 
ATOM     10  C   UNL     1       8.369   0.679  -5.072  0.00  0.00    +0.047 A 
ATOM     11  N   UNL     1       7.869  -0.543  -4.723  0.00  0.00    -0.356 N 
ATOM     12  H   UNL     1       8.390  -1.357  -4.644  0.00  0.00    +0.166 HD
ATOM     13  C   UNL     1       6.522  -0.445  -4.502  0.00  0.00    +0.042 A 
ATOM     14  C   UNL     1       5.580  -1.553  -4.096  0.00  0.00    +0.135 C 
ENDROOT
BRANCH  14  15
ATOM     15  C   UNL     1       6.217  -2.390  -3.016  0.00  0.00    -0.021 A 
ATOM     16  C   UNL     1       6.220  -1.943  -1.708  0.00  0.00    +0.006 A 
ATOM     17  C   UNL     1       6.804  -2.707  -0.715  0.00  0.00    +0.004 A 
ATOM     18  C   UNL     1       7.387  -3.921  -1.028  0.00  0.00    +0.045 A 
ATOM     19  C   UNL     1       7.385  -4.371  -2.340  0.00  0.00    +0.117 A 
ATOM     20  C   UNL     1       6.792  -3.604  -3.334  0.00  0.00    +0.051 A 
BRANCH  19  21
ATOM     21  O   UNL     1       7.957  -5.564  -2.651  0.00  0.00    -0.507 OA
ATOM     22  H   UNL     1       7.351  -6.316  -2.600  0.00  0.00    +0.292 HD
ENDBRANCH  19  21
ENDBRANCH  14  15
BRANCH   1  23
ATOM     23  C   UNL     1       3.343  -1.978  -3.264  0.00  0.00    +0.124 C 
BRANCH  23  26
ATOM     24  N   UNL     1       0.262  -0.497  -1.997  0.00  0.00    -0.271 N 
ATOM     25  C   UNL     1       0.993  -1.024  -3.001  0.00  0.00    +0.113 A 
ATOM     26  C   UNL     1       2.205  -1.356  -2.498  0.00  0.00    +0.007 A 
ATOM     27  C   UNL     1       2.214  -1.020  -1.140  0.00  0.00    +0.064 A 
ATOM     28  N   UNL     1       1.052  -0.499  -0.840  0.00  0.00    -0.176 NA
ATOM     29  C   UNL     1       3.366  -1.217  -0.189  0.00  0.00    +0.068 C 
BRANCH  24  31
ATOM     30  C   UNL     1      -1.987  -0.705  -1.059  0.00  0.00    +0.029 C 
ATOM     31  C   UNL     1      -1.114  -0.003  -2.100  0.00  0.00    +0.140 C 
ENDBRANCH  24  31
ENDBRANCH  23  26
ENDBRANCH   1  23
TORSDOF 5
