REMARK  Name = ZINC35894521
REMARK  8 active torsions:
REMARK  status: ('A' for Active; 'I' for Inactive)
REMARK    1  A    between atoms: C_1  and  C_2
REMARK    2  A    between atoms: C_2  and  C_3
REMARK    3  A    between atoms: C_6  and  C_9
REMARK    4  A    between atoms: C_13  and  C_24
REMARK    5  A    between atoms: N_16  and  C_17
REMARK    6  A    between atoms: C_17  and  C_18
REMARK    7  A    between atoms: N_26  and  C_27
REMARK    8  A    between atoms: C_27  and  C_28
REMARK                            x       y       z     vdW  Elec       q    Type
REMARK                         _______ _______ _______ _____ _____    ______ ____
ROOT
ATOM      1  C   UNL     1       2.707  -1.868  -4.752  0.00  0.00    -0.037 C 
ATOM      2  C   UNL     1       2.942  -3.377  -4.645  0.00  0.00    -0.010 C 
ATOM      3  C   UNL     1       3.658  -3.867  -5.907  0.00  0.00    +0.009 C 
ATOM      4  C   UNL     1       4.965  -3.086  -6.076  0.00  0.00    +0.058 C 
ATOM      5  C   UNL     1       4.655  -1.589  -6.130  0.00  0.00    -0.065 C 
ATOM      6  N   UNL     1       3.995  -1.177  -4.885  0.00  0.00    +0.387 N 
ATOM      7  H   UNL     1       4.584  -1.412  -4.099  0.00  0.00    -0.080 HD
ENDROOT
BRANCH   1  11
ATOM      8  C   UNL     1       0.707  -0.490  -1.238  0.00  0.00    -0.048 A 
ATOM      9  C   UNL     1      -0.011  -0.719  -2.397  0.00  0.00    +0.004 A 
ATOM     10  C   UNL     1       0.636  -1.164  -3.534  0.00  0.00    +0.002 A 
ATOM     11  C   UNL     1       2.002  -1.381  -3.513  0.00  0.00    -0.061 A 
ATOM     12  C   UNL     1       2.720  -1.152  -2.354  0.00  0.00    +0.002 A 
ATOM     13  C   UNL     1       2.073  -0.702  -1.218  0.00  0.00    +0.004 A 
BRANCH   8  15
ATOM     14  C   UNL     1      -0.019   1.526   0.010  0.00  0.00    +0.009 C 
ATOM     15  C   UNL     1       0.002  -0.004   0.002  0.00  0.00    +0.032 C 
ENDBRANCH   8  15
ENDBRANCH   1  11
BRANCH   4  16
ATOM     16  C   UNL     1       5.875  -3.371  -4.909  0.00  0.00    +0.215 C 
ATOM     17  O   UNL     1       6.244  -2.465  -4.193  0.00  0.00    -0.276 OA
ATOM     18  N   UNL     1       6.280  -4.633  -4.662  0.00  0.00    -0.311 N 
ATOM     19  H   UNL     1       5.985  -5.357  -5.236  0.00  0.00    +0.149 HD
BRANCH  18  20
ATOM     20  C   UNL     1       7.165  -4.910  -3.529  0.00  0.00    +0.139 C 
BRANCH  20  21
ATOM     21  C   UNL     1       7.465  -6.385  -3.474  0.00  0.00    -0.027 A 
ATOM     22  C   UNL     1       6.645  -7.230  -2.750  0.00  0.00    +0.009 A 
ATOM     23  C   UNL     1       6.915  -8.584  -2.697  0.00  0.00    +0.050 A 
ATOM     24  C   UNL     1       8.011  -9.099  -3.371  0.00  0.00    +0.166 A 
ATOM     25  C   UNL     1       8.838  -8.248  -4.100  0.00  0.00    +0.167 A 
ATOM     26  C   UNL     1       8.557  -6.893  -4.153  0.00  0.00    +0.054 A 
ATOM     27  O   UNL     1       9.836  -8.988  -4.665  0.00  0.00    -0.453 OA
ATOM     28  C   UNL     1       9.848 -10.233  -3.942  0.00  0.00    +0.466 C 
ATOM     29  O   UNL     1       8.492 -10.372  -3.479  0.00  0.00    -0.453 OA
ENDBRANCH  20  21
ENDBRANCH  18  20
ENDBRANCH   4  16
BRANCH   6  30
ATOM     30  C   UNL     1       3.771   0.274  -4.908  0.00  0.00    -0.042 C 
BRANCH  30  31
ATOM     31  C   UNL     1       5.098   0.988  -4.920  0.00  0.00    -0.064 A 
ATOM     32  C   UNL     1       5.710   1.329  -3.729  0.00  0.00    +0.002 A 
ATOM     33  C   UNL     1       6.928   1.984  -3.740  0.00  0.00    +0.000 A 
ATOM     34  C   UNL     1       7.533   2.296  -4.943  0.00  0.00    +0.000 A 
ATOM     35  C   UNL     1       6.922   1.954  -6.134  0.00  0.00    +0.000 A 
ATOM     36  C   UNL     1       5.706   1.295  -6.123  0.00  0.00    +0.002 A 
ENDBRANCH  30  31
ENDBRANCH   6  30
TORSDOF 7
