REMARK  Name = ZINC04150007
REMARK  11 active torsions:
REMARK  status: ('A' for Active; 'I' for Inactive)
REMARK    1  A    between atoms: C_1  and  C_2
REMARK    2  A    between atoms: N_9  and  S_10
REMARK    3  A    between atoms: S_10  and  C_13
REMARK    4  A    between atoms: C_21  and  C_41
REMARK    5  A    between atoms: C_24  and  O_40
REMARK    6  A    between atoms: C_26  and  C_30
REMARK    7  A    between atoms: C_30  and  C_32
REMARK    8  A    between atoms: C_30  and  C_33
REMARK    9  A    between atoms: N_35  and  C_36
REMARK   10  A    between atoms: N_35  and  C_37
REMARK   11  A    between atoms: C_37  and  C_38
REMARK                            x       y       z     vdW  Elec       q    Type
REMARK                         _______ _______ _______ _____ _____    ______ ____
ROOT
ATOM      1  C   UNL     1      -0.888   1.984   4.833  0.00  0.00    +0.014 C 
ATOM      2  C   UNL     1      -2.209   2.243   4.106  0.00  0.00    +0.042 C 
ATOM      3  C   UNL     1      -2.060   3.456   3.200  0.00  0.00    +0.057 A 
ATOM      4  C   UNL     1      -3.061   4.367   3.113  0.00  0.00    +0.015 A 
ATOM      5  S   UNL     1      -2.414   5.548   1.960  0.00  0.00    -0.056 S 
ATOM      6  C   UNL     1      -0.891   4.757   1.677  0.00  0.00    +0.178 A 
ATOM      7  N   UNL     1      -0.982   3.698   2.456  0.00  0.00    -0.228 NA
ATOM      8  N   UNL     1       0.152   5.145   0.851  0.00  0.00    -0.194 N 
ATOM      9  C   UNL     1      -4.367   4.355   3.826  0.00  0.00    +0.051 C 
ATOM     10  C   UNL     1      -4.597   2.956   4.430  0.00  0.00    -0.022 C 
ATOM     11  C   UNL     1      -3.316   2.503   5.135  0.00  0.00    +0.033 C 
ATOM     12  C   UNL     1      -3.564   1.190   5.886  0.00  0.00    +0.123 C 
ATOM     13  C   UNL     1      -4.694   1.362   6.899  0.00  0.00    +0.029 C 
ATOM     14  C   UNL     1      -5.973   1.750   6.150  0.00  0.00    +0.007 C 
ATOM     15  C   UNL     1      -5.741   3.083   5.441  0.00  0.00    +0.008 C 
ATOM     16  C   UNL     1      -4.980   1.967   3.328  0.00  0.00    +0.012 C 
ATOM     17  H   UNL     1       0.953   4.602   0.795  0.00  0.00    +0.176 HD
ENDROOT
BRANCH   8  18
ATOM     18  S   UNL     1       0.029   6.535  -0.041  0.00  0.00    +0.074 S 
ATOM     19  O   UNL     1      -1.232   6.489  -0.694  0.00  0.00    -0.150 OA
ATOM     20  O   UNL     1       1.251   6.670  -0.753  0.00  0.00    -0.150 OA
BRANCH  18  21
ATOM     21  C   UNL     1      -0.042   7.879   1.096  0.00  0.00    +0.109 A 
ATOM     22  C   UNL     1      -1.264   8.323   1.567  0.00  0.00    +0.030 A 
ATOM     23  C   UNL     1      -1.320   9.373   2.463  0.00  0.00    +0.022 A 
ATOM     24  C   UNL     1      -0.153   9.988   2.881  0.00  0.00    +0.041 A 
ATOM     25  C   UNL     1       1.069   9.547   2.406  0.00  0.00    +0.022 A 
ATOM     26  C   UNL     1       1.124   8.493   1.514  0.00  0.00    +0.030 A 
ATOM     27 CL   UNL     1      -0.223  11.313   4.001  0.00  0.00    -0.084 Cl
ENDBRANCH  18  21
ENDBRANCH   8  18
BRANCH  13  28
ATOM     28  C   UNL     1      -4.328   2.466   7.894  0.00  0.00    +0.078 C 
ATOM     29  C   UNL     1      -3.136   2.014   8.741  0.00  0.00    +0.017 C 
BRANCH  28  30
ATOM     30  C   UNL     1      -5.506   2.744   8.791  0.00  0.00    +0.219 C 
ATOM     31  O   UNL     1      -6.338   1.883   8.985  0.00  0.00    -0.275 OA
ATOM     32  N   UNL     1      -5.635   3.950   9.379  0.00  0.00    -0.293 N 
ATOM     33  C   UNL     1      -4.587   4.961   9.215  0.00  0.00    +0.133 C 
BRANCH  32  34
ATOM     34  C   UNL     1      -6.822   4.250  10.182  0.00  0.00    +0.196 C 
BRANCH  34  35
ATOM     35  C   UNL     1      -6.577   3.868  11.583  0.00  0.00    -0.086 C 
ATOM     36  C   UNL     1      -6.381   3.563  12.699  0.00  0.00    +0.005 C 
ENDBRANCH  34  35
ENDBRANCH  32  34
ENDBRANCH  28  30
ENDBRANCH  13  28
BRANCH  12  37
ATOM     37  O   UNL     1      -2.370   0.808   6.570  0.00  0.00    -0.391 OA
ATOM     38  H   UNL     1      -2.445  -0.023   7.059  0.00  0.00    +0.210 HD
ENDBRANCH  12  37
TORSDOF 7
