REMARK  Name = ZINC43548486
REMARK  11 active torsions:
REMARK  status: ('A' for Active; 'I' for Inactive)
REMARK    1  A    between atoms: C_1  and  C_2
REMARK    2  A    between atoms: N_9  and  C_10
REMARK    3  A    between atoms: C_10  and  C_11
REMARK    4  A    between atoms: C_18  and  C_38
REMARK    5  A    between atoms: C_21  and  O_37
REMARK    6  A    between atoms: C_23  and  C_27
REMARK    7  A    between atoms: C_27  and  C_29
REMARK    8  A    between atoms: C_27  and  C_30
REMARK    9  A    between atoms: N_32  and  C_33
REMARK   10  A    between atoms: N_32  and  C_34
REMARK   11  A    between atoms: C_34  and  C_35
REMARK                            x       y       z     vdW  Elec       q    Type
REMARK                         _______ _______ _______ _____ _____    ______ ____
ROOT
ATOM      1  C   UNL     1       1.452   2.822   1.682  0.00  0.00    +0.014 C 
ATOM      2  C   UNL     1       0.925   1.388   1.598  0.00  0.00    +0.042 C 
ATOM      3  C   UNL     1      -0.482   1.330   2.169  0.00  0.00    +0.057 A 
ATOM      4  C   UNL     1      -0.867   0.291   2.952  0.00  0.00    +0.015 A 
ATOM      5  S   UNL     1      -2.546   0.698   3.339  0.00  0.00    -0.057 S 
ATOM      6  C   UNL     1      -2.624   2.147   2.482  0.00  0.00    +0.159 A 
ATOM      7  N   UNL     1      -1.421   2.251   1.962  0.00  0.00    -0.229 NA
ATOM      8  N   UNL     1      -3.696   3.018   2.356  0.00  0.00    -0.319 N 
ATOM      9  C   UNL     1      -0.051  -0.885   3.366  0.00  0.00    +0.051 C 
ATOM     10  C   UNL     1       1.214  -0.936   2.506  0.00  0.00    -0.022 C 
ATOM     11  C   UNL     1       1.839   0.459   2.404  0.00  0.00    +0.033 C 
ATOM     12  C   UNL     1       3.168   0.323   1.642  0.00  0.00    +0.123 C 
ATOM     13  C   UNL     1       2.874  -0.188   0.230  0.00  0.00    +0.029 C 
ATOM     14  C   UNL     1       2.191  -1.554   0.299  0.00  0.00    +0.007 C 
ATOM     15  C   UNL     1       0.891  -1.444   1.102  0.00  0.00    +0.008 C 
ATOM     16  C   UNL     1       2.229  -1.875   3.160  0.00  0.00    +0.012 C 
ATOM     17  H   UNL     1      -3.605   3.825   1.827  0.00  0.00    +0.148 HD
ENDROOT
BRANCH  13  18
ATOM     18  C   UNL     1       4.186  -0.317  -0.547  0.00  0.00    +0.078 C 
ATOM     19  C   UNL     1       3.897  -0.855  -1.950  0.00  0.00    +0.017 C 
BRANCH  18  20
ATOM     20  C   UNL     1       5.106  -1.267   0.176  0.00  0.00    +0.219 C 
ATOM     21  O   UNL     1       4.652  -2.063   0.971  0.00  0.00    -0.275 OA
ATOM     22  N   UNL     1       6.432  -1.232  -0.061  0.00  0.00    -0.293 N 
ATOM     23  C   UNL     1       6.990  -0.213  -0.954  0.00  0.00    +0.133 C 
BRANCH  22  24
ATOM     24  C   UNL     1       7.316  -2.213   0.574  0.00  0.00    +0.196 C 
BRANCH  24  25
ATOM     25  C   UNL     1       7.441  -3.395  -0.293  0.00  0.00    -0.086 C 
ATOM     26  C   UNL     1       7.542  -4.338  -0.985  0.00  0.00    +0.005 C 
ENDBRANCH  24  25
ENDBRANCH  22  24
ENDBRANCH  18  20
ENDBRANCH  13  18
BRANCH  12  27
ATOM     27  O   UNL     1       3.812   1.597   1.570  0.00  0.00    -0.391 OA
ATOM     28  H   UNL     1       4.633   1.594   1.060  0.00  0.00    +0.210 HD
ENDBRANCH  12  27
BRANCH   8  29
ATOM     29  C   UNL     1      -4.965   2.717   3.023  0.00  0.00    +0.138 C 
BRANCH  29  30
ATOM     30  C   UNL     1      -5.958   3.813   2.729  0.00  0.00    -0.030 A 
ATOM     31  C   UNL     1      -6.040   4.912   3.562  0.00  0.00    +0.005 A 
ATOM     32  C   UNL     1      -6.951   5.917   3.293  0.00  0.00    +0.000 A 
ATOM     33  C   UNL     1      -7.779   5.822   2.190  0.00  0.00    +0.000 A 
ATOM     34  C   UNL     1      -7.696   4.723   1.356  0.00  0.00    +0.000 A 
ATOM     35  C   UNL     1      -6.782   3.720   1.623  0.00  0.00    +0.005 A 
ENDBRANCH  29  30
ENDBRANCH   8  29
TORSDOF 7
