REMARK  Name = ZINC39632095
REMARK  12 active torsions:
REMARK  status: ('A' for Active; 'I' for Inactive)
REMARK    1  A    between atoms: C_1  and  C_2
REMARK    2  A    between atoms: C_6  and  C_7
REMARK    3  A    between atoms: C_11  and  C_20
REMARK    4  A    between atoms: N_22  and  C_23
REMARK    5  A    between atoms: C_23  and  C_25
REMARK    6  A    between atoms: C_23  and  C_26
REMARK    7  A    between atoms: C_26  and  C_27
REMARK    8  A    between atoms: C_27  and  C_28
REMARK    9  A    between atoms: C_28  and  C_29
REMARK   10  A    between atoms: C_29  and  C_30
REMARK   11  A    between atoms: C_29  and  C_31
REMARK   12  A    between atoms: C_29  and  O_32
REMARK                            x       y       z     vdW  Elec       q    Type
REMARK                         _______ _______ _______ _____ _____    ______ ____
ROOT
ATOM      1  C   UNL     1       1.263  -0.051   1.389  0.00  0.00    +0.254 C 
ATOM      2  O   UNL     1       1.436   1.138   1.585  0.00  0.00    -0.269 OA
ATOM      3  N   UNL     1       0.924  -0.860   2.412  0.00  0.00    -0.296 N 
ATOM      4  C   UNL     1       0.789  -2.336   2.396  0.00  0.00    +0.121 C 
ATOM      5  C   UNL     1       1.380  -2.796   3.748  0.00  0.00    +0.100 C 
ATOM      6  C   UNL     1       1.251  -1.571   4.669  0.00  0.00    -0.004 C 
ATOM      7  C   UNL     1       0.606  -0.475   3.808  0.00  0.00    +0.115 C 
ATOM      8  C   UNL     1       2.629  -1.119   5.143  0.00  0.00    -0.010 C 
ATOM      9  C   UNL     1       2.471   0.064   6.102  0.00  0.00    -0.082 C 
ATOM     10  N   UNL     1       1.646  -0.339   7.247  0.00  0.00    +0.379 N 
ATOM     11  C   UNL     1       0.293  -0.684   6.794  0.00  0.00    -0.082 C 
ATOM     12  C   UNL     1       0.359  -1.899   5.863  0.00  0.00    -0.010 C 
ATOM     13  H   UNL     1       2.064  -1.141   7.695  0.00  0.00    -0.086 HD
ATOM     14  H   UNL     1       1.594   0.422   7.908  0.00  0.00    -0.086 HD
ENDROOT
BRANCH   1  20
ATOM     15  C   UNL     1       1.839   1.558  -1.216  0.00  0.00    +0.045 C 
ATOM     16  C   UNL     1       1.681   0.061  -1.150  0.00  0.00    -0.031 A 
ATOM     17  C   UNL     1       1.787  -0.734  -2.266  0.00  0.00    +0.011 A 
ATOM     18  C   UNL     1       1.634  -2.075  -2.136  0.00  0.00    +0.046 A 
ATOM     19  S   UNL     1       1.341  -2.300  -0.497  0.00  0.00    -0.092 S 
ATOM     20  C   UNL     1       1.425  -0.602   0.040  0.00  0.00    +0.077 A 
ENDBRANCH   1  20
BRANCH   5  21
ATOM     21  C   UNL     1       2.827  -3.182   3.584  0.00  0.00    +0.218 C 
ATOM     22  O   UNL     1       3.529  -2.583   2.797  0.00  0.00    -0.275 OA
ATOM     23  N   UNL     1       3.341  -4.193   4.312  0.00  0.00    -0.312 N 
ATOM     24  H   UNL     1       2.801  -4.625   4.992  0.00  0.00    +0.149 HD
BRANCH  23  25
ATOM     25  C   UNL     1       4.715  -4.642   4.075  0.00  0.00    +0.070 C 
ATOM     26  C   UNL     1       5.672  -3.846   4.965  0.00  0.00    +0.028 C 
BRANCH  25  27
ATOM     27  C   UNL     1       4.830  -6.131   4.406  0.00  0.00    +0.022 C 
BRANCH  27  28
ATOM     28  C   UNL     1       3.977  -6.939   3.426  0.00  0.00    +0.005 C 
BRANCH  28  29
ATOM     29  C   UNL     1       3.993  -8.414   3.832  0.00  0.00    +0.034 C 
BRANCH  29  30
ATOM     30  C   UNL     1       3.245  -9.239   2.783  0.00  0.00    +0.061 C 
ATOM     31  C   UNL     1       3.251 -10.713   3.195  0.00  0.00    +0.041 C 
ATOM     32  C   UNL     1       1.802  -8.744   2.677  0.00  0.00    +0.041 C 
BRANCH  30  33
ATOM     33  O   UNL     1       3.892  -9.097   1.516  0.00  0.00    -0.389 OA
ATOM     34  H   UNL     1       3.471  -9.595   0.802  0.00  0.00    +0.210 HD
ENDBRANCH  30  33
ENDBRANCH  29  30
ENDBRANCH  28  29
ENDBRANCH  27  28
ENDBRANCH  25  27
ENDBRANCH  23  25
ENDBRANCH   5  21
TORSDOF 8
