REMARK  Name = ZINC32111908
REMARK  7 active torsions:
REMARK  status: ('A' for Active; 'I' for Inactive)
REMARK    1  A    between atoms: C_1  and  C_2
REMARK    2  A    between atoms: C_7  and  N_8
REMARK    3  A    between atoms: N_8  and  S_9
REMARK    4  A    between atoms: S_9  and  C_12
REMARK    5  A    between atoms: C_15  and  N_18
REMARK    6  A    between atoms: N_18  and  S_19
REMARK    7  A    between atoms: S_19  and  C_22
REMARK                            x       y       z     vdW  Elec       q    Type
REMARK                         _______ _______ _______ _____ _____    ______ ____
ROOT
ATOM      1  C   UNL     1       4.944   2.205  -4.184  0.00  0.00    +0.109 A 
ATOM      2  C   UNL     1       5.698   1.047  -4.165  0.00  0.00    +0.030 A 
ATOM      3  C   UNL     1       5.492   0.102  -3.179  0.00  0.00    +0.026 A 
ATOM      4  C   UNL     1       4.526   0.317  -2.205  0.00  0.00    +0.048 A 
ATOM      5  C   UNL     1       3.766   1.480  -2.229  0.00  0.00    +0.026 A 
ATOM      6  C   UNL     1       3.981   2.422  -3.215  0.00  0.00    +0.030 A 
ENDROOT
BRANCH   1   7
ATOM      7  S   UNL     1       5.210   3.408  -5.443  0.00  0.00    +0.072 S 
ATOM      8  O   UNL     1       4.754   4.649  -4.923  0.00  0.00    -0.150 OA
ATOM      9  O   UNL     1       6.539   3.220  -5.910  0.00  0.00    -0.150 OA
BRANCH   7  10
ATOM     10  N   UNL     1       4.207   3.027  -6.704  0.00  0.00    -0.216 N 
ATOM     11  H   UNL     1       4.630   2.793  -7.692  0.00  0.00    +0.174 HD
BRANCH  10  18
ATOM     12  C   UNL     1       2.689   1.101  -8.146  0.00  0.00    +0.046 C 
ATOM     13  C   UNL     1       2.043   2.078  -7.197  0.00  0.00    -0.028 A 
ATOM     14  C   UNL     1       0.675   2.055  -7.006  0.00  0.00    +0.006 A 
ATOM     15  C   UNL     1       0.082   2.949  -6.135  0.00  0.00    +0.020 A 
ATOM     16  C   UNL     1       0.856   3.871  -5.452  0.00  0.00    +0.043 A 
ATOM     17  C   UNL     1       2.226   3.896  -5.635  0.00  0.00    +0.044 A 
ATOM     18  C   UNL     1       2.824   3.001  -6.513  0.00  0.00    +0.052 A 
ATOM     19 CL   UNL     1       0.107   4.992  -4.358  0.00  0.00    -0.083 Cl
ENDBRANCH  10  18
ENDBRANCH   7  10
ENDBRANCH   1   7
BRANCH   4  20
ATOM     20  N   UNL     1       4.315  -0.637  -1.206  0.00  0.00    -0.216 N 
ATOM     21  H   UNL     1       3.418  -1.274  -1.234  0.00  0.00    +0.174 HD
BRANCH  20  22
ATOM     22  S   UNL     1       5.414  -0.808   0.021  0.00  0.00    +0.072 S 
ATOM     23  O   UNL     1       6.692  -0.915  -0.591  0.00  0.00    -0.150 OA
ATOM     24  O   UNL     1       4.899  -1.808   0.890  0.00  0.00    -0.150 OA
BRANCH  22  25
ATOM     25  C   UNL     1       5.417   0.700   0.932  0.00  0.00    +0.112 A 
ATOM     26  C   UNL     1       4.485   0.902   1.933  0.00  0.00    +0.032 A 
ATOM     27  C   UNL     1       4.483   2.084   2.650  0.00  0.00    +0.051 A 
ATOM     28  C   UNL     1       5.416   3.070   2.366  0.00  0.00    +0.162 A 
ATOM     29  C   UNL     1       6.354   2.865   1.361  0.00  0.00    +0.164 A 
ATOM     30  C   UNL     1       6.350   1.677   0.646  0.00  0.00    +0.078 A 
ATOM     31  O   UNL     1       7.284   3.816   1.072  0.00  0.00    -0.485 OA
ATOM     32  C   UNL     1       7.023   5.139   1.554  0.00  0.00    +0.270 C 
ATOM     33  C   UNL     1       6.579   5.039   3.019  0.00  0.00    +0.270 C 
ATOM     34  O   UNL     1       5.396   4.232   3.074  0.00  0.00    -0.485 OA
ENDBRANCH  22  25
ENDBRANCH  20  22
ENDBRANCH   4  20
TORSDOF 6
