REMARK  Name = ZINC67158516
REMARK  6 active torsions:
REMARK  status: ('A' for Active; 'I' for Inactive)
REMARK    1  A    between atoms: C_1  and  C_2
REMARK    2  A    between atoms: C_9  and  C_11
REMARK    3  A    between atoms: C_18  and  C_20
REMARK    4  A    between atoms: C_22  and  C_26
REMARK    5  A    between atoms: C_26  and  C_27
REMARK    6  A    between atoms: C_26  and  C_28
REMARK                            x       y       z     vdW  Elec       q    Type
REMARK                         _______ _______ _______ _____ _____    ______ ____
ROOT
ATOM      1  C   UNL     1       0.352  -5.801   1.935  0.00  0.00    +0.072 C 
ATOM      2  C   UNL     1      -1.052  -6.405   2.017  0.00  0.00    +0.014 C 
ATOM      3  C   UNL     1      -0.981  -7.774   2.697  0.00  0.00    +0.020 C 
ATOM      4  C   UNL     1      -0.444  -7.604   4.122  0.00  0.00    +0.108 C 
ATOM      5  N   UNL     1       0.840  -6.893   4.062  0.00  0.00    -0.296 N 
ATOM      6  C   UNL     1       0.905  -5.609   3.351  0.00  0.00    +0.119 C 
ATOM      7  C   UNL     1       1.939  -7.409   4.648  0.00  0.00    +0.267 C 
ATOM      8  O   UNL     1       3.020  -6.875   4.488  0.00  0.00    -0.268 OA
ENDROOT
BRANCH   1  17
ATOM      9  C   UNL     1      -0.277   1.267  -0.309  0.00  0.00    +0.044 C 
ATOM     10  C   UNL     1      -0.054  -0.223  -0.308  0.00  0.00    -0.048 A 
ATOM     11  C   UNL     1       0.268  -0.873  -1.491  0.00  0.00    +0.005 A 
ATOM     12  C   UNL     1       0.474  -2.223  -1.511  0.00  0.00    +0.030 A 
ATOM     13  C   UNL     1       0.359  -2.962  -0.331  0.00  0.00    +0.089 A 
ATOM     14  C   UNL     1       0.033  -2.305   0.868  0.00  0.00    +0.066 A 
ATOM     15  C   UNL     1      -0.168  -0.931   0.869  0.00  0.00    +0.031 A 
ATOM     16  N   UNL     1      -0.006  -3.284   1.840  0.00  0.00    -0.342 N 
ATOM     17  C   UNL     1       0.285  -4.467   1.236  0.00  0.00    +0.113 A 
ATOM     18  N   UNL     1       0.499  -4.280  -0.034  0.00  0.00    -0.232 NA
ATOM     19  H   UNL     1      -0.205  -3.152   2.781  0.00  0.00    +0.167 HD
ENDBRANCH   1  17
BRANCH   7  20
ATOM     20  C   UNL     1       1.830  -8.621   5.484  0.00  0.00    +0.147 A 
ATOM     21  C   UNL     1       2.901  -9.357   6.044  0.00  0.00    +0.057 A 
ATOM     22  C   UNL     1       2.324 -10.376   6.723  0.00  0.00    +0.039 A 
ATOM     23  N   UNL     1       0.988 -10.250   6.574  0.00  0.00    -0.281 N 
ATOM     24  H   UNL     1       0.328 -10.848   6.958  0.00  0.00    +0.189 HD
ATOM     25  N   UNL     1       0.716  -9.221   5.854  0.00  0.00    -0.169 NA
BRANCH  22  26
ATOM     26  C   UNL     1       3.039 -11.450   7.501  0.00  0.00    +0.031 C 
ATOM     27  C   UNL     1       2.210 -11.826   8.731  0.00  0.00    +0.014 C 
ATOM     28  C   UNL     1       3.225 -12.683   6.615  0.00  0.00    +0.014 C 
ENDBRANCH  22  26
ENDBRANCH   7  20
TORSDOF 3
