REMARK  Name = ZINC49560439
REMARK  2 active torsions:
REMARK  status: ('A' for Active; 'I' for Inactive)
REMARK    1  A    between atoms: CA_4  and  C_17
REMARK    2  A    between atoms: C_6  and  N_7
REMARK                            x       y       z     vdW  Elec       q    Type
REMARK                         _______ _______ _______ _____ _____    ______ ____
ROOT
ATOM      1  N   UNL     1      -1.184  -0.734   0.010  0.00  0.00    -0.294 N 
ATOM      2  C   UNL     1      -2.401  -0.079   0.130  0.00  0.00    +0.163 A 
ATOM      3  N   UNL     1      -2.634   1.215   0.151  0.00  0.00    -0.229 NA
ATOM      4  C   UNL     1      -3.865   1.706   0.273  0.00  0.00    +0.054 A 
ATOM      5  C   UNL     1      -4.845   0.772   0.374  0.00  0.00    +0.014 A 
ATOM      6  S   UNL     1      -3.941  -0.748   0.278  0.00  0.00    -0.057 S 
ATOM      7  C   UNL     1      -6.311   1.000   0.522  0.00  0.00    +0.044 C 
ATOM      8  C   UNL     1      -6.529   2.471   0.915  0.00  0.00    +0.006 C 
ATOM      9  C   UNL     1      -5.693   3.358  -0.011  0.00  0.00    +0.006 C 
ATOM     10  C   UNL     1      -4.204   3.189   0.301  0.00  0.00    +0.056 C 
ATOM     11  H   UNL     1      -1.160  -1.700  -0.076  0.00  0.00    +0.154 HD
ENDROOT
BRANCH   1  17
ATOM     12  C   UNL     1       0.071   1.245   0.625  0.00  0.00    +0.041 A 
ATOM     13  C   UNL     1       1.267   1.941   0.610  0.00  0.00    +0.085 A 
ATOM     14  N   UNL     1       2.335   1.441   0.026  0.00  0.00    -0.355 N 
ATOM     15  CA  UNL     1       2.316   0.253  -0.570  0.00  0.00    +0.130 A 
ATOM     16  C   UNL     1       1.153  -0.508  -0.597  0.00  0.00    +0.056 A 
ATOM     17  C   UNL     1       0.003  -0.005   0.013  0.00  0.00    +0.036 A 
ATOM     18  H   UNL     1       3.158   1.954   0.031  0.00  0.00    +0.166 HD
BRANCH  15  19
ATOM     19  C   UNL     1       3.545  -0.264  -1.212  0.00  0.00    +0.402 C 
ATOM     20  O   UNL     1       4.571   0.401  -1.193  0.00  0.00    -0.239 OA
ATOM     21  OXT UNL     1       3.534  -1.355  -1.763  0.00  0.00    -0.239 OA
ENDBRANCH  15  19
ENDBRANCH   1  17
TORSDOF 2
