REMARK  Name = ZINC64789513
REMARK  8 active torsions:
REMARK  status: ('A' for Active; 'I' for Inactive)
REMARK    1  A    between atoms: C_1  and  N_2
REMARK    2  A    between atoms: C_3  and  C_25
REMARK    3  A    between atoms: N_14  and  C_17
REMARK    4  A    between atoms: C_17  and  C_18
REMARK    5  A    between atoms: C_28  and  O_33
REMARK    6  A    between atoms: C_29  and  O_31
REMARK    7  A    between atoms: O_31  and  C_32
REMARK    8  A    between atoms: O_33  and  C_34
REMARK                            x       y       z     vdW  Elec       q    Type
REMARK                         _______ _______ _______ _____ _____    ______ ____
ROOT
ATOM      1  C   UNL     1      -0.018   1.465   0.010  0.00  0.00    +0.128 C 
ATOM      2  N   UNL     1       0.002  -0.004   0.002  0.00  0.00    -0.225 NA
ATOM      3  C   UNL     1       0.693  -0.519  -1.203  0.00  0.00    +0.111 C 
ATOM      4  C   UNL     1       1.325  -1.829  -0.672  0.00  0.00    +0.078 C 
ATOM      5  C   UNL     1       1.425  -1.557   0.818  0.00  0.00    +0.038 C 
ATOM      6  N   UNL     1       0.653  -0.490   1.097  0.00  0.00    -0.280 N 
ATOM      7  C   UNL     1       2.175  -2.278   1.728  0.00  0.00    +0.117 C 
ATOM      8  C   UNL     1       2.992  -3.432   1.309  0.00  0.00    +0.258 C 
ATOM      9  N   UNL     1       3.699  -4.088   2.252  0.00  0.00    -0.235 N 
ATOM     10  H   UNL     1       4.241  -4.849   1.992  0.00  0.00    +0.159 HD
ATOM     11  C   UNL     1       3.668  -3.714   3.538  0.00  0.00    +0.316 C 
ATOM     12  O   UNL     1       4.327  -4.348   4.338  0.00  0.00    -0.252 OA
ATOM     13  N   UNL     1       2.949  -2.676   3.989  0.00  0.00    -0.217 N 
ATOM     14  C   UNL     1       2.198  -1.924   3.158  0.00  0.00    +0.261 C 
ATOM     15  O   UNL     1       1.554  -0.982   3.579  0.00  0.00    -0.269 OA
ATOM     16  O   UNL     1       3.028  -3.782   0.144  0.00  0.00    -0.270 OA
ATOM     17  H   UNL     1       0.569  -0.107   1.984  0.00  0.00    +0.166 HD
ENDROOT
BRANCH   3  18
ATOM     18  C   UNL     1      -0.291  -0.804  -2.308  0.00  0.00    -0.025 A 
ATOM     19  C   UNL     1      -1.527  -1.346  -2.008  0.00  0.00    +0.009 A 
ATOM     20  C   UNL     1      -2.433  -1.610  -3.018  0.00  0.00    +0.050 A 
ATOM     21  C   UNL     1      -2.104  -1.329  -4.335  0.00  0.00    +0.162 A 
ATOM     22  C   UNL     1      -0.860  -0.783  -4.636  0.00  0.00    +0.162 A 
ATOM     23  C   UNL     1       0.042  -0.517  -3.619  0.00  0.00    +0.054 A 
BRANCH  22  24
ATOM     24  O   UNL     1      -0.533  -0.506  -5.927  0.00  0.00    -0.491 OA
ATOM     25  C   UNL     1       0.761   0.053  -6.162  0.00  0.00    +0.277 C 
ENDBRANCH  22  24
BRANCH  21  26
ATOM     26  O   UNL     1      -2.994  -1.588  -5.330  0.00  0.00    -0.491 OA
ATOM     27  C   UNL     1      -4.251  -2.150  -4.946  0.00  0.00    +0.277 C 
ENDBRANCH  21  26
ENDBRANCH   3  18
BRANCH  13  28
ATOM     28  C   UNL     1       2.984  -2.348   5.417  0.00  0.00    +0.153 C 
BRANCH  28  29
ATOM     29  C   UNL     1       4.101  -1.372   5.681  0.00  0.00    -0.030 A 
ATOM     30  C   UNL     1       5.366  -1.836   5.987  0.00  0.00    +0.005 A 
ATOM     31  C   UNL     1       6.391  -0.940   6.230  0.00  0.00    +0.000 A 
ATOM     32  C   UNL     1       6.150   0.420   6.165  0.00  0.00    +0.000 A 
ATOM     33  C   UNL     1       4.885   0.884   5.857  0.00  0.00    +0.000 A 
ATOM     34  C   UNL     1       3.861  -0.012   5.610  0.00  0.00    +0.005 A 
ENDBRANCH  28  29
ENDBRANCH  13  28
TORSDOF 5
