REMARK  Name = ZINC13495853
REMARK  14 active torsions:
REMARK  status: ('A' for Active; 'I' for Inactive)
REMARK    1  A    between atoms: C_1  and  C_2
REMARK    2  A    between atoms: C_2  and  C_3
REMARK    3  A    between atoms: C_3  and  C_5
REMARK    4  A    between atoms: C_3  and  N_75
REMARK    5  A    between atoms: N_9  and  C_10
REMARK    6  A    between atoms: C_10  and  C_11
REMARK    7  A    between atoms: C_11  and  C_12
REMARK    8  A    between atoms: C_18  and  C_19
REMARK    9  A    between atoms: C_18  and  N_75
REMARK   10  A    between atoms: C_19  and  C_20
REMARK   11  A    between atoms: C_26  and  C_27
REMARK   12  A    between atoms: C_26  and  N_75
REMARK   13  A    between atoms: C_31  and  C_40
REMARK   14  A    between atoms: C_33  and  C_39
REMARK                            x       y       z     vdW  Elec       q    Type
REMARK                         _______ _______ _______ _____ _____    ______ ____
ROOT
ATOM      1  N   UNL     1      -1.822   2.404  -1.694  0.00  0.00    +0.389 N 
ATOM      2  H   UNL     1      -1.230   2.822  -2.422  0.00  0.00    -0.080 HD
ENDROOT
BRANCH   1   3
ATOM      3  C   UNL     1      -3.091   3.157  -1.617  0.00  0.00    +0.003 C 
BRANCH   3   4
ATOM      4  C   UNL     1      -2.808   4.608  -1.909  0.00  0.00    +0.138 A 
ATOM      5  N   UNL     1      -1.808   5.319  -1.448  0.00  0.00    -0.115 NA
ATOM      6  N   UNL     1      -1.913   6.510  -1.927  0.00  0.00    -0.023 NA
ATOM      7  N   UNL     1      -2.958   6.580  -2.676  0.00  0.00    -0.044 NA
ATOM      8  N   UNL     1      -3.537   5.428  -2.690  0.00  0.00    -0.231 N 
BRANCH   8   9
ATOM      9  C   UNL     1      -4.758   5.076  -3.420  0.00  0.00    +0.152 C 
BRANCH   9  10
ATOM     10  C   UNL     1      -5.976   5.338  -2.532  0.00  0.00    +0.058 C 
BRANCH  10  11
ATOM     11  C   UNL     1      -7.232   4.976  -3.282  0.00  0.00    -0.046 A 
ATOM     12  C   UNL     1      -7.880   5.930  -4.045  0.00  0.00    +0.004 A 
ATOM     13  C   UNL     1      -9.028   5.597  -4.738  0.00  0.00    +0.000 A 
ATOM     14  C   UNL     1      -9.536   4.314  -4.659  0.00  0.00    +0.000 A 
ATOM     15  C   UNL     1      -8.891   3.361  -3.891  0.00  0.00    +0.000 A 
ATOM     16  C   UNL     1      -7.739   3.693  -3.203  0.00  0.00    +0.004 A 
ENDBRANCH  10  11
ENDBRANCH   9  10
ENDBRANCH   8   9
ENDBRANCH   3   4
BRANCH   3  18
ATOM     17  C   UNL     1      -4.123   1.577   0.020  0.00  0.00    +0.002 C 
ATOM     18  C   UNL     1      -3.704   3.028  -0.221  0.00  0.00    -0.011 C 
ENDBRANCH   3  18
ENDBRANCH   1   3
BRANCH   1  19
ATOM     19  C   UNL     1      -2.091   0.994  -2.044  0.00  0.00    -0.073 C 
BRANCH  19  20
ATOM     20  C   UNL     1      -2.619   0.934  -3.479  0.00  0.00    +0.016 C 
BRANCH  20  21
ATOM     21  C   UNL     1      -2.764  -0.505  -3.901  0.00  0.00    -0.049 A 
ATOM     22  C   UNL     1      -1.708  -1.155  -4.514  0.00  0.00    +0.003 A 
ATOM     23  C   UNL     1      -1.839  -2.477  -4.897  0.00  0.00    +0.000 A 
ATOM     24  C   UNL     1      -3.029  -3.146  -4.677  0.00  0.00    +0.000 A 
ATOM     25  C   UNL     1      -4.086  -2.495  -4.069  0.00  0.00    +0.000 A 
ATOM     26  C   UNL     1      -3.953  -1.174  -3.681  0.00  0.00    +0.003 A 
ENDBRANCH  20  21
ENDBRANCH  19  20
ENDBRANCH   1  19
BRANCH   1  27
ATOM     27  C   UNL     1      -1.112   2.477  -0.400  0.00  0.00    -0.037 C 
BRANCH  27  28
ATOM     28  C   UNL     1       0.305   2.005  -0.597  0.00  0.00    +0.001 A 
ATOM     29  C   UNL     1       1.287   2.905  -0.851  0.00  0.00    +0.017 A 
ATOM     30  C   UNL     1       2.653   2.414  -1.045  0.00  0.00    -0.001 A 
ATOM     31  C   UNL     1       3.708   3.294  -1.309  0.00  0.00    +0.013 A 
ATOM     32  C   UNL     1       4.971   2.804  -1.485  0.00  0.00    -0.050 A 
ATOM     33  C   UNL     1       5.217   1.440  -1.403  0.00  0.00    +0.008 A 
ATOM     34  C   UNL     1       4.194   0.555  -1.143  0.00  0.00    -0.026 A 
ATOM     35  C   UNL     1       2.899   1.031  -0.961  0.00  0.00    +0.052 A 
ATOM     36  N   UNL     1       1.856   0.168  -0.700  0.00  0.00    -0.322 N 
ATOM     37  H   UNL     1       2.027  -0.785  -0.643  0.00  0.00    +0.169 HD
ATOM     38  C   UNL     1       0.605   0.628  -0.523  0.00  0.00    +0.251 A 
ATOM     39  O   UNL     1      -0.292  -0.164  -0.294  0.00  0.00    -0.268 OA
ATOM     40  C   UNL     1       4.475  -0.923  -1.057  0.00  0.00    +0.046 C 
ATOM     41  C   UNL     1       6.107   3.752  -1.770  0.00  0.00    +0.044 C 
ENDBRANCH  27  28
ENDBRANCH   1  27
TORSDOF 11
