REMARK  Name = ZINC61507751
REMARK  5 active torsions:
REMARK  status: ('A' for Active; 'I' for Inactive)
REMARK    1  A    between atoms: C_13  and  C_16
REMARK    2  A    between atoms: C_16  and  N_17
REMARK    3  A    between atoms: C_18  and  C_20
REMARK    4  A    between atoms: C_21  and  C_22
REMARK    5  A    between atoms: C_25  and  N_28
REMARK                            x       y       z     vdW  Elec       q    Type
REMARK                         _______ _______ _______ _____ _____    ______ ____
ROOT
ATOM      1  C   UNL     1       8.941   0.288  -0.084  0.00  0.00    +0.141 C 
ENDROOT
BRANCH   1  14
ATOM      2  C   UNL     1      -0.017   1.362   0.009  0.00  0.00    +0.002 A 
ATOM      3  C   UNL     1       1.167   2.086   0.002  0.00  0.00    +0.002 A 
ATOM      4  C   UNL     1       2.384   1.436  -0.013  0.00  0.00    +0.028 A 
ATOM      5  C   UNL     1       2.422   0.049  -0.021  0.00  0.00    +0.075 A 
ATOM      6  C   UNL     1       1.223  -0.684  -0.013  0.00  0.00    +0.089 A 
ATOM      7  C   UNL     1       0.002  -0.004   0.002  0.00  0.00    +0.030 A 
ATOM      8  N   UNL     1       1.561  -1.999  -0.024  0.00  0.00    -0.235 NA
ATOM      9  C   UNL     1       2.857  -2.119  -0.037  0.00  0.00    +0.206 A 
ATOM     10  N   UNL     1       3.440  -0.886  -0.036  0.00  0.00    -0.283 N 
ATOM     11  C   UNL     1       4.811  -0.619  -0.048  0.00  0.00    +0.139 A 
ATOM     12  C   UNL     1       5.718  -1.672  -0.069  0.00  0.00    +0.047 A 
ATOM     13  C   UNL     1       7.073  -1.393  -0.081  0.00  0.00    +0.010 A 
ATOM     14  C   UNL     1       7.476  -0.064  -0.072  0.00  0.00    -0.012 A 
ATOM     15  C   UNL     1       6.519   0.932  -0.051  0.00  0.00    +0.118 A 
ATOM     16  N   UNL     1       5.234   0.635  -0.046  0.00  0.00    -0.237 NA
ENDBRANCH   1  14
BRANCH   1  17
ATOM     17  N   UNL     1       9.401   0.415  -1.469  0.00  0.00    -0.308 N 
ATOM     18  C   UNL     1      10.687   0.727  -1.725  0.00  0.00    +0.237 C 
ATOM     19  O   UNL     1      11.466   0.902  -0.807  0.00  0.00    -0.271 OA
ATOM     20  H   UNL     1       8.781   0.276  -2.201  0.00  0.00    +0.149 HD
BRANCH  18  21
ATOM     21  C   UNL     1      11.147   0.855  -3.110  0.00  0.00    +0.068 C 
ATOM     22  C   UNL     1      12.434   1.167  -3.366  0.00  0.00    +0.013 C 
BRANCH  22  23
ATOM     23  C   UNL     1      12.896   1.295  -4.758  0.00  0.00    -0.025 A 
ATOM     24  C   UNL     1      12.003   1.100  -5.816  0.00  0.00    +0.010 A 
ATOM     25  C   UNL     1      12.444   1.222  -7.117  0.00  0.00    +0.033 A 
ATOM     26  C   UNL     1      13.766   1.537  -7.377  0.00  0.00    +0.126 A 
ATOM     27  C   UNL     1      14.656   1.731  -6.335  0.00  0.00    +0.033 A 
ATOM     28  C   UNL     1      14.229   1.618  -5.028  0.00  0.00    +0.010 A 
BRANCH  26  29
ATOM     29  N   UNL     1      14.231   1.666  -8.776  0.00  0.00    +0.056 N 
ATOM     30  O   UNL     1      13.457   1.496  -9.688  0.00  0.00    -0.126 OA
ATOM     31  O   UNL     1      15.386   1.940  -9.006  0.00  0.00    -0.126 OA
ENDBRANCH  26  29
ENDBRANCH  22  23
ENDBRANCH  18  21
ENDBRANCH   1  17
TORSDOF 5
