REMARK  Name = ZINC09429986
REMARK  7 active torsions:
REMARK  status: ('A' for Active; 'I' for Inactive)
REMARK    1  A    between atoms: C_1  and  O_2
REMARK    2  A    between atoms: O_2  and  C_3
REMARK    3  A    between atoms: C_6  and  C_9
REMARK    4  A    between atoms: N_13  and  C_17
REMARK    5  A    between atoms: C_17  and  C_18
REMARK    6  A    between atoms: C_18  and  C_19
REMARK    7  A    between atoms: C_24  and  C_27
REMARK                            x       y       z     vdW  Elec       q    Type
REMARK                         _______ _______ _______ _____ _____    ______ ____
ROOT
ATOM      1  C   UNL     1      -2.329   9.492  -6.059  0.00  0.00    +0.028 C 
ATOM      2  C   UNL     1      -1.236   8.688  -6.017  0.00  0.00    +0.077 C 
ATOM      3  C   UNL     1      -0.349   8.365  -4.882  0.00  0.00    +0.258 C 
ATOM      4  O   UNL     1      -0.532   8.834  -3.774  0.00  0.00    -0.269 OA
ATOM      5  N   UNL     1       0.655   7.541  -5.131  0.00  0.00    -0.255 N 
ATOM      6  C   UNL     1       0.857   7.028  -6.361  0.00  0.00    +0.121 C 
ATOM      7  S   UNL     1       2.092   5.961  -6.879  0.00  0.00    -0.027 S 
ATOM      8  S   UNL     1      -0.475   7.730  -7.320  0.00  0.00    -0.061 S 
ENDROOT
BRANCH   1  12
ATOM      9  C   UNL     1      -4.167  10.378  -9.776  0.00  0.00    +0.120 A 
ATOM     10  C   UNL     1      -4.783  10.762  -8.591  0.00  0.00    +0.046 A 
ATOM     11  C   UNL     1      -4.190  10.477  -7.381  0.00  0.00    +0.011 A 
ATOM     12  C   UNL     1      -2.966   9.799  -7.346  0.00  0.00    -0.024 A 
ATOM     13  C   UNL     1      -2.348   9.419  -8.544  0.00  0.00    +0.011 A 
ATOM     14  C   UNL     1      -2.952   9.704  -9.748  0.00  0.00    +0.046 A 
BRANCH   9  16
ATOM     15  C   UNL     1      -4.070  10.239 -12.146  0.00  0.00    +0.277 C 
ATOM     16  O   UNL     1      -4.756  10.662 -10.966  0.00  0.00    -0.495 OA
ENDBRANCH   9  16
ENDBRANCH   1  12
BRANCH   5  17
ATOM     17  C   UNL     1       1.572   7.182  -4.046  0.00  0.00    +0.124 C 
BRANCH  17  18
ATOM     18  C   UNL     1       1.052   5.933  -3.331  0.00  0.00    +0.115 C 
BRANCH  18  19
ATOM     19  C   UNL     1       1.995   5.563  -2.216  0.00  0.00    +0.217 C 
ATOM     20  O   UNL     1       2.986   6.233  -2.012  0.00  0.00    -0.276 OA
ATOM     21  N   UNL     1       1.738   4.489  -1.444  0.00  0.00    -0.301 N 
ATOM     22  C   UNL     1       2.648   4.116  -0.352  0.00  0.00    +0.108 C 
ATOM     23  C   UNL     1       3.053   2.649  -0.527  0.00  0.00    +0.034 C 
ATOM     24  C   UNL     1       1.794   1.784  -0.619  0.00  0.00    +0.105 C 
ATOM     25  C   UNL     1       0.970   2.206  -1.838  0.00  0.00    +0.034 C 
ATOM     26  C   UNL     1       0.542   3.668  -1.678  0.00  0.00    +0.108 C 
BRANCH  24  27
ATOM     27  C   UNL     1       2.188   0.336  -0.758  0.00  0.00    +0.359 C 
ATOM     28  O   UNL     1       3.356   0.028  -0.780  0.00  0.00    -0.246 OA
ATOM     29  O   UNL     1       1.242  -0.611  -0.856  0.00  0.00    -0.246 OA
ENDBRANCH  24  27
ENDBRANCH  18  19
ENDBRANCH  17  18
ENDBRANCH   5  17
TORSDOF 6
