REMARK  Name = ZINC42733963
REMARK  4 active torsions:
REMARK  status: ('A' for Active; 'I' for Inactive)
REMARK    1  A    between atoms: C_1  and  C_2
REMARK    2  A    between atoms: C_6  and  C_28
REMARK    3  A    between atoms: C_10  and  C_12
REMARK    4  A    between atoms: C_15  and  C_17
REMARK                            x       y       z     vdW  Elec       q    Type
REMARK                         _______ _______ _______ _____ _____    ______ ____
ROOT
ATOM      1  C   UNL     1       2.589  -1.637   2.285  0.00  0.00    +0.147 A 
ATOM      2  C   UNL     1       3.900  -2.005   2.321  0.00  0.00    +0.051 A 
ATOM      3  N   UNL     1       4.242  -2.149   3.622  0.00  0.00    -0.327 N 
ATOM      4  C   UNL     1       3.139  -1.849   4.370  0.00  0.00    +0.142 A 
ATOM      5  N   UNL     1       2.154  -1.543   3.561  0.00  0.00    -0.223 NA
ATOM      6  C   UNL     1       5.552  -2.565   4.131  0.00  0.00    +0.123 C 
ATOM      7  C   UNL     1       6.639  -2.158   3.133  0.00  0.00    +0.022 C 
ATOM      8  C   UNL     1       6.854  -3.279   2.116  0.00  0.00    +0.002 C 
ATOM      9  C   UNL     1       5.574  -3.532   1.326  0.00  0.00    +0.006 C 
ATOM     10  C   UNL     1       4.816  -2.213   1.144  0.00  0.00    +0.056 C 
ENDROOT
BRANCH   1  18
ATOM     11  C   UNL     1      -0.519   0.955   0.022  0.00  0.00    +0.028 C 
ATOM     12  C   UNL     1      -0.241  -0.549  -0.011  0.00  0.00    +0.073 C 
ATOM     13  C   UNL     1      -1.567  -1.317  -0.022  0.00  0.00    +0.023 C 
ATOM     14  C   UNL     1      -2.303  -1.073   1.298  0.00  0.00    +0.016 C 
ATOM     15  C   UNL     1      -1.454  -1.591   2.461  0.00  0.00    +0.092 C 
ATOM     16  C   UNL     1      -0.127  -0.827   2.499  0.00  0.00    +0.121 C 
ATOM     17  N   UNL     1       0.523  -0.935   1.183  0.00  0.00    -0.293 N 
ATOM     18  C   UNL     1       1.790  -1.382   1.074  0.00  0.00    +0.267 C 
ATOM     19  O   UNL     1       2.274  -1.574  -0.025  0.00  0.00    -0.268 OA
BRANCH  15  20
ATOM     20  C   UNL     1      -2.195  -1.380   3.756  0.00  0.00    +0.215 C 
ATOM     21  O   UNL     1      -3.293  -0.866   3.751  0.00  0.00    -0.276 OA
ATOM     22  N   UNL     1      -1.636  -1.763   4.922  0.00  0.00    -0.329 N 
ATOM     23  H   UNL     1      -0.757  -2.174   4.926  0.00  0.00    +0.145 HD
ATOM     24  H   UNL     1      -2.112  -1.627   5.756  0.00  0.00    +0.145 HD
ENDBRANCH  15  20
ENDBRANCH   1  18
BRANCH   4  25
ATOM     25  C   UNL     1       3.069  -1.862   5.848  0.00  0.00    +0.017 A 
ATOM     26  C   UNL     1       4.025  -2.558   6.589  0.00  0.00    +0.011 A 
ATOM     27  C   UNL     1       3.955  -2.566   7.966  0.00  0.00    +0.001 A 
ATOM     28  C   UNL     1       2.939  -1.886   8.614  0.00  0.00    +0.000 A 
ATOM     29  C   UNL     1       1.988  -1.193   7.886  0.00  0.00    +0.001 A 
ATOM     30  C   UNL     1       2.051  -1.173   6.507  0.00  0.00    +0.011 A 
ENDBRANCH   4  25
TORSDOF 3
