REMARK  Name = ZINC39626641
REMARK  12 active torsions:
REMARK  status: ('A' for Active; 'I' for Inactive)
REMARK    1  A    between atoms: C_1  and  C_2
REMARK    2  A    between atoms: C_2  and  C_3
REMARK    3  A    between atoms: C_3  and  C_4
REMARK    4  A    between atoms: C_4  and  C_5
REMARK    5  A    between atoms: C_9  and  C_18
REMARK    6  A    between atoms: N_20  and  C_21
REMARK    7  A    between atoms: C_21  and  C_22
REMARK    8  A    between atoms: C_22  and  N_23
REMARK    9  A    between atoms: N_23  and  C_24
REMARK   10  A    between atoms: N_23  and  C_26
REMARK   11  A    between atoms: C_24  and  C_25
REMARK   12  A    between atoms: C_26  and  C_27
REMARK                            x       y       z     vdW  Elec       q    Type
REMARK                         _______ _______ _______ _____ _____    ______ ____
ROOT
ATOM      1  C   UNL     1      -1.269  -2.359  -0.662  0.00  0.00    +0.216 C 
ATOM      2  O   UNL     1      -2.080  -1.460  -0.735  0.00  0.00    -0.276 OA
ATOM      3  N   UNL     1      -1.685  -3.639  -0.606  0.00  0.00    -0.300 N 
ATOM      4  C   UNL     1      -0.853  -4.862  -0.509  0.00  0.00    +0.121 C 
ATOM      5  C   UNL     1      -1.624  -5.782   0.464  0.00  0.00    +0.100 C 
ATOM      6  C   UNL     1      -3.084  -5.307   0.379  0.00  0.00    -0.004 C 
ATOM      7  C   UNL     1      -3.080  -4.143  -0.622  0.00  0.00    +0.115 C 
ATOM      8  C   UNL     1      -3.561  -4.819   1.744  0.00  0.00    -0.010 C 
ATOM      9  C   UNL     1      -5.032  -4.406   1.648  0.00  0.00    -0.082 C 
ATOM     10  N   UNL     1      -5.836  -5.552   1.207  0.00  0.00    +0.379 N 
ATOM     11  C   UNL     1      -5.433  -5.956  -0.145  0.00  0.00    -0.082 C 
ATOM     12  C   UNL     1      -3.979  -6.435  -0.125  0.00  0.00    -0.010 C 
ATOM     13  H   UNL     1      -5.697  -6.323   1.843  0.00  0.00    -0.086 HD
ATOM     14  H   UNL     1      -6.812  -5.295   1.203  0.00  0.00    -0.086 HD
ENDROOT
BRANCH   5  15
ATOM     15  C   UNL     1      -1.511  -7.220   0.026  0.00  0.00    +0.218 C 
ATOM     16  O   UNL     1      -1.432  -7.490  -1.154  0.00  0.00    -0.275 OA
ATOM     17  N   UNL     1      -1.499  -8.205   0.945  0.00  0.00    -0.317 N 
ATOM     18  H   UNL     1      -1.562  -7.989   1.889  0.00  0.00    +0.149 HD
BRANCH  17  19
ATOM     19  C   UNL     1      -1.389  -9.603   0.519  0.00  0.00    +0.085 C 
BRANCH  19  20
ATOM     20  C   UNL     1      -1.398 -10.513   1.749  0.00  0.00    -0.060 C 
BRANCH  20  21
ATOM     21  N   UNL     1      -1.288 -11.914   1.323  0.00  0.00    +0.380 N 
ATOM     22  H   UNL     1      -2.022 -12.123   0.662  0.00  0.00    -0.082 HD
BRANCH  21  23
ATOM     23  C   UNL     1       0.018 -12.132   0.688  0.00  0.00    -0.082 C 
ATOM     24  C   UNL     1       0.083 -13.554   0.128  0.00  0.00    -0.017 C 
ENDBRANCH  21  23
BRANCH  21  25
ATOM     25  C   UNL     1      -1.417 -12.794   2.492  0.00  0.00    -0.082 C 
ATOM     26  C   UNL     1      -2.835 -12.688   3.056  0.00  0.00    -0.017 C 
ENDBRANCH  21  25
ENDBRANCH  20  21
ENDBRANCH  19  20
ENDBRANCH  17  19
ENDBRANCH   5  15
BRANCH   1  27
ATOM     27  C   UNL     1       0.204  -2.043  -0.634  0.00  0.00    +0.096 C 
BRANCH  27  28
ATOM     28  C   UNL     1       0.404  -0.528  -0.710  0.00  0.00    +0.009 C 
BRANCH  28  30
ATOM     29  C   UNL     1       2.098   1.307  -0.756  0.00  0.00    +0.004 C 
ATOM     30  C   UNL     1       1.899  -0.208  -0.681  0.00  0.00    -0.003 C 
ENDBRANCH  28  30
ENDBRANCH  27  28
ENDBRANCH   1  27
TORSDOF 9
