REMARK  Name = ZINC35578408
REMARK  5 active torsions:
REMARK  status: ('A' for Active; 'I' for Inactive)
REMARK    1  A    between atoms: C_1  and  N_2
REMARK    2  A    between atoms: C_3  and  N_33
REMARK    3  A    between atoms: C_5  and  C_25
REMARK    4  A    between atoms: N_14  and  C_17
REMARK    5  A    between atoms: C_17  and  C_18
REMARK                            x       y       z     vdW  Elec       q    Type
REMARK                         _______ _______ _______ _____ _____    ______ ____
ROOT
ATOM      1  C   UNL     1      -1.077   1.274  -0.019  0.00  0.00    +0.174 C 
ATOM      2  N   UNL     1      -0.588  -0.107  -0.014  0.00  0.00    -0.251 N 
ATOM      3  C   UNL     1      -0.264  -0.815  -1.110  0.00  0.00    +0.126 A 
ATOM      4  C   UNL     1       0.154  -2.071  -0.688  0.00  0.00    +0.086 A 
ATOM      5  C   UNL     1       0.613  -3.250  -1.318  0.00  0.00    +0.091 A 
ATOM      6  N   UNL     1       0.930  -4.288  -0.555  0.00  0.00    -0.213 NA
ATOM      7  C   UNL     1       0.827  -4.249   0.770  0.00  0.00    +0.220 A 
ATOM      8  N   UNL     1       0.408  -3.194   1.438  0.00  0.00    -0.193 NA
ATOM      9  C   UNL     1       0.055  -2.071   0.782  0.00  0.00    +0.188 A 
ATOM     10  N   UNL     1      -0.384  -0.882   1.133  0.00  0.00    -0.149 NA
ATOM     11  N   UNL     1       1.179  -5.379   1.487  0.00  0.00    -0.297 N 
ATOM     12  C   UNL     1       1.660  -6.588   0.801  0.00  0.00    +0.123 C 
ATOM     13  C   UNL     1       2.975  -7.028   1.454  0.00  0.00    +0.103 C 
ATOM     14  N   UNL     1       2.775  -7.173   2.902  0.00  0.00    -0.295 NA
ATOM     15  C   UNL     1       2.420  -5.889   3.522  0.00  0.00    +0.103 C 
ATOM     16  C   UNL     1       1.089  -5.401   2.954  0.00  0.00    +0.123 C 
ENDROOT
BRANCH   5  17
ATOM     17  C   UNL     1       0.738  -3.324  -2.791  0.00  0.00    +0.039 A 
ATOM     18  C   UNL     1       1.524  -2.397  -3.475  0.00  0.00    +0.013 A 
ATOM     19  C   UNL     1       1.637  -2.470  -4.848  0.00  0.00    +0.004 A 
ATOM     20  C   UNL     1       0.973  -3.461  -5.550  0.00  0.00    +0.041 A 
ATOM     21  C   UNL     1       0.191  -4.386  -4.880  0.00  0.00    +0.159 A 
ATOM     22  C   UNL     1       0.074  -4.327  -3.501  0.00  0.00    +0.168 A 
ATOM     23  F   UNL     1      -0.685  -5.233  -2.846  0.00  0.00    -0.202 F 
ATOM     24  F   UNL     1      -0.455  -5.350  -5.572  0.00  0.00    -0.202 F 
ENDBRANCH   5  17
BRANCH   3  25
ATOM     25  N   UNL     1      -0.333  -0.373  -2.418  0.00  0.00    -0.343 N 
ATOM     26  H   UNL     1      -0.523   0.559  -2.606  0.00  0.00    +0.144 HD
ATOM     27  H   UNL     1      -0.191  -0.996  -3.148  0.00  0.00    +0.144 HD
ENDBRANCH   3  25
BRANCH  14  28
ATOM     28  C   UNL     1       3.961  -7.757   3.542  0.00  0.00    +0.119 C 
BRANCH  28  29
ATOM     29  C   UNL     1       3.636  -8.117   4.969  0.00  0.00    -0.033 A 
ATOM     30  C   UNL     1       3.828  -7.189   5.976  0.00  0.00    +0.008 A 
ATOM     31  C   UNL     1       3.530  -7.519   7.285  0.00  0.00    +0.038 A 
ATOM     32  C   UNL     1       3.040  -8.777   7.587  0.00  0.00    +0.123 A 
ATOM     33  C   UNL     1       2.848  -9.705   6.577  0.00  0.00    +0.038 A 
ATOM     34  C   UNL     1       3.142  -9.372   5.269  0.00  0.00    +0.008 A 
ATOM     35  F   UNL     1       2.749  -9.100   8.866  0.00  0.00    -0.205 F 
ENDBRANCH  28  29
ENDBRANCH  14  28
TORSDOF 4
