REMARK  Name = ZINC63044476
REMARK  6 active torsions:
REMARK  status: ('A' for Active; 'I' for Inactive)
REMARK    1  A    between atoms: C_1  and  C_2
REMARK    2  A    between atoms: C_2  and  C_3
REMARK    3  A    between atoms: C_3  and  C_5
REMARK    4  A    between atoms: C_3  and  C_16
REMARK    5  A    between atoms: C_6  and  N_13
REMARK    6  A    between atoms: C_16  and  C_18
REMARK                            x       y       z     vdW  Elec       q    Type
REMARK                         _______ _______ _______ _____ _____    ______ ____
ROOT
ATOM      1  C   UNL     1       2.165  -0.079  -1.208  0.00  0.00    +0.096 A 
ATOM      2  C   UNL     1       2.786   0.709  -2.101  0.00  0.00    +0.224 A 
ATOM      3  N   UNL     1       4.110   0.850  -1.694  0.00  0.00    -0.274 N 
ATOM      4  C   UNL     1       5.254   1.489  -2.119  0.00  0.00    +0.102 A 
ATOM      5  C   UNL     1       6.390   1.384  -1.431  0.00  0.00    +0.067 A 
ATOM      6  S   UNL     1       5.903   0.329  -0.074  0.00  0.00    -0.058 S 
ATOM      7  C   UNL     1       4.202   0.112  -0.543  0.00  0.00    +0.179 A 
ATOM      8  N   UNL     1       3.051  -0.427  -0.262  0.00  0.00    -0.224 NA
ENDROOT
BRANCH   2   9
ATOM      9  N   UNL     1       2.172   1.318  -3.304  0.00  0.00    +0.076 N 
ATOM     10  O   UNL     1       2.185   0.723  -4.356  0.00  0.00    -0.125 OA
ATOM     11  O   UNL     1       1.659   2.410  -3.233  0.00  0.00    -0.125 OA
ENDBRANCH   2   9
BRANCH   1  12
ATOM     12  C   UNL     1       0.718  -0.497  -1.257  0.00  0.00    +0.055 C 
BRANCH  12  13
ATOM     13  C   UNL     1       0.630  -2.023  -1.329  0.00  0.00    +0.063 C 
ATOM     14  C   UNL     1      -0.831  -2.442  -1.504  0.00  0.00    +0.020 C 
ATOM     15 BR   UNL     1       1.340  -2.800   0.332  0.00  0.00    -0.088 Br
ENDBRANCH  12  13
BRANCH  12  17
ATOM     16  C   UNL     1      -0.019   1.526   0.010  0.00  0.00    +0.004 C 
ATOM     17  C   UNL     1       0.002  -0.004   0.002  0.00  0.00    +0.007 C 
ENDBRANCH  12  17
ENDBRANCH   1  12
TORSDOF 4
