REMARK  Name = ZINC18038721
REMARK  8 active torsions:
REMARK  status: ('A' for Active; 'I' for Inactive)
REMARK    1  A    between atoms: C_1  and  C_2
REMARK    2  A    between atoms: C_5  and  O_8
REMARK    3  A    between atoms: O_8  and  C_9
REMARK    4  A    between atoms: C_9  and  C_10
REMARK    5  A    between atoms: C_12  and  C_31
REMARK    6  A    between atoms: C_13  and  C_15
REMARK    7  A    between atoms: N_17  and  N_18
REMARK    8  A    between atoms: C_24  and  C_27
REMARK                            x       y       z     vdW  Elec       q    Type
REMARK                         _______ _______ _______ _____ _____    ______ ____
ROOT
ATOM      1  C   UNL     1       2.515   3.238  -0.005  0.00  0.00    +0.269 C 
ATOM      2  O   UNL     1       3.731   3.205  -0.017  0.00  0.00    -0.268 OA
ATOM      3  N   UNL     1       1.872   4.423   0.008  0.00  0.00    -0.219 N 
ATOM      4  H   UNL     1       0.903   4.449   0.017  0.00  0.00    +0.174 HD
ENDROOT
BRANCH   3   5
ATOM      5  N   UNL     1       2.605   5.617   0.007  0.00  0.00    -0.137 N 
ATOM      6  C   UNL     1       2.745   6.420  -1.069  0.00  0.00    +0.263 C 
ATOM      7  O   UNL     1       2.279   6.252  -2.175  0.00  0.00    -0.271 OA
ATOM      8  C   UNL     1       3.605   7.572  -0.603  0.00  0.00    +0.114 C 
ATOM      9  C   UNL     1       2.843   8.887  -0.725  0.00  0.00    +0.035 C 
ATOM     10  C   UNL     1       3.720  10.037  -0.223  0.00  0.00    +0.006 C 
ATOM     11  C   UNL     1       5.006  10.095  -1.049  0.00  0.00    -0.014 C 
ATOM     12  C   UNL     1       5.771   8.778  -0.896  0.00  0.00    +0.006 C 
ATOM     13  C   UNL     1       4.903   7.623  -1.401  0.00  0.00    +0.035 C 
ATOM     14  C   UNL     1       5.878  11.251  -0.555  0.00  0.00    +0.007 C 
ATOM     15  N   UNL     1       3.879   7.265   0.807  0.00  0.00    -0.284 N 
ATOM     16  C   UNL     1       3.249   6.105   1.074  0.00  0.00    +0.326 C 
ATOM     17  O   UNL     1       3.265   5.562   2.161  0.00  0.00    -0.251 OA
ATOM     18  H   UNL     1       4.407   7.795   1.425  0.00  0.00    +0.151 HD
ENDBRANCH   3   5
BRANCH   1  22
ATOM     19  C   UNL     1       0.002  -0.004   0.002  0.00  0.00    +0.117 A 
ATOM     20  N   UNL     1       1.292  -0.269  -0.012  0.00  0.00    -0.245 NA
ATOM     21  C   UNL     1       2.189   0.683  -0.015  0.00  0.00    +0.058 A 
ATOM     22  C   UNL     1       1.747   1.988  -0.004  0.00  0.00    +0.098 A 
ATOM     23  S   UNL     1      -0.021   1.732   0.012  0.00  0.00    -0.064 S 
ATOM     24  C   UNL     1       3.662   0.362  -0.031  0.00  0.00    +0.067 C 
BRANCH  19  25
ATOM     25  C   UNL     1      -1.159  -0.964   0.007  0.00  0.00    +0.291 C 
BRANCH  25  26
ATOM     26  O   UNL     1      -1.514  -1.276   1.357  0.00  0.00    -0.485 OA
BRANCH  26  31
ATOM     27  C   UNL     1      -5.810  -4.838   2.115  0.00  0.00    +0.044 C 
ATOM     28  C   UNL     1      -4.660  -3.885   1.912  0.00  0.00    -0.050 A 
ATOM     29  C   UNL     1      -4.002  -3.355   3.006  0.00  0.00    +0.007 A 
ATOM     30  C   UNL     1      -2.948  -2.481   2.823  0.00  0.00    +0.046 A 
ATOM     31  C   UNL     1      -2.550  -2.135   1.539  0.00  0.00    +0.121 A 
ATOM     32  C   UNL     1      -3.216  -2.664   0.443  0.00  0.00    +0.046 A 
ATOM     33  C   UNL     1      -4.266  -3.542   0.632  0.00  0.00    +0.007 A 
ENDBRANCH  26  31
ENDBRANCH  25  26
ENDBRANCH  19  25
ENDBRANCH   1  22
TORSDOF 5
