REMARK  Name = ZINC65479859
REMARK  11 active torsions:
REMARK  status: ('A' for Active; 'I' for Inactive)
REMARK    1  A    between atoms: C_1  and  C_2
REMARK    2  A    between atoms: C_2  and  C_3
REMARK    3  A    between atoms: C_2  and  N_14
REMARK    4  A    between atoms: C_6  and  S_9
REMARK    5  A    between atoms: S_9  and  N_12
REMARK    6  A    between atoms: N_12  and  C_13
REMARK    7  A    between atoms: N_17  and  C_18
REMARK    8  A    between atoms: C_18  and  C_19
REMARK    9  A    between atoms: C_19  and  N_25
REMARK   10  A    between atoms: N_25  and  C_26
REMARK   11  A    between atoms: N_25  and  C_27
REMARK                            x       y       z     vdW  Elec       q    Type
REMARK                         _______ _______ _______ _____ _____    ______ ____
ROOT
ATOM      1  N   UNL     1       0.945  -0.727  -1.084  0.00  0.00    -0.293 N 
ATOM      2  C   UNL     1       0.218  -0.827  -2.214  0.00  0.00    +0.300 C 
ATOM      3  O   UNL     1      -0.968  -0.559  -2.200  0.00  0.00    -0.253 OA
ATOM      4  N   UNL     1       0.806  -1.223  -3.361  0.00  0.00    -0.301 N 
ATOM      5  H   UNL     1       1.891  -0.941  -1.095  0.00  0.00    +0.151 HD
ATOM      6  H   UNL     1       1.752  -1.437  -3.372  0.00  0.00    +0.150 HD
ENDROOT
BRANCH   1   8
ATOM      7  C   UNL     1       0.279   1.232   0.219  0.00  0.00    +0.033 C 
ATOM      8  C   UNL     1       0.306  -0.296   0.162  0.00  0.00    +0.102 C 
BRANCH   8   9
ATOM      9  C   UNL     1       1.086  -0.829   1.337  0.00  0.00    -0.027 A 
ATOM     10  C   UNL     1       2.468  -0.833   1.305  0.00  0.00    +0.007 A 
ATOM     11  C   UNL     1       3.183  -1.321   2.382  0.00  0.00    +0.029 A 
ATOM     12  C   UNL     1       2.516  -1.806   3.491  0.00  0.00    +0.105 A 
ATOM     13  C   UNL     1       1.134  -1.802   3.524  0.00  0.00    +0.029 A 
ATOM     14  C   UNL     1       0.419  -1.309   2.448  0.00  0.00    +0.007 A 
BRANCH  12  15
ATOM     15  S   UNL     1       3.428  -2.430   4.864  0.00  0.00    +0.058 S 
ATOM     16  O   UNL     1       2.565  -3.327   5.551  0.00  0.00    -0.153 OA
ATOM     17  O   UNL     1       4.696  -2.827   4.363  0.00  0.00    -0.153 OA
BRANCH  15  18
ATOM     18  N   UNL     1       3.701  -1.159   5.889  0.00  0.00    -0.193 NA
ATOM     19  C   UNL     1       2.575  -0.500   6.557  0.00  0.00    +0.127 C 
ATOM     20  H   UNL     1       4.607  -0.850   6.048  0.00  0.00    +0.148 HD
ENDBRANCH  15  18
ENDBRANCH  12  15
ENDBRANCH   8   9
ENDBRANCH   1   8
BRANCH   4  21
ATOM     21  C   UNL     1       0.016  -1.331  -4.590  0.00  0.00    +0.094 C 
BRANCH  21  22
ATOM     22  C   UNL     1       0.941  -1.658  -5.764  0.00  0.00    -0.050 C 
ATOM     23  C   UNL     1       0.137  -1.643  -7.066  0.00  0.00    -0.010 C 
ATOM     24  C   UNL     1      -0.978  -2.688  -6.989  0.00  0.00    -0.001 C 
ATOM     25  C   UNL     1      -0.364  -4.075  -6.784  0.00  0.00    -0.000 C 
ATOM     26  C   UNL     1       0.440  -4.090  -5.482  0.00  0.00    -0.001 C 
ATOM     27  C   UNL     1       1.554  -3.045  -5.559  0.00  0.00    -0.010 C 
BRANCH  22  28
ATOM     28  N   UNL     1       2.011  -0.655  -5.838  0.00  0.00    +0.381 N 
ATOM     29  C   UNL     1       2.879  -0.948  -6.986  0.00  0.00    -0.096 C 
ATOM     30  C   UNL     1       1.420   0.680  -5.999  0.00  0.00    -0.096 C 
ATOM     31  H   UNL     1       2.556  -0.681  -4.989  0.00  0.00    -0.082 HD
ENDBRANCH  22  28
ENDBRANCH  21  22
ENDBRANCH   4  21
TORSDOF 7
