REMARK  Name = ZINC28057373
REMARK  4 active torsions:
REMARK  status: ('A' for Active; 'I' for Inactive)
REMARK    1  A    between atoms: C_1  and  C_2
REMARK    2  A    between atoms: N_4  and  C_5
REMARK    3  A    between atoms: C_8  and  C_11
REMARK    4  A    between atoms: C_28  and  C_30
REMARK                            x       y       z     vdW  Elec       q    Type
REMARK                         _______ _______ _______ _____ _____    ______ ____
ROOT
ATOM      1  C   UNL     1       4.200  -2.843   0.552  0.00  0.00    +0.234 C 
ATOM      2  C   UNL     1       3.605  -1.479   0.285  0.00  0.00    +0.026 C 
ATOM      3  C   UNL     1       4.384  -0.400   0.384  0.00  0.00    +0.050 C 
ATOM      4  C   UNL     1       5.800  -0.585   0.781  0.00  0.00    +0.038 A 
ATOM      5  C   UNL     1       6.747   0.412   0.584  0.00  0.00    +0.013 A 
ATOM      6  C   UNL     1       8.055   0.196   0.972  0.00  0.00    +0.001 A 
ATOM      7  C   UNL     1       8.421  -1.006   1.553  0.00  0.00    +0.004 A 
ATOM      8  C   UNL     1       7.485  -2.005   1.752  0.00  0.00    +0.046 A 
ATOM      9  C   UNL     1       6.173  -1.802   1.368  0.00  0.00    +0.131 A 
ATOM     10  O   UNL     1       5.226  -2.758   1.542  0.00  0.00    -0.479 OA
ATOM     11  N   UNL     1       3.904   0.893   0.142  0.00  0.00    -0.282 N 
ATOM     12  C   UNL     1       2.531   1.058   0.076  0.00  0.00    +0.240 A 
ATOM     13  N   UNL     1       1.792   2.129   0.098  0.00  0.00    -0.092 NA
ATOM     14  N   UNL     1       0.544   1.813   0.024  0.00  0.00    -0.021 NA
ATOM     15  N   UNL     1       0.408   0.529  -0.052  0.00  0.00    -0.042 NA
ATOM     16  N   UNL     1       1.695  -0.009  -0.025  0.00  0.00    -0.201 N 
ATOM     17  C   UNL     1       2.147  -1.391  -0.091  0.00  0.00    +0.177 C 
ATOM     18  H   UNL     1       4.611   1.726   0.013  0.00  0.00    +0.155 HD
ENDROOT
BRANCH  17  19
ATOM     19  C   UNL     1       1.960  -1.912  -1.493  0.00  0.00    +0.017 A 
ATOM     20  C   UNL     1       2.599  -1.294  -2.551  0.00  0.00    +0.009 A 
ATOM     21  C   UNL     1       2.433  -1.775  -3.836  0.00  0.00    +0.001 A 
ATOM     22  C   UNL     1       1.617  -2.867  -4.066  0.00  0.00    +0.003 A 
ATOM     23  C   UNL     1       0.971  -3.483  -3.010  0.00  0.00    +0.039 A 
ATOM     24  C   UNL     1       1.142  -3.006  -1.722  0.00  0.00    +0.129 A 
ATOM     25  F   UNL     1       0.512  -3.607  -0.689  0.00  0.00    -0.205 F 
ENDBRANCH  17  19
BRANCH   1  29
ATOM     26  C   UNL     1       5.861  -4.390  -3.069  0.00  0.00    +0.033 A 
ATOM     27  C   UNL     1       6.518  -3.381  -2.377  0.00  0.00    +0.024 A 
ATOM     28  C   UNL     1       5.979  -2.883  -1.208  0.00  0.00    +0.009 A 
ATOM     29  C   UNL     1       4.786  -3.389  -0.725  0.00  0.00    -0.003 A 
ATOM     30  C   UNL     1       4.132  -4.397  -1.408  0.00  0.00    +0.009 A 
ATOM     31  C   UNL     1       4.663  -4.896  -2.581  0.00  0.00    +0.024 A 
BRANCH  26  35
ATOM     32  C   UNL     1       8.330  -5.399  -5.725  0.00  0.00    +0.109 C 
ATOM     33  C   UNL     1       7.743  -4.965  -4.407  0.00  0.00    +0.214 C 
ATOM     34  O   UNL     1       8.474  -4.677  -3.483  0.00  0.00    -0.276 OA
ATOM     35  N   UNL     1       6.406  -4.897  -4.254  0.00  0.00    -0.286 N 
ATOM     36  H   UNL     1       5.742  -5.240  -5.061  0.00  0.00    +0.155 HD
ENDBRANCH  26  35
ENDBRANCH   1  29
TORSDOF 3
