REMARK  Name = ZINC40346858
REMARK  10 active torsions:
REMARK  status: ('A' for Active; 'I' for Inactive)
REMARK    1  A    between atoms: C_1  and  C_2
REMARK    2  A    between atoms: C_2  and  C_3
REMARK    3  A    between atoms: C_2  and  C_4
REMARK    4  A    between atoms: C_2  and  N_5
REMARK    5  A    between atoms: C_6  and  C_8
REMARK    6  A    between atoms: C_8  and  N_9
REMARK    7  A    between atoms: N_9  and  C_10
REMARK    8  A    between atoms: N_9  and  S_11
REMARK    9  A    between atoms: S_11  and  C_14
REMARK   10  A    between atoms: C_18  and  N_20
REMARK                            x       y       z     vdW  Elec       q    Type
REMARK                         _______ _______ _______ _____ _____    ______ ____
ROOT
ATOM      1  S   UNL     1       4.414   1.282  -3.496  0.00  0.00    +0.061 S 
ATOM      2  O   UNL     1       5.799   1.222  -3.805  0.00  0.00    -0.153 OA
ATOM      3  O   UNL     1       3.416   1.437  -4.496  0.00  0.00    -0.153 OA
ENDROOT
BRANCH   1   4
ATOM      4  C   UNL     1       4.207   2.619  -2.367  0.00  0.00    +0.107 A 
ATOM      5  C   UNL     1       2.978   3.242  -2.252  0.00  0.00    +0.030 A 
ATOM      6  C   UNL     1       2.811   4.291  -1.368  0.00  0.00    +0.024 A 
ATOM      7  C   UNL     1       3.873   4.721  -0.595  0.00  0.00    +0.062 A 
ATOM      8  C   UNL     1       5.109   4.096  -0.707  0.00  0.00    +0.045 A 
ATOM      9  C   UNL     1       5.271   3.039  -1.593  0.00  0.00    +0.052 A 
ATOM     10 CL   UNL     1       3.663   6.040   0.515  0.00  0.00    -0.082 Cl
BRANCH   8  11
ATOM     11  N   UNL     1       6.185   4.528   0.072  0.00  0.00    -0.357 N 
ATOM     12  H   UNL     1       6.070   5.264   0.693  0.00  0.00    +0.142 HD
ATOM     13  H   UNL     1       7.048   4.091  -0.007  0.00  0.00    +0.142 HD
ENDBRANCH   8  11
ENDBRANCH   1   4
BRANCH   1  14
ATOM     14  N   UNL     1       4.051  -0.111  -2.677  0.00  0.00    -0.171 NA
ATOM     15  C   UNL     1       5.105  -0.837  -1.964  0.00  0.00    +0.132 C 
BRANCH  14  16
ATOM     16  C   UNL     1       2.677  -0.618  -2.667  0.00  0.00    +0.204 C 
BRANCH  16  18
ATOM     17  N   UNL     1       0.688  -0.476  -1.203  0.00  0.00    -0.309 N 
ATOM     18  C   UNL     1       1.972  -0.132  -1.427  0.00  0.00    +0.229 C 
ATOM     19  O   UNL     1       2.559   0.569  -0.630  0.00  0.00    -0.274 OA
ATOM     20  H   UNL     1       0.218  -1.037  -1.840  0.00  0.00    +0.149 HD
BRANCH  17  22
ATOM     21  C   UNL     1      -0.019   1.526   0.010  0.00  0.00    +0.031 C 
ATOM     22  C   UNL     1       0.002  -0.004   0.002  0.00  0.00    +0.026 C 
ATOM     23  C   UNL     1       0.742  -0.511   1.242  0.00  0.00    +0.031 C 
ATOM     24  C   UNL     1      -1.433  -0.534   0.013  0.00  0.00    +0.031 C 
ENDBRANCH  17  22
ENDBRANCH  16  18
ENDBRANCH  14  16
ENDBRANCH   1  14
TORSDOF 6
