REMARK  Name = ZINC12372541
REMARK  9 active torsions:
REMARK  status: ('A' for Active; 'I' for Inactive)
REMARK    1  A    between atoms: C_1  and  C_2
REMARK    2  A    between atoms: C_3  and  C_8
REMARK    3  A    between atoms: N_6  and  C_7
REMARK    4  A    between atoms: C_10  and  C_30
REMARK    5  A    between atoms: C_11  and  N_29
REMARK    6  A    between atoms: C_23  and  S_25
REMARK    7  A    between atoms: S_25  and  C_26
REMARK    8  A    between atoms: C_26  and  C_27
REMARK    9  A    between atoms: C_26  and  C_28
REMARK                            x       y       z     vdW  Elec       q    Type
REMARK                         _______ _______ _______ _____ _____    ______ ____
ROOT
ATOM      1  C   UNL     1      -0.969   5.292   0.071  0.00  0.00    +0.101 C 
ATOM      2  C   UNL     1      -1.405   5.802   1.413  0.00  0.00    +0.077 C 
ATOM      3  C   UNL     1      -1.297   5.031   2.525  0.00  0.00    +0.108 C 
ATOM      4  N   UNL     1      -0.788   3.754   2.434  0.00  0.00    -0.237 N 
ATOM      5  C   UNL     1      -0.762   3.100   1.230  0.00  0.00    +0.026 C 
ATOM      6  C   UNL     1      -0.847   3.789   0.072  0.00  0.00    +0.025 C 
ATOM      7  C   UNL     1      -0.822   3.127  -1.168  0.00  0.00    +0.162 C 
ATOM      8  O   UNL     1      -0.916   3.775  -2.192  0.00  0.00    -0.292 OA
ATOM      9  C   UNL     1      -0.681   1.632  -1.251  0.00  0.00    +0.080 C 
ATOM     10  C   UNL     1       0.095   1.136  -0.027  0.00  0.00    +0.014 C 
ATOM     11  C   UNL     1      -0.638   1.596   1.236  0.00  0.00    +0.052 C 
ATOM     12  C   UNL     1      -0.296   3.123   3.574  0.00  0.00    +0.194 A 
ATOM     13  N   UNL     1      -0.898   2.301   4.418  0.00  0.00    -0.124 NA
ATOM     14  N   UNL     1      -0.301   1.810   5.414  0.00  0.00    -0.133 NA
ATOM     15  C   UNL     1       0.968   2.087   5.677  0.00  0.00    +0.160 A 
ATOM     16  S   UNL     1       1.335   3.185   4.311  0.00  0.00    -0.024 S 
ENDROOT
BRANCH   1  19
ATOM     17  C   UNL     1      -0.362   7.134  -2.384  0.00  0.00    +0.065 C 
ATOM     18  C   UNL     1       0.629   6.693  -1.339  0.00  0.00    +0.040 A 
ATOM     19  C   UNL     1       0.367   5.896  -0.276  0.00  0.00    +0.006 A 
ATOM     20  C   UNL     1       1.558   5.727   0.439  0.00  0.00    +0.139 A 
ATOM     21  N   UNL     1       2.499   6.403  -0.169  0.00  0.00    -0.179 NA
ATOM     22  N   UNL     1       1.937   7.024  -1.292  0.00  0.00    -0.271 N 
ATOM     23  C   UNL     1       2.645   7.877  -2.250  0.00  0.00    +0.172 C 
ENDBRANCH   1  19
BRANCH   3  24
ATOM     24  N   UNL     1      -1.696   5.525   3.744  0.00  0.00    -0.345 N 
ATOM     25  H   UNL     1      -1.968   6.452   3.826  0.00  0.00    +0.144 HD
ATOM     26  H   UNL     1      -1.706   4.946   4.523  0.00  0.00    +0.144 HD
ENDBRANCH   3  24
BRANCH   2  27
ATOM     27  C   UNL     1      -1.945   7.123   1.522  0.00  0.00    +0.099 C 
ATOM     28  N   UNL     1      -2.374   8.172   1.609  0.00  0.00    -0.191 NA
ENDBRANCH   2  27
BRANCH  15  29
ATOM     29  S   UNL     1       2.002   1.529   6.990  0.00  0.00    -0.094 S 
BRANCH  29  30
ATOM     30  C   UNL     1       0.925   0.441   7.964  0.00  0.00    +0.047 C 
ATOM     31  C   UNL     1       0.536  -0.777   7.124  0.00  0.00    +0.019 C 
ATOM     32  C   UNL     1       1.667  -0.021   9.219  0.00  0.00    +0.019 C 
ENDBRANCH  29  30
ENDBRANCH  15  29
TORSDOF 5
