REMARK  Name = ZINC39780854
REMARK  5 active torsions:
REMARK  status: ('A' for Active; 'I' for Inactive)
REMARK    1  A    between atoms: C_4  and  C_10
REMARK    2  A    between atoms: N_18  and  C_19
REMARK    3  A    between atoms: C_19  and  C_20
REMARK    4  A    between atoms: C_23  and  O_26
REMARK    5  A    between atoms: O_26  and  C_27
REMARK                            x       y       z     vdW  Elec       q    Type
REMARK                         _______ _______ _______ _____ _____    ______ ____
ROOT
ATOM      1  C   UNL     1       4.183   3.112  -0.026  0.00  0.00    -0.043 C 
ATOM      2  C   UNL     1       3.302   4.103  -0.109  0.00  0.00    -0.004 C 
ATOM      3  C   UNL     1       3.696   5.554  -0.132  0.00  0.00    +0.137 C 
ATOM      4  N   UNL     1       5.118   5.674   0.216  0.00  0.00    -0.282 N 
ATOM      5  C   UNL     1       6.050   4.714  -0.401  0.00  0.00    +0.114 C 
ATOM      6  C   UNL     1       5.666   3.310   0.078  0.00  0.00    +0.054 C 
ATOM      7  C   UNL     1       5.554   6.625   1.066  0.00  0.00    +0.303 C 
ATOM      8  O   UNL     1       6.745   6.761   1.267  0.00  0.00    -0.253 OA
ATOM      9  N   UNL     1       4.668   7.424   1.694  0.00  0.00    -0.295 N 
ATOM     10  H   UNL     1       3.716   7.268   1.591  0.00  0.00    +0.151 HD
ENDROOT
BRANCH   1  14
ATOM     11  C   UNL     1       6.198  -0.915   0.560  0.00  0.00    +0.020 A 
ATOM     12  C   UNL     1       5.791   0.378   0.413  0.00  0.00    +0.013 A 
ATOM     13  C   UNL     1       4.421   0.623   0.165  0.00  0.00    +0.022 A 
ATOM     14  C   UNL     1       3.693   1.791  -0.029  0.00  0.00    -0.015 C 
ATOM     15  C   UNL     1       2.263   1.346  -0.245  0.00  0.00    +0.150 C 
ATOM     16  N   UNL     1       2.276  -0.117  -0.154  0.00  0.00    -0.365 N 
ATOM     17  C   UNL     1       3.503  -0.527   0.079  0.00  0.00    +0.135 A 
ATOM     18  N   UNL     1       4.009  -1.769   0.240  0.00  0.00    -0.238 NA
ATOM     19  C   UNL     1       5.282  -1.962   0.468  0.00  0.00    +0.113 A 
ATOM     20  H   UNL     1       1.500  -0.692  -0.251  0.00  0.00    +0.161 HD
ENDBRANCH   1  14
BRANCH   9  21
ATOM     21  C   UNL     1       5.144   8.528   2.531  0.00  0.00    +0.141 C 
BRANCH  21  22
ATOM     22  C   UNL     1       3.963   9.261   3.113  0.00  0.00    -0.030 A 
ATOM     23  C   UNL     1       3.402  10.322   2.425  0.00  0.00    +0.009 A 
ATOM     24  C   UNL     1       2.319  10.996   2.957  0.00  0.00    +0.046 A 
ATOM     25  C   UNL     1       1.795  10.608   4.182  0.00  0.00    +0.130 A 
ATOM     26  C   UNL     1       2.360   9.543   4.869  0.00  0.00    +0.046 A 
ATOM     27  C   UNL     1       3.439   8.869   4.331  0.00  0.00    +0.009 A 
BRANCH  25  28
ATOM     28  O   UNL     1       0.731  11.270   4.707  0.00  0.00    -0.406 OA
BRANCH  28  29
ATOM     29  C   UNL     1       0.244  10.815   5.972  0.00  0.00    +0.575 C 
ATOM     30  F   UNL     1       1.261  10.919   6.927  0.00  0.00    -0.133 F 
ATOM     31  F   UNL     1      -0.845  11.601   6.362  0.00  0.00    -0.133 F 
ATOM     32  F   UNL     1      -0.159   9.480   5.863  0.00  0.00    -0.133 F 
ENDBRANCH  28  29
ENDBRANCH  25  28
ENDBRANCH  21  22
ENDBRANCH   9  21
TORSDOF 5
