REMARK  Name = ZINC20756644
REMARK  6 active torsions:
REMARK  status: ('A' for Active; 'I' for Inactive)
REMARK    1  A    between atoms: C_1  and  C_2
REMARK    2  A    between atoms: C_2  and  C_4
REMARK    3  A    between atoms: C_2  and  N_10
REMARK    4  A    between atoms: C_11  and  C_13
REMARK    5  A    between atoms: C_20  and  C_29
REMARK    6  A    between atoms: C_32  and  N_35
REMARK                            x       y       z     vdW  Elec       q    Type
REMARK                         _______ _______ _______ _____ _____    ______ ____
ROOT
ATOM      1  C   UNL     1      -5.562   3.645  -1.972  0.00  0.00    +0.058 A 
ATOM      2  C   UNL     1      -6.901   4.029  -1.902  0.00  0.00    +0.015 A 
ATOM      3  C   UNL     1      -7.346   4.759  -0.822  0.00  0.00    +0.001 A 
ATOM      4  C   UNL     1      -6.470   5.111   0.189  0.00  0.00    +0.006 A 
ATOM      5  C   UNL     1      -5.134   4.740   0.138  0.00  0.00    -0.019 A 
ATOM      6  C   UNL     1      -4.672   4.005  -0.941  0.00  0.00    +0.044 A 
ATOM      7  N   UNL     1      -3.351   3.599  -1.049  0.00  0.00    -0.336 N 
ATOM      8  C   UNL     1      -2.439   4.483  -0.323  0.00  0.00    +0.105 C 
ATOM      9  C   UNL     1      -2.841   4.528   1.153  0.00  0.00    +0.029 C 
ATOM     10  C   UNL     1      -4.244   5.162   1.270  0.00  0.00    +0.049 C 
ATOM     11  C   UNL     1      -3.982   6.649   1.213  0.00  0.00    -0.023 C 
ATOM     12  C   UNL     1      -2.737   6.909   1.526  0.00  0.00    -0.030 C 
ATOM     13  C   UNL     1      -1.991   5.628   1.846  0.00  0.00    +0.033 C 
ATOM     14  H   UNL     1      -2.956   2.730  -1.596  0.00  0.00    +0.147 HD
ENDROOT
BRANCH   8  15
ATOM     15  C   UNL     1      -1.030   3.961  -0.444  0.00  0.00    -0.027 A 
ATOM     16  C   UNL     1      -0.789   2.601  -0.379  0.00  0.00    +0.008 A 
ATOM     17  C   UNL     1       0.503   2.122  -0.485  0.00  0.00    +0.033 A 
ATOM     18  C   UNL     1       1.553   3.003  -0.667  0.00  0.00    +0.126 A 
ATOM     19  C   UNL     1       1.312   4.362  -0.738  0.00  0.00    +0.033 A 
ATOM     20  C   UNL     1       0.020   4.841  -0.627  0.00  0.00    +0.008 A 
BRANCH  18  21
ATOM     21  N   UNL     1       2.937   2.490  -0.787  0.00  0.00    +0.056 N 
ATOM     22  O   UNL     1       3.150   1.292  -0.725  0.00  0.00    -0.126 OA
ATOM     23  O   UNL     1       3.862   3.265  -0.948  0.00  0.00    -0.126 OA
ENDBRANCH  18  21
ENDBRANCH   8  15
BRANCH   1  25
ATOM     24  N   UNL     1      -5.892   2.635  -4.173  0.00  0.00    -0.305 N 
ATOM     25  C   UNL     1      -5.077   2.864  -3.124  0.00  0.00    +0.246 C 
ATOM     26  O   UNL     1      -3.943   2.425  -3.128  0.00  0.00    -0.270 OA
ATOM     27  H   UNL     1      -6.918   3.031  -4.170  0.00  0.00    +0.150 HD
BRANCH  24  29
ATOM     28  C   UNL     1      -5.596   0.366  -5.037  0.00  0.00    +0.033 C 
ATOM     29  C   UNL     1      -5.410   1.858  -5.319  0.00  0.00    +0.100 C 
BRANCH  29  30
ATOM     30  C   UNL     1      -6.194   2.239  -6.548  0.00  0.00    -0.027 A 
ATOM     31  C   UNL     1      -7.556   2.455  -6.461  0.00  0.00    +0.005 A 
ATOM     32  C   UNL     1      -8.274   2.808  -7.588  0.00  0.00    +0.000 A 
ATOM     33  C   UNL     1      -7.631   2.937  -8.805  0.00  0.00    +0.000 A 
ATOM     34  C   UNL     1      -6.269   2.716  -8.893  0.00  0.00    +0.000 A 
ATOM     35  C   UNL     1      -5.551   2.366  -7.765  0.00  0.00    +0.005 A 
ENDBRANCH  29  30
ENDBRANCH  24  29
ENDBRANCH   1  25
TORSDOF 5
