REMARK  Name = ZINC62607779
REMARK  6 active torsions:
REMARK  status: ('A' for Active; 'I' for Inactive)
REMARK    1  A    between atoms: C_1  and  C_2
REMARK    2  A    between atoms: C_2  and  C_3
REMARK    3  A    between atoms: C_2  and  C_4
REMARK    4  A    between atoms: C_7  and  C_10
REMARK    5  A    between atoms: C_18  and  O_20
REMARK    6  A    between atoms: O_20  and  C_21
REMARK                            x       y       z     vdW  Elec       q    Type
REMARK                         _______ _______ _______ _____ _____    ______ ____
ROOT
ATOM      1  C   UNL     1      -5.407  -2.020   0.036  0.00  0.00    +0.195 C 
ATOM      2  C   UNL     1      -5.414  -3.483   0.386  0.00  0.00    +0.238 C 
ATOM      3  O   UNL     1      -4.751  -3.855   1.331  0.00  0.00    -0.273 OA
ATOM      4  N   UNL     1      -6.116  -4.390  -0.296  0.00  0.00    -0.312 N 
ATOM      5  C   UNL     1      -6.882  -4.107  -1.502  0.00  0.00    +0.123 C 
ATOM      6  C   UNL     1      -7.231  -2.620  -1.586  0.00  0.00    +0.131 C 
ATOM      7  N   UNL     1      -6.015  -1.842  -1.291  0.00  0.00    -0.250 N 
ATOM      8  C   UNL     1      -5.479  -1.005  -2.201  0.00  0.00    +0.404 C 
ATOM      9  O   UNL     1      -4.433  -0.434  -1.960  0.00  0.00    -0.226 OA
ATOM     10  H   UNL     1      -6.115  -5.302   0.034  0.00  0.00    +0.149 HD
ENDROOT
BRANCH   1  14
ATOM     11  C   UNL     1      -1.385  -0.584  -0.025  0.00  0.00    -0.045 A 
ATOM     12  C   UNL     1      -2.330   0.041   0.767  0.00  0.00    +0.004 A 
ATOM     13  C   UNL     1      -3.632  -0.424   0.787  0.00  0.00    +0.006 A 
ATOM     14  C   UNL     1      -3.989  -1.513   0.014  0.00  0.00    -0.018 A 
ATOM     15  C   UNL     1      -3.044  -2.137  -0.779  0.00  0.00    +0.006 A 
ATOM     16  C   UNL     1      -1.743  -1.670  -0.802  0.00  0.00    +0.004 A 
BRANCH  11  18
ATOM     17  C   UNL     1       0.050   1.377  -0.521  0.00  0.00    +0.012 C 
ATOM     18  C   UNL     1       0.034  -0.078  -0.046  0.00  0.00    +0.013 C 
ATOM     19  C   UNL     1       0.627  -0.160   1.362  0.00  0.00    +0.012 C 
ENDBRANCH  11  18
ENDBRANCH   1  14
BRANCH   8  20
ATOM     20  O   UNL     1      -6.102  -0.801  -3.377  0.00  0.00    -0.454 OA
ATOM     21  C   UNL     1      -5.477   0.100  -4.294  0.00  0.00    +0.282 C 
ENDBRANCH   8  20
TORSDOF 3
