REMARK  Name = ZINC39916012
REMARK  13 active torsions:
REMARK  status: ('A' for Active; 'I' for Inactive)
REMARK    1  A    between atoms: C_1  and  C_2
REMARK    2  A    between atoms: C_6  and  O_8
REMARK    3  A    between atoms: O_8  and  C_9
REMARK    4  A    between atoms: C_9  and  C_10
REMARK    5  A    between atoms: C_10  and  C_11
REMARK    6  A    between atoms: C_11  and  N_12
REMARK    7  A    between atoms: C_20  and  S_21
REMARK    8  A    between atoms: S_21  and  C_22
REMARK    9  A    between atoms: C_24  and  O_37
REMARK   10  A    between atoms: C_26  and  O_36
REMARK   11  A    between atoms: C_28  and  O_35
REMARK   12  A    between atoms: C_30  and  C_33
REMARK   13  A    between atoms: C_33  and  O_34
REMARK                            x       y       z     vdW  Elec       q    Type
REMARK                         _______ _______ _______ _____ _____    ______ ____
ROOT
ATOM      1  N   UNL     1       0.116  -6.893   4.943  0.00  0.00    -0.318 N 
ATOM      2  C   UNL     1       1.239  -7.192   5.697  0.00  0.00    +0.069 A 
ATOM      3  C   UNL     1       2.603  -7.077   5.477  0.00  0.00    +0.028 A 
ATOM      4  C   UNL     1       3.493  -7.474   6.455  0.00  0.00    +0.002 A 
ATOM      5  C   UNL     1       3.031  -7.989   7.657  0.00  0.00    +0.002 A 
ATOM      6  C   UNL     1       1.680  -8.112   7.892  0.00  0.00    +0.030 A 
ATOM      7  C   UNL     1       0.766  -7.713   6.913  0.00  0.00    +0.090 A 
ATOM      8  N   UNL     1      -0.591  -7.709   6.849  0.00  0.00    -0.222 NA
ATOM      9  C   UNL     1      -0.976  -7.222   5.695  0.00  0.00    +0.172 A 
ENDROOT
BRANCH   1  10
ATOM     10  C   UNL     1       0.103  -6.324   3.593  0.00  0.00    +0.127 C 
BRANCH  10  11
ATOM     11  C   UNL     1       0.083  -4.796   3.683  0.00  0.00    +0.063 C 
BRANCH  11  12
ATOM     12  C   UNL     1       0.069  -4.202   2.274  0.00  0.00    +0.231 C 
BRANCH  12  13
ATOM     13  O   UNL     1       0.050  -2.776   2.358  0.00  0.00    -0.492 OA
BRANCH  13  19
ATOM     14  C   UNL     1      -0.018   1.503   0.010  0.00  0.00    +0.044 C 
ATOM     15  C   UNL     1       0.002  -0.004   0.002  0.00  0.00    -0.047 A 
ATOM     16  C   UNL     1       0.006  -0.688  -1.200  0.00  0.00    +0.003 A 
ATOM     17  C   UNL     1       0.024  -2.071  -1.211  0.00  0.00    +0.004 A 
ATOM     18  C   UNL     1       0.039  -2.772  -0.020  0.00  0.00    +0.045 A 
ATOM     19  C   UNL     1       0.035  -2.088   1.186  0.00  0.00    +0.121 A 
ATOM     20  C   UNL     1       0.023  -0.700   1.195  0.00  0.00    +0.049 A 
ENDBRANCH  13  19
ENDBRANCH  12  13
ENDBRANCH  11  12
ENDBRANCH  10  11
ENDBRANCH   1  10
BRANCH   9  21
ATOM     21  S   UNL     1      -2.651  -7.026   5.186  0.00  0.00    -0.054 S 
BRANCH  21  22
ATOM     22  C   UNL     1      -3.613  -7.633   6.600  0.00  0.00    +0.214 C 
ATOM     23  C   UNL     1      -5.086  -7.752   6.202  0.00  0.00    +0.185 C 
ATOM     24  C   UNL     1      -5.900  -8.207   7.417  0.00  0.00    +0.177 C 
ATOM     25  C   UNL     1      -5.686  -7.213   8.562  0.00  0.00    +0.176 C 
ATOM     26  C   UNL     1      -4.190  -7.114   8.869  0.00  0.00    +0.176 C 
ATOM     27  O   UNL     1      -3.488  -6.716   7.690  0.00  0.00    -0.355 OA
BRANCH  25  28
ATOM     28  O   UNL     1      -6.182  -5.928   8.179  0.00  0.00    -0.386 OA
ATOM     29  H   UNL     1      -7.125  -5.919   7.965  0.00  0.00    +0.210 HD
ENDBRANCH  25  28
BRANCH  24  30
ATOM     30  O   UNL     1      -7.287  -8.253   7.074  0.00  0.00    -0.386 OA
ATOM     31  H   UNL     1      -7.493  -8.860   6.350  0.00  0.00    +0.210 HD
ENDBRANCH  24  30
BRANCH  23  32
ATOM     32  O   UNL     1      -5.564  -6.482   5.754  0.00  0.00    -0.386 OA
ATOM     33  H   UNL     1      -5.090  -6.131   4.987  0.00  0.00    +0.210 HD
ENDBRANCH  23  32
BRANCH  26  34
ATOM     34  C   UNL     1      -3.962  -6.078   9.972  0.00  0.00    +0.190 C 
BRANCH  34  35
ATOM     35  O   UNL     1      -2.581  -6.069  10.340  0.00  0.00    -0.392 OA
ATOM     36  H   UNL     1      -2.364  -5.434  11.036  0.00  0.00    +0.210 HD
ENDBRANCH  34  35
ENDBRANCH  26  34
ENDBRANCH  21  22
ENDBRANCH   9  21
TORSDOF 12
