REMARK  Name = ZINC10336961
REMARK  5 active torsions:
REMARK  status: ('A' for Active; 'I' for Inactive)
REMARK    1  A    between atoms: C_1  and  C_2
REMARK    2  A    between atoms: C_2  and  O_3
REMARK    3  A    between atoms: O_3  and  C_4
REMARK    4  A    between atoms: C_7  and  C_10
REMARK    5  A    between atoms: C_27  and  C_29
REMARK                            x       y       z     vdW  Elec       q    Type
REMARK                         _______ _______ _______ _____ _____    ______ ____
ROOT
ATOM      1  C   UNL     1      -2.001  -6.092  -0.011  0.00  0.00    +0.234 C 
ATOM      2  C   UNL     1      -2.179  -6.565  -1.424  0.00  0.00    +0.027 C 
ATOM      3  C   UNL     1      -3.408  -6.644  -1.973  0.00  0.00    +0.083 C 
ATOM      4  C   UNL     1      -4.563  -6.258  -1.123  0.00  0.00    +0.042 A 
ATOM      5  C   UNL     1      -5.811  -5.992  -1.671  0.00  0.00    +0.013 A 
ATOM      6  C   UNL     1      -6.857  -5.634  -0.842  0.00  0.00    +0.001 A 
ATOM      7  C   UNL     1      -6.664  -5.542   0.525  0.00  0.00    +0.004 A 
ATOM      8  C   UNL     1      -5.424  -5.805   1.078  0.00  0.00    +0.046 A 
ATOM      9  C   UNL     1      -4.367  -6.165   0.261  0.00  0.00    +0.131 A 
ATOM     10  O   UNL     1      -3.144  -6.436   0.774  0.00  0.00    -0.479 OA
ATOM     11  N   UNL     1      -3.590  -7.062  -3.251  0.00  0.00    -0.213 NA
ATOM     12  C   UNL     1      -2.620  -7.425  -4.049  0.00  0.00    +0.232 C 
ATOM     13  N   UNL     1      -2.590  -7.869  -5.336  0.00  0.00    -0.231 N 
ATOM     14  N   UNL     1      -1.376  -8.105  -5.686  0.00  0.00    -0.086 NA
ATOM     15  N   UNL     1      -0.553  -7.853  -4.726  0.00  0.00    -0.165 N 
ATOM     16  N   UNL     1      -1.301  -7.407  -3.637  0.00  0.00    -0.193 N 
ATOM     17  C   UNL     1      -0.992  -6.966  -2.273  0.00  0.00    +0.162 C 
ATOM     18  H   UNL     1       0.411  -7.956  -4.756  0.00  0.00    +0.195 HD
ATOM     19  H   UNL     1      -3.368  -7.989  -5.903  0.00  0.00    +0.193 HD
ENDROOT
BRANCH   1  23
ATOM     20  C   UNL     1      -1.498  -1.848   0.006  0.00  0.00    +0.121 A 
ATOM     21  C   UNL     1      -0.388  -2.679  -0.003  0.00  0.00    +0.046 A 
ATOM     22  C   UNL     1      -0.553  -4.051  -0.008  0.00  0.00    +0.011 A 
ATOM     23  C   UNL     1      -1.823  -4.596  -0.005  0.00  0.00    -0.003 A 
ATOM     24  C   UNL     1      -2.932  -3.769   0.004  0.00  0.00    +0.011 A 
ATOM     25  C   UNL     1      -2.772  -2.397   0.016  0.00  0.00    +0.046 A 
BRANCH  20  26
ATOM     26  O   UNL     1      -1.339  -0.499   0.012  0.00  0.00    -0.492 OA
BRANCH  26  28
ATOM     27  C   UNL     1      -0.019   1.526   0.010  0.00  0.00    +0.048 C 
ATOM     28  C   UNL     1       0.002  -0.004   0.002  0.00  0.00    +0.225 C 
ENDBRANCH  26  28
ENDBRANCH  20  26
ENDBRANCH   1  23
BRANCH  17  29
ATOM     29  C   UNL     1      -0.266  -8.083  -1.570  0.00  0.00    -0.003 A 
ATOM     30  C   UNL     1       0.877  -7.822  -0.830  0.00  0.00    +0.009 A 
ATOM     31  C   UNL     1       1.512  -8.881  -0.200  0.00  0.00    +0.020 A 
ATOM     32  C   UNL     1       0.989 -10.153  -0.330  0.00  0.00    +0.111 A 
ATOM     33  N   UNL     1      -0.100 -10.365  -1.042  0.00  0.00    -0.263 NA
ATOM     34  C   UNL     1      -0.734  -9.381  -1.650  0.00  0.00    +0.116 A 
ENDBRANCH  17  29
TORSDOF 4
