REMARK  Name = ZINC12957794
REMARK  8 active torsions:
REMARK  status: ('A' for Active; 'I' for Inactive)
REMARK    1  A    between atoms: C_6  and  C_7
REMARK    2  A    between atoms: C_7  and  O_8
REMARK    3  A    between atoms: O_8  and  N_9
REMARK    4  A    between atoms: N_11  and  C_12
REMARK    5  A    between atoms: C_13  and  C_37
REMARK    6  A    between atoms: C_15  and  C_35
REMARK    7  A    between atoms: C_16  and  N_18
REMARK    8  A    between atoms: C_27  and  C_30
REMARK                            x       y       z     vdW  Elec       q    Type
REMARK                         _______ _______ _______ _____ _____    ______ ____
ROOT
ATOM      1  C   UNL     1      -5.126  -2.913  -3.986  0.00  0.00    +0.174 A 
ATOM      2  C   UNL     1      -6.340  -3.631  -4.081  0.00  0.00    +0.097 A 
ATOM      3  C   UNL     1      -6.856  -3.927  -5.344  0.00  0.00    +0.045 A 
ATOM      4  C   UNL     1      -6.145  -3.499  -6.468  0.00  0.00    +0.093 A 
ATOM      5  C   UNL     1      -4.942  -2.787  -6.291  0.00  0.00    +0.141 A 
ATOM      6  N   UNL     1      -4.484  -2.519  -5.080  0.00  0.00    -0.211 NA
ENDROOT
BRANCH   5   7
ATOM      7  N   UNL     1      -4.234  -2.361  -7.397  0.00  0.00    -0.311 N 
ATOM      8  C   UNL     1      -4.505  -1.047  -7.997  0.00  0.00    +0.125 C 
ATOM      9  C   UNL     1      -3.193  -0.254  -8.053  0.00  0.00    +0.125 C 
ATOM     10  N   UNL     1      -2.155  -1.105  -8.651  0.00  0.00    -0.311 N 
ATOM     11  C   UNL     1      -1.884  -2.419  -8.051  0.00  0.00    +0.125 C 
ATOM     12  C   UNL     1      -3.192  -3.210  -7.991  0.00  0.00    +0.125 C 
ATOM     13  C   UNL     1      -1.442  -0.676  -9.765  0.00  0.00    +0.140 A 
ATOM     14  C   UNL     1      -0.248   0.020  -9.594  0.00  0.00    +0.081 A 
ATOM     15  C   UNL     1       0.452   0.441 -10.711  0.00  0.00    +0.037 A 
ATOM     16  C   UNL     1      -0.068   0.151 -11.966  0.00  0.00    +0.074 A 
ATOM     17  C   UNL     1      -1.257  -0.543 -12.062  0.00  0.00    +0.125 A 
ATOM     18  N   UNL     1      -1.901  -0.937 -10.978  0.00  0.00    -0.238 NA
ATOM     19 CL   UNL     1       0.355   0.355  -8.000  0.00  0.00    -0.080 Cl
BRANCH  16  20
ATOM     20  C   UNL     1       0.659   0.591 -13.211  0.00  0.00    +0.419 C 
ATOM     21  F   UNL     1       1.550  -0.412 -13.609  0.00  0.00    -0.166 F 
ATOM     22  F   UNL     1      -0.267   0.825 -14.233  0.00  0.00    -0.166 F 
ATOM     23  F   UNL     1       1.368   1.767 -12.946  0.00  0.00    -0.166 F 
ENDBRANCH  16  20
ENDBRANCH   5   7
BRANCH   1  26
ATOM     24  N   UNL     1      -2.980  -1.654  -1.439  0.00  0.00    -0.254 N 
ATOM     25  C   UNL     1      -3.494  -1.949  -2.665  0.00  0.00    +0.220 C 
ATOM     26  N   UNL     1      -4.613  -2.618  -2.761  0.00  0.00    -0.216 NA
ATOM     27  H   UNL     1      -3.444  -1.939  -0.637  0.00  0.00    +0.195 HD
BRANCH  24  28
ATOM     28  O   UNL     1      -1.767  -0.930  -1.335  0.00  0.00    -0.268 OA
BRANCH  28  29
ATOM     29  C   UNL     1      -1.346  -0.691   0.009  0.00  0.00    +0.228 C 
BRANCH  29  35
ATOM     30  C   UNL     1      -0.074   1.465   0.006  0.00  0.00    +0.007 A 
ATOM     31  C   UNL     1       1.112   2.175  -0.001  0.00  0.00    +0.020 A 
ATOM     32  C   UNL     1       2.320   1.502  -0.015  0.00  0.00    +0.041 A 
ATOM     33  C   UNL     1       2.341   0.118  -0.021  0.00  0.00    +0.020 A 
ATOM     34  C   UNL     1       1.155  -0.590  -0.013  0.00  0.00    +0.007 A 
ATOM     35  C   UNL     1      -0.053   0.083   0.000  0.00  0.00    -0.019 A 
ATOM     36 CL   UNL     1       3.810   2.393  -0.025  0.00  0.00    -0.084 Cl
ENDBRANCH  29  35
ENDBRANCH  28  29
ENDBRANCH  24  28
ENDBRANCH   1  26
BRANCH   4  37
ATOM     37  C   UNL     1      -6.634  -3.779  -7.785  0.00  0.00    +0.103 C 
ATOM     38  N   UNL     1      -7.022  -4.002  -8.829  0.00  0.00    -0.191 NA
ENDBRANCH   4  37
BRANCH   2  39
ATOM     39  C   UNL     1      -7.031  -4.049  -2.898  0.00  0.00    +0.103 C 
ATOM     40  N   UNL     1      -7.579  -4.381  -1.960  0.00  0.00    -0.191 NA
ENDBRANCH   2  39
TORSDOF 8
