REMARK  Name = ZINC16089080
REMARK  6 active torsions:
REMARK  status: ('A' for Active; 'I' for Inactive)
REMARK    1  A    between atoms: C_1  and  O_2
REMARK    2  A    between atoms: O_2  and  C_3
REMARK    3  A    between atoms: C_6  and  S_12
REMARK    4  A    between atoms: C_8  and  N_9
REMARK    5  A    between atoms: S_12  and  N_15
REMARK    6  A    between atoms: N_15  and  C_16
REMARK                            x       y       z     vdW  Elec       q    Type
REMARK                         _______ _______ _______ _____ _____    ______ ____
ROOT
ATOM      1  C   UNL     1      -1.223   1.754   0.017  0.00  0.00    +0.150 A 
ATOM      2  C   UNL     1      -0.013   1.076   0.008  0.00  0.00    +0.050 A 
ATOM      3  C   UNL     1       1.174   1.783   0.000  0.00  0.00    +0.032 A 
ATOM      4  C   UNL     1       1.156   3.166   0.007  0.00  0.00    +0.108 A 
ATOM      5  C   UNL     1      -0.049   3.844   0.022  0.00  0.00    +0.065 A 
ATOM      6  C   UNL     1      -1.239   3.141   0.029  0.00  0.00    +0.169 A 
ENDROOT
BRANCH   6   7
ATOM      7  N   UNL     1      -2.528   3.867   0.045  0.00  0.00    +0.060 N 
ATOM      8  O   UNL     1      -2.541   5.085   0.050  0.00  0.00    -0.126 OA
ATOM      9  O   UNL     1      -3.576   3.247   0.051  0.00  0.00    -0.126 OA
ENDBRANCH   6   7
BRANCH   4  10
ATOM     10  S   UNL     1       2.671   4.065  -0.002  0.00  0.00    +0.059 S 
ATOM     11  O   UNL     1       2.389   5.341   0.558  0.00  0.00    -0.153 OA
ATOM     12  O   UNL     1       3.661   3.199   0.535  0.00  0.00    -0.153 OA
BRANCH  10  13
ATOM     13  N   UNL     1       3.077   4.323  -1.587  0.00  0.00    -0.187 NA
ATOM     14  H   UNL     1       3.888   3.732  -2.037  0.00  0.00    +0.148 HD
BRANCH  13  15
ATOM     15  C   UNL     1       2.228   5.165  -2.433  0.00  0.00    +0.077 C 
ATOM     16  C   UNL     1       1.246   4.284  -3.208  0.00  0.00    +0.020 C 
ATOM     17  C   UNL     1       0.360   5.164  -4.092  0.00  0.00    +0.002 C 
ATOM     18  C   UNL     1       1.234   5.942  -5.077  0.00  0.00    +0.000 C 
ATOM     19  C   UNL     1       2.215   6.824  -4.302  0.00  0.00    +0.002 C 
ATOM     20  C   UNL     1       3.102   5.944  -3.418  0.00  0.00    +0.020 C 
ENDBRANCH  13  15
ENDBRANCH  10  13
ENDBRANCH   4  10
BRANCH   1  22
ATOM     21  C   UNL     1      -2.300  -0.366   0.012  0.00  0.00    +0.277 C 
ATOM     22  O   UNL     1      -2.392   1.060   0.020  0.00  0.00    -0.493 OA
ENDBRANCH   1  22
TORSDOF 5
