REMARK  Name = ZINC54444911
REMARK  2 active torsions:
REMARK  status: ('A' for Active; 'I' for Inactive)
REMARK    1  A    between atoms: C_8  and  C_11
REMARK    2  A    between atoms: C_13  and  C_16
REMARK                            x       y       z     vdW  Elec       q    Type
REMARK                         _______ _______ _______ _____ _____    ______ ____
ROOT
ATOM      1  C   UNL     1      -0.017   1.378   0.010  0.00  0.00    +0.000 A 
ATOM      2  C   UNL     1       1.174   2.082   0.002  0.00  0.00    +0.002 A 
ATOM      3  C   UNL     1       2.377   1.411  -0.013  0.00  0.00    +0.023 A 
ATOM      4  C   UNL     1       2.405   0.014  -0.021  0.00  0.00    +0.031 A 
ATOM      5  C   UNL     1       1.206  -0.682  -0.013  0.00  0.00    -0.024 A 
ATOM      6  C   UNL     1       0.002  -0.004   0.002  0.00  0.00    +0.005 A 
ATOM      7  C   UNL     1       1.510  -2.163  -0.023  0.00  0.00    +0.069 C 
ATOM      8  C   UNL     1       3.046  -2.241  -0.038  0.00  0.00    +0.164 C 
ATOM      9  N   UNL     1       3.501  -0.849  -0.036  0.00  0.00    -0.332 N 
ATOM     10  H   UNL     1       4.430  -0.568  -0.044  0.00  0.00    +0.147 HD
ENDROOT
BRANCH   8  11
ATOM     11  C   UNL     1       3.521  -2.947  -1.282  0.00  0.00    +0.248 A 
ATOM     12  N   UNL     1       3.974  -4.166  -1.339  0.00  0.00    -0.187 NA
ATOM     13  C   UNL     1       4.309  -4.476  -2.606  0.00  0.00    +0.237 A 
ATOM     14  N   UNL     1       4.064  -3.436  -3.369  0.00  0.00    -0.053 NA
ATOM     15  O   UNL     1       3.542  -2.427  -2.517  0.00  0.00    -0.336 OA
BRANCH  13  16
ATOM     16  C   UNL     1       4.860  -5.769  -3.061  0.00  0.00    +0.175 A 
ATOM     17  C   UNL     1       5.204  -6.084  -4.339  0.00  0.00    +0.053 A 
ATOM     18  C   UNL     1       5.681  -7.409  -4.315  0.00  0.00    +0.042 A 
ATOM     19  C   UNL     1       5.605  -7.833  -3.037  0.00  0.00    +0.196 A 
ATOM     20  O   UNL     1       5.114  -6.838  -2.283  0.00  0.00    -0.460 OA
ENDBRANCH  13  16
ENDBRANCH   8  11
TORSDOF 2
