REMARK  Name = ZINC08624845
REMARK  14 active torsions:
REMARK  status: ('A' for Active; 'I' for Inactive)
REMARK    1  A    between atoms: C_1  and  C_2
REMARK    2  A    between atoms: C_2  and  C_3
REMARK    3  A    between atoms: C_3  and  C_5
REMARK    4  A    between atoms: C_3  and  N_69
REMARK    5  A    between atoms: N_9  and  C_10
REMARK    6  A    between atoms: C_10  and  C_11
REMARK    7  A    between atoms: C_11  and  C_12
REMARK    8  A    between atoms: C_18  and  C_19
REMARK    9  A    between atoms: C_18  and  N_69
REMARK   10  A    between atoms: C_24  and  C_25
REMARK   11  A    between atoms: C_24  and  N_69
REMARK   12  A    between atoms: C_29  and  C_37
REMARK   13  A    between atoms: C_31  and  C_36
REMARK   14  A    between atoms: C_34  and  O_35
REMARK                            x       y       z     vdW  Elec       q    Type
REMARK                         _______ _______ _______ _____ _____    ______ ____
ROOT
ATOM      1  N   UNL     1      -1.646  -0.159   1.922  0.00  0.00    +0.394 N 
ATOM      2  H   UNL     1      -2.317  -0.935   1.901  0.00  0.00    -0.080 HD
ENDROOT
BRANCH   1   3
ATOM      3  C   UNL     1      -2.368   1.108   1.681  0.00  0.00    +0.003 C 
BRANCH   3   4
ATOM      4  C   UNL     1      -1.399   2.212   1.345  0.00  0.00    +0.138 A 
ATOM      5  N   UNL     1      -0.694   2.327   0.246  0.00  0.00    -0.115 NA
ATOM      6  N   UNL     1       0.011   3.401   0.336  0.00  0.00    -0.023 NA
ATOM      7  N   UNL     1      -0.226   3.975   1.464  0.00  0.00    -0.044 NA
ATOM      8  N   UNL     1      -1.095   3.275   2.113  0.00  0.00    -0.231 N 
BRANCH   8   9
ATOM      9  C   UNL     1      -1.643   3.578   3.437  0.00  0.00    +0.152 C 
BRANCH   9  10
ATOM     10  C   UNL     1      -0.765   2.934   4.512  0.00  0.00    +0.058 C 
BRANCH  10  11
ATOM     11  C   UNL     1      -1.330   3.246   5.874  0.00  0.00    -0.046 A 
ATOM     12  C   UNL     1      -0.916   4.378   6.551  0.00  0.00    +0.004 A 
ATOM     13  C   UNL     1      -1.438   4.667   7.798  0.00  0.00    +0.000 A 
ATOM     14  C   UNL     1      -2.364   3.818   8.373  0.00  0.00    +0.000 A 
ATOM     15  C   UNL     1      -2.773   2.683   7.699  0.00  0.00    +0.000 A 
ATOM     16  C   UNL     1      -2.256   2.397   6.449  0.00  0.00    +0.004 A 
ENDBRANCH  10  11
ENDBRANCH   9  10
ENDBRANCH   8   9
ENDBRANCH   3   4
BRANCH   3  18
ATOM     17  C   UNL     1      -4.335  -0.199   0.866  0.00  0.00    +0.002 C 
ATOM     18  C   UNL     1      -3.337   0.907   0.515  0.00  0.00    -0.011 C 
ENDBRANCH   3  18
ENDBRANCH   1   3
BRANCH   1  19
ATOM     19  C   UNL     1      -0.993  -0.125   3.248  0.00  0.00    -0.002 C 
BRANCH  19  20
ATOM     20  C   UNL     1      -0.563  -1.522   3.612  0.00  0.00    +0.089 A 
ATOM     21  C   UNL     1       0.666  -2.038   3.435  0.00  0.00    +0.042 A 
ATOM     22  C   UNL     1       0.625  -3.368   3.913  0.00  0.00    +0.041 A 
ATOM     23  C   UNL     1      -0.627  -3.585   4.354  0.00  0.00    +0.195 A 
ATOM     24  O   UNL     1      -1.341  -2.462   4.175  0.00  0.00    -0.470 OA
ENDBRANCH  19  20
ENDBRANCH   1  19
BRANCH   1  25
ATOM     25  C   UNL     1      -0.633  -0.371   0.866  0.00  0.00    -0.036 C 
BRANCH  25  26
ATOM     26  C   UNL     1      -1.320  -0.923  -0.356  0.00  0.00    -0.002 A 
ATOM     27  C   UNL     1      -1.277  -0.235  -1.533  0.00  0.00    +0.017 A 
ATOM     28  C   UNL     1      -1.928  -0.788  -2.653  0.00  0.00    +0.001 A 
ATOM     29  C   UNL     1      -1.919  -0.137  -3.897  0.00  0.00    +0.013 A 
ATOM     30  C   UNL     1      -2.564  -0.700  -4.956  0.00  0.00    -0.050 A 
ATOM     31  C   UNL     1      -3.233  -1.915  -4.822  0.00  0.00    +0.008 A 
ATOM     32  C   UNL     1      -3.261  -2.572  -3.631  0.00  0.00    -0.024 A 
ATOM     33  C   UNL     1      -2.608  -2.023  -2.515  0.00  0.00    +0.078 A 
ATOM     34  N   UNL     1      -2.619  -2.649  -1.333  0.00  0.00    -0.213 NA
ATOM     35  C   UNL     1      -2.009  -2.140  -0.284  0.00  0.00    +0.214 A 
ATOM     36  C   UNL     1      -3.991  -3.886  -3.510  0.00  0.00    +0.046 C 
ATOM     37  C   UNL     1      -2.553   0.000  -6.291  0.00  0.00    +0.044 C 
BRANCH  35  38
ATOM     38  O   UNL     1      -2.048  -2.809   0.894  0.00  0.00    -0.492 OA
ATOM     39  H   UNL     1      -2.839  -2.632   1.421  0.00  0.00    +0.294 HD
ENDBRANCH  35  38
ENDBRANCH  25  26
ENDBRANCH   1  25
TORSDOF 11
