REMARK  Name = ZINC63619749
REMARK  6 active torsions:
REMARK  status: ('A' for Active; 'I' for Inactive)
REMARK    1  A    between atoms: C_1  and  C_2
REMARK    2  A    between atoms: C_5  and  N_8
REMARK    3  A    between atoms: C_9  and  C_26
REMARK    4  A    between atoms: C_13  and  S_15
REMARK    5  A    between atoms: S_15  and  C_16
REMARK    6  A    between atoms: C_16  and  C_17
REMARK                            x       y       z     vdW  Elec       q    Type
REMARK                         _______ _______ _______ _____ _____    ______ ____
ROOT
ATOM      1  N   UNL     1      -0.175  -4.343  -0.092  0.00  0.00    -0.284 N 
ATOM      2  C   UNL     1       0.173  -5.057   1.153  0.00  0.00    +0.189 C 
ATOM      3  N   UNL     1      -0.222  -6.465   0.889  0.00  0.00    -0.230 NA
ATOM      4  N   UNL     1       0.138  -6.650  -0.525  0.00  0.00    -0.226 NA
ATOM      5  C   UNL     1      -0.204  -5.357  -1.161  0.00  0.00    +0.217 C 
ATOM      6  H   UNL     1       0.294  -7.101   1.479  0.00  0.00    +0.143 HD
ATOM      7  H   UNL     1      -0.392  -7.404  -0.938  0.00  0.00    +0.143 HD
ENDROOT
BRANCH   1  12
ATOM      8  C   UNL     1      -1.217   1.204  -0.647  0.00  0.00    +0.044 C 
ATOM      9  C   UNL     1      -0.940  -0.270  -0.500  0.00  0.00    -0.050 A 
ATOM     10  C   UNL     1      -1.137  -1.120  -1.573  0.00  0.00    +0.005 A 
ATOM     11  C   UNL     1      -0.884  -2.471  -1.441  0.00  0.00    +0.023 A 
ATOM     12  C   UNL     1      -0.431  -2.976  -0.229  0.00  0.00    +0.033 A 
ATOM     13  C   UNL     1      -0.234  -2.120   0.847  0.00  0.00    +0.023 A 
ATOM     14  C   UNL     1      -0.484  -0.769   0.706  0.00  0.00    +0.005 A 
ENDBRANCH   1  12
BRANCH   2  15
ATOM     15  C   UNL     1      -0.605  -4.497   2.316  0.00  0.00    -0.009 A 
ATOM     16  C   UNL     1      -1.986  -4.388   2.259  0.00  0.00    +0.026 A 
ATOM     17  C   UNL     1      -2.666  -3.870   3.345  0.00  0.00    +0.111 A 
ATOM     18  N   UNL     1      -2.016  -3.482   4.425  0.00  0.00    -0.263 NA
ATOM     19  C   UNL     1      -0.704  -3.572   4.515  0.00  0.00    +0.111 A 
ATOM     20  C   UNL     1       0.043  -4.085   3.471  0.00  0.00    +0.026 A 
ENDBRANCH   2  15
BRANCH   5  21
ATOM     21  S   UNL     1       1.021  -4.952  -2.436  0.00  0.00    -0.118 S 
BRANCH  21  22
ATOM     22  C   UNL     1       2.600  -4.955  -1.544  0.00  0.00    +0.119 C 
BRANCH  22  23
ATOM     23  C   UNL     1       3.735  -4.623  -2.515  0.00  0.00    +0.184 C 
ATOM     24  N   UNL     1       3.482  -3.330  -3.163  0.00  0.00    -0.363 N 
ATOM     25  C   UNL     1       3.398  -3.546  -4.444  0.00  0.00    +0.060 A 
ATOM     26  C   UNL     1       3.160  -2.660  -5.592  0.00  0.00    +0.027 A 
ATOM     27  C   UNL     1       3.125  -3.179  -6.836  0.00  0.00    +0.002 A 
ATOM     28  C   UNL     1       3.306  -4.550  -7.091  0.00  0.00    +0.002 A 
ATOM     29  C   UNL     1       3.530  -5.448  -6.111  0.00  0.00    +0.027 A 
ATOM     30  C   UNL     1       3.591  -4.997  -4.714  0.00  0.00    +0.060 A 
ATOM     31  N   UNL     1       3.787  -5.622  -3.590  0.00  0.00    -0.363 N 
ATOM     32  H   UNL     1       3.394  -2.473  -2.718  0.00  0.00    +0.162 HD
ATOM     33  H   UNL     1       3.940  -6.574  -3.482  0.00  0.00    +0.162 HD
ENDBRANCH  22  23
ENDBRANCH  21  22
ENDBRANCH   5  21
TORSDOF 5
