REMARK  Name = ZINC40734814
REMARK  7 active torsions:
REMARK  status: ('A' for Active; 'I' for Inactive)
REMARK    1  A    between atoms: C_1  and  C_2
REMARK    2  A    between atoms: C_9  and  N_12
REMARK    3  A    between atoms: C_14  and  N_31
REMARK    4  A    between atoms: C_15  and  N_19
REMARK    5  A    between atoms: C_21  and  C_30
REMARK    6  A    between atoms: C_26  and  C_28
REMARK    7  A    between atoms: C_26  and  C_29
REMARK                            x       y       z     vdW  Elec       q    Type
REMARK                         _______ _______ _______ _____ _____    ______ ____
ROOT
ATOM      1  N   UNL     1       0.053  -2.059   3.570  0.00  0.00    -0.296 N 
ATOM      2  C   UNL     1      -0.040  -2.690   4.805  0.00  0.00    +0.149 A 
ATOM      3  C   UNL     1      -0.166  -1.942   5.977  0.00  0.00    +0.106 A 
ATOM      4  C   UNL     1      -0.256  -2.626   7.190  0.00  0.00    +0.147 A 
ATOM      5  N   UNL     1      -0.218  -3.957   7.184  0.00  0.00    -0.219 NA
ATOM      6  C   UNL     1      -0.098  -4.625   6.055  0.00  0.00    +0.225 A 
ATOM      7  N   UNL     1      -0.016  -4.019   4.889  0.00  0.00    -0.219 NA
ATOM      8  H   UNL     1       0.121  -1.092   3.524  0.00  0.00    +0.154 HD
ENDROOT
BRANCH   1  17
ATOM      9  C   UNL     1       2.405   0.742   0.153  0.00  0.00    +0.065 C 
ATOM     10  C   UNL     1       1.770  -0.624   0.116  0.00  0.00    +0.039 A 
ATOM     11  C   UNL     1       1.786  -1.348  -1.075  0.00  0.00    +0.023 A 
ATOM     12  C   UNL     1       1.216  -2.587  -1.126  0.00  0.00    +0.012 A 
ATOM     13  C   UNL     1       0.623  -3.096   0.046  0.00  0.00    +0.002 A 
ATOM     14  C   UNL     1       0.018  -4.363   0.067  0.00  0.00    +0.010 A 
ATOM     15  C   UNL     1      -0.546  -4.827   1.216  0.00  0.00    +0.003 A 
ATOM     16  C   UNL     1      -0.534  -4.063   2.379  0.00  0.00    +0.025 A 
ATOM     17  C   UNL     1       0.049  -2.815   2.398  0.00  0.00    +0.059 A 
ATOM     18  C   UNL     1       0.643  -2.307   1.221  0.00  0.00    +0.092 A 
ATOM     19  N   UNL     1       1.222  -1.104   1.206  0.00  0.00    -0.250 NA
ENDBRANCH   1  17
BRANCH   4  20
ATOM     20  N   UNL     1      -0.382  -1.929   8.386  0.00  0.00    -0.310 N 
ATOM     21  C   UNL     1      -0.335  -0.467   8.540  0.00  0.00    +0.113 C 
ATOM     22  C   UNL     1      -0.466  -0.183  10.055  0.00  0.00    -0.014 C 
ATOM     23  C   UNL     1      -1.280  -1.409  10.549  0.00  0.00    +0.030 C 
ATOM     24  C   UNL     1      -0.598  -2.525   9.720  0.00  0.00    +0.076 C 
ATOM     25  C   UNL     1       0.756  -2.807  10.367  0.00  0.00    +0.029 C 
ATOM     26  C   UNL     1       1.637  -1.580  10.514  0.00  0.00    -0.033 C 
ATOM     27  C   UNL     1       0.917  -0.258  10.696  0.00  0.00    +0.014 C 
ATOM     28  C   UNL     1       2.601  -1.492   9.321  0.00  0.00    +0.011 C 
ATOM     29  C   UNL     1       2.516  -1.800  11.771  0.00  0.00    +0.011 C 
ATOM     30  C   UNL     1      -1.181   1.147  10.338  0.00  0.00    +0.013 C 
ENDBRANCH   4  20
BRANCH   3  31
ATOM     31  N   UNL     1      -0.201  -0.538   5.936  0.00  0.00    -0.353 N 
ATOM     32  H   UNL     1      -0.217  -0.079   5.082  0.00  0.00    +0.143 HD
ATOM     33  H   UNL     1      -0.208  -0.029   6.761  0.00  0.00    +0.143 HD
ENDBRANCH   3  31
TORSDOF 3
