REMARK  Name = ZINC39666232
REMARK  10 active torsions:
REMARK  status: ('A' for Active; 'I' for Inactive)
REMARK    1  A    between atoms: C_1  and  C_2
REMARK    2  A    between atoms: C_5  and  O_8
REMARK    3  A    between atoms: O_8  and  C_9
REMARK    4  A    between atoms: C_9  and  C_11
REMARK    5  A    between atoms: C_9  and  C_12
REMARK    6  A    between atoms: C_12  and  N_13
REMARK    7  A    between atoms: C_14  and  C_16
REMARK    8  A    between atoms: C_27  and  C_29
REMARK    9  A    between atoms: C_32  and  C_36
REMARK   10  A    between atoms: C_34  and  C_35
REMARK                            x       y       z     vdW  Elec       q    Type
REMARK                         _______ _______ _______ _____ _____    ______ ____
ROOT
ATOM      1  C   UNL     1       5.148  -6.831   0.181  0.00  0.00    +0.100 C 
ATOM      2  C   UNL     1       5.187  -5.817  -0.984  0.00  0.00    +0.121 C 
ATOM      3  N   UNL     1       6.369  -6.212  -1.785  0.00  0.00    -0.296 N 
ATOM      4  C   UNL     1       6.343  -7.694  -1.774  0.00  0.00    +0.115 C 
ATOM      5  C   UNL     1       5.907  -8.062  -0.342  0.00  0.00    -0.004 C 
ATOM      6  C   UNL     1       4.987  -9.279  -0.367  0.00  0.00    -0.010 C 
ATOM      7  C   UNL     1       5.780 -10.503  -0.835  0.00  0.00    -0.082 C 
ATOM      8  N   UNL     1       6.907 -10.736   0.076  0.00  0.00    +0.379 N 
ATOM      9  C   UNL     1       7.835  -9.600   0.024  0.00  0.00    -0.082 C 
ATOM     10  C   UNL     1       7.130  -8.338   0.528  0.00  0.00    -0.010 C 
ATOM     11  C   UNL     1       7.266  -5.406  -2.388  0.00  0.00    +0.247 C 
ATOM     12  O   UNL     1       8.237  -5.883  -2.941  0.00  0.00    -0.270 OA
ATOM     13  H   UNL     1       6.560 -10.842   1.018  0.00  0.00    -0.086 HD
ATOM     14  H   UNL     1       7.391 -11.577  -0.198  0.00  0.00    -0.086 HD
ENDROOT
BRANCH  11  15
ATOM     15  C   UNL     1       7.068  -3.941  -2.376  0.00  0.00    +0.040 A 
ATOM     16  C   UNL     1       5.781  -3.406  -2.461  0.00  0.00    +0.013 A 
ATOM     17  C   UNL     1       5.604  -2.039  -2.449  0.00  0.00    +0.004 A 
ATOM     18  C   UNL     1       6.698  -1.197  -2.352  0.00  0.00    -0.050 A 
ATOM     19  C   UNL     1       7.975  -1.720  -2.267  0.00  0.00    +0.007 A 
ATOM     20  C   UNL     1       8.166  -3.086  -2.272  0.00  0.00    -0.038 A 
ATOM     21  C   UNL     1       9.559  -3.654  -2.174  0.00  0.00    +0.044 C 
ATOM     22  C   UNL     1       6.496   0.297  -2.340  0.00  0.00    +0.044 C 
ENDBRANCH  11  15
BRANCH   1  24
ATOM     23  N   UNL     1       3.398  -7.566   1.767  0.00  0.00    -0.312 N 
ATOM     24  C   UNL     1       3.724  -7.195   0.513  0.00  0.00    +0.218 C 
ATOM     25  O   UNL     1       2.871  -7.154  -0.349  0.00  0.00    -0.275 OA
ATOM     26  H   UNL     1       4.080  -7.598   2.456  0.00  0.00    +0.149 HD
BRANCH  23  27
ATOM     27  C   UNL     1       2.013  -7.919   2.089  0.00  0.00    +0.148 C 
BRANCH  27  28
ATOM     28  C   UNL     1       1.915  -8.300   3.568  0.00  0.00    +0.187 C 
ATOM     29  C   UNL     1       0.498  -8.788   3.876  0.00  0.00    +0.053 C 
BRANCH  28  30
ATOM     30  O   UNL     1       2.211  -7.158   4.374  0.00  0.00    -0.488 OA
BRANCH  30  35
ATOM     31  C   UNL     1       4.146  -8.131   9.573  0.00  0.00    +0.044 C 
ATOM     32  C   UNL     1       3.628  -7.870   8.182  0.00  0.00    -0.050 A 
ATOM     33  C   UNL     1       3.220  -8.927   7.389  0.00  0.00    +0.007 A 
ATOM     34  C   UNL     1       2.745  -8.691   6.113  0.00  0.00    +0.046 A 
ATOM     35  C   UNL     1       2.677  -7.393   5.629  0.00  0.00    +0.121 A 
ATOM     36  C   UNL     1       3.086  -6.334   6.427  0.00  0.00    +0.046 A 
ATOM     37  C   UNL     1       3.555  -6.575   7.704  0.00  0.00    +0.007 A 
ENDBRANCH  30  35
ENDBRANCH  28  30
ENDBRANCH  27  28
ENDBRANCH  23  27
ENDBRANCH   1  24
TORSDOF 6
