REMARK  Name = ZINC06093693
REMARK  8 active torsions:
REMARK  status: ('A' for Active; 'I' for Inactive)
REMARK    1  A    between atoms: C_1  and  C_2
REMARK    2  A    between atoms: C_2  and  C_3
REMARK    3  A    between atoms: C_12  and  C_13
REMARK    4  A    between atoms: N_14  and  N_15
REMARK    5  A    between atoms: C_16  and  C_18
REMARK    6  A    between atoms: C_23  and  N_24
REMARK    7  A    between atoms: N_24  and  S_25
REMARK    8  A    between atoms: S_25  and  C_28
REMARK                            x       y       z     vdW  Elec       q    Type
REMARK                         _______ _______ _______ _____ _____    ______ ____
ROOT
ATOM      1  N   UNL     1       6.996   4.210  -2.523  0.00  0.00    -0.203 N 
ATOM      2  C   UNL     1       8.043   4.560  -1.751  0.00  0.00    +0.265 C 
ATOM      3  O   UNL     1       7.962   4.473  -0.540  0.00  0.00    -0.268 OA
ATOM      4  H   UNL     1       7.060   4.280  -3.489  0.00  0.00    +0.178 HD
ENDROOT
BRANCH   2   5
ATOM      5  C   UNL     1       9.287   5.048  -2.373  0.00  0.00    +0.061 A 
ATOM      6  C   UNL     1       9.387   5.145  -3.763  0.00  0.00    +0.015 A 
ATOM      7  C   UNL     1      10.551   5.606  -4.338  0.00  0.00    +0.001 A 
ATOM      8  C   UNL     1      11.629   5.967  -3.545  0.00  0.00    +0.002 A 
ATOM      9  C   UNL     1      11.548   5.872  -2.171  0.00  0.00    +0.025 A 
ATOM     10  C   UNL     1      10.381   5.414  -1.572  0.00  0.00    +0.060 A 
BRANCH  10  11
ATOM     11  N   UNL     1      10.297   5.318  -0.189  0.00  0.00    -0.215 N 
ATOM     12  H   UNL     1       9.798   4.592   0.217  0.00  0.00    +0.174 HD
BRANCH  11  13
ATOM     13  S   UNL     1      11.048   6.443   0.766  0.00  0.00    +0.079 S 
ATOM     14  O   UNL     1      10.669   6.157   2.105  0.00  0.00    -0.149 OA
ATOM     15  O   UNL     1      12.406   6.486   0.351  0.00  0.00    -0.149 OA
BRANCH  13  16
ATOM     16  C   UNL     1      10.350   8.012   0.370  0.00  0.00    +0.146 A 
ATOM     17  C   UNL     1       9.278   8.633   0.919  0.00  0.00    +0.036 A 
ATOM     18  C   UNL     1       8.908   9.877   0.444  0.00  0.00    +0.010 A 
ATOM     19  C   UNL     1       9.628  10.439  -0.558  0.00  0.00    +0.047 A 
ATOM     20  S   UNL     1      10.878   9.200  -0.855  0.00  0.00    -0.077 S 
ENDBRANCH  13  16
ENDBRANCH  11  13
ENDBRANCH  10  11
ENDBRANCH   2   5
BRANCH   1  22
ATOM     21  C   UNL     1       4.804   3.409  -2.677  0.00  0.00    +0.140 C 
ATOM     22  N   UNL     1       5.814   3.746  -1.932  0.00  0.00    -0.187 NA
BRANCH  21  32
ATOM     23  C   UNL     1       1.456   2.012   0.749  0.00  0.00    -0.024 A 
ATOM     24  C   UNL     1       2.214   2.238   1.877  0.00  0.00    +0.005 A 
ATOM     25  C   UNL     1       3.511   2.722   1.772  0.00  0.00    +0.001 A 
ATOM     26  C   UNL     1       4.058   2.982   0.535  0.00  0.00    +0.010 A 
ATOM     27  C   UNL     1       3.303   2.757  -0.614  0.00  0.00    +0.009 A 
ATOM     28  C   UNL     1       1.992   2.263  -0.510  0.00  0.00    +0.050 A 
ATOM     29  N   UNL     1       1.492   2.145  -1.789  0.00  0.00    -0.360 N 
ATOM     30  H   UNL     1       0.602   1.827  -2.009  0.00  0.00    +0.165 HD
ATOM     31  C   UNL     1       2.428   2.533  -2.700  0.00  0.00    +0.093 A 
ATOM     32  C   UNL     1       3.562   2.921  -2.056  0.00  0.00    +0.020 A 
BRANCH  23  34
ATOM     33  C   UNL     1       0.059  -0.037   0.734  0.00  0.00    +0.009 C 
ATOM     34  C   UNL     1       0.050   1.486   0.879  0.00  0.00    +0.034 C 
ENDBRANCH  23  34
ENDBRANCH  21  32
ENDBRANCH   1  22
TORSDOF 7
