REMARK  Name = ZINC24215419
REMARK  12 active torsions:
REMARK  status: ('A' for Active; 'I' for Inactive)
REMARK    1  A    between atoms: C_1  and  C_2
REMARK    2  A    between atoms: C_3  and  C_14
REMARK    3  A    between atoms: C_4  and  C_13
REMARK    4  A    between atoms: N_5  and  C_7
REMARK    5  A    between atoms: N_21  and  C_22
REMARK    6  A    between atoms: C_22  and  C_23
REMARK    7  A    between atoms: N_25  and  C_26
REMARK    8  A    between atoms: C_29  and  C_32
REMARK    9  A    between atoms: C_32  and  O_34
REMARK   10  A    between atoms: O_34  and  C_35
REMARK   11  A    between atoms: C_35  and  C_36
REMARK   12  A    between atoms: C_35  and  C_37
REMARK                            x       y       z     vdW  Elec       q    Type
REMARK                         _______ _______ _______ _____ _____    ______ ____
ROOT
ATOM      1  C   UNL     1      -0.123  -0.366  -0.351  0.00  0.00    +0.054 C 
ATOM      2  C   UNL     1       0.479  -1.313   0.648  0.00  0.00    +0.204 C 
ATOM      3  O   UNL     1       0.213  -1.165   1.822  0.00  0.00    -0.277 OA
ATOM      4  N   UNL     1       1.296  -2.311   0.298  0.00  0.00    -0.318 N 
ATOM      5  C   UNL     1       1.707  -2.553  -1.082  0.00  0.00    +0.085 C 
ATOM      6  C   UNL     1       0.756  -1.841  -2.045  0.00  0.00    -0.058 C 
ATOM      7  N   UNL     1       0.615  -0.439  -1.619  0.00  0.00    +0.397 N 
ATOM      8  H   UNL     1       1.662  -2.965   1.103  0.00  0.00    +0.149 HD
ATOM      9  H   UNL     1       1.619  -0.018  -1.462  0.00  0.00    -0.079 HD
ENDROOT
BRANCH   1  12
ATOM     10  C   UNL     1       2.472   1.444  -0.192  0.00  0.00    +0.068 C 
ATOM     11  C   UNL     1       1.089   1.840   0.258  0.00  0.00    +0.063 A 
ATOM     12  C   UNL     1      -0.056   1.040   0.187  0.00  0.00    -0.009 A 
ATOM     13  C   UNL     1      -1.094   1.753   0.682  0.00  0.00    +0.044 A 
ATOM     14  N   UNL     1      -0.619   2.961   1.060  0.00  0.00    -0.237 N 
ATOM     15  N   UNL     1       0.753   2.991   0.781  0.00  0.00    -0.171 NA
ATOM     16  C   UNL     1      -2.522   1.284   0.794  0.00  0.00    +0.066 C 
BRANCH  14  17
ATOM     17  C   UNL     1      -1.369   4.001   1.627  0.00  0.00    +0.066 A 
ATOM     18  C   UNL     1      -1.153   5.313   1.226  0.00  0.00    +0.028 A 
ATOM     19  C   UNL     1      -1.896   6.335   1.784  0.00  0.00    +0.002 A 
ATOM     20  C   UNL     1      -2.847   6.055   2.747  0.00  0.00    +0.000 A 
ATOM     21  C   UNL     1      -3.061   4.750   3.152  0.00  0.00    +0.002 A 
ATOM     22  C   UNL     1      -2.325   3.723   2.595  0.00  0.00    +0.028 A 
ENDBRANCH  14  17
ENDBRANCH   1  12
BRANCH   7  23
ATOM     23  C   UNL     1      -0.044   0.363  -2.659  0.00  0.00    +0.020 C 
BRANCH  23  24
ATOM     24  C   UNL     1       0.858   0.466  -3.861  0.00  0.00    +0.201 C 
ATOM     25  O   UNL     1       1.943  -0.075  -3.853  0.00  0.00    -0.278 OA
ATOM     26  N   UNL     1       0.459   1.160  -4.946  0.00  0.00    -0.287 N 
ATOM     27  H   UNL     1      -0.556   1.582  -4.986  0.00  0.00    +0.155 HD
BRANCH  26  28
ATOM     28  C   UNL     1       1.333   1.344  -6.016  0.00  0.00    +0.033 A 
ATOM     29  C   UNL     1       2.698   1.483  -5.782  0.00  0.00    +0.024 A 
ATOM     30  C   UNL     1       3.564   1.659  -6.837  0.00  0.00    +0.017 A 
ATOM     31  C   UNL     1       3.071   1.710  -8.144  0.00  0.00    +0.059 A 
ATOM     32  C   UNL     1       1.698   1.575  -8.375  0.00  0.00    +0.017 A 
ATOM     33  C   UNL     1       0.838   1.394  -7.316  0.00  0.00    +0.024 A 
BRANCH  31  34
ATOM     34  C   UNL     1       3.995   1.904  -9.276  0.00  0.00    +0.339 C 
ATOM     35  O   UNL     1       3.564   1.947 -10.412  0.00  0.00    -0.245 OA
BRANCH  34  36
ATOM     36  O   UNL     1       5.317   2.033  -9.052  0.00  0.00    -0.458 OA
BRANCH  36  37
ATOM     37  C   UNL     1       6.168   2.222 -10.213  0.00  0.00    +0.171 C 
ATOM     38  C   UNL     1       6.307   3.717 -10.507  0.00  0.00    +0.052 C 
ATOM     39  C   UNL     1       7.549   1.625  -9.936  0.00  0.00    +0.052 C 
ENDBRANCH  36  37
ENDBRANCH  34  36
ENDBRANCH  31  34
ENDBRANCH  26  28
ENDBRANCH  23  24
ENDBRANCH   7  23
TORSDOF 8
