REMARK  Name = ZINC09169098
REMARK  10 active torsions:
REMARK  status: ('A' for Active; 'I' for Inactive)
REMARK    1  A    between atoms: C_1  and  C_2
REMARK    2  A    between atoms: C_2  and  C_3
REMARK    3  A    between atoms: C_3  and  O_4
REMARK    4  A    between atoms: O_4  and  C_5
REMARK    5  A    between atoms: C_8  and  S_12
REMARK    6  A    between atoms: C_10  and  C_11
REMARK    7  A    between atoms: S_12  and  N_15
REMARK    8  A    between atoms: N_15  and  C_16
REMARK    9  A    between atoms: C_24  and  C_28
REMARK   10  A    between atoms: C_24  and  C_29
REMARK                            x       y       z     vdW  Elec       q    Type
REMARK                         _______ _______ _______ _____ _____    ______ ____
ROOT
ATOM      1  N   UNL     1       0.452  -6.378   1.442  0.00  0.00    -0.216 N 
ATOM      2  H   UNL     1       1.285  -6.605   1.884  0.00  0.00    +0.174 HD
ENDROOT
BRANCH   1   3
ATOM      3  C   UNL     1      -0.643  -5.942   2.195  0.00  0.00    +0.052 A 
ATOM      4  C   UNL     1      -0.646  -4.663   2.738  0.00  0.00    +0.026 A 
ATOM      5  C   UNL     1      -1.729  -4.227   3.477  0.00  0.00    +0.029 A 
ATOM      6  C   UNL     1      -2.809  -5.069   3.685  0.00  0.00    +0.076 A 
ATOM      7  C   UNL     1      -2.806  -6.356   3.148  0.00  0.00    +0.143 A 
ATOM      8  C   UNL     1      -1.724  -6.789   2.402  0.00  0.00    +0.072 A 
ATOM      9  O   UNL     1      -3.865  -7.180   3.368  0.00  0.00    -0.489 OA
ATOM     10  C   UNL     1      -3.978  -7.764   4.663  0.00  0.00    +0.244 C 
ATOM     11  C   UNL     1      -3.699  -6.723   5.745  0.00  0.00    +0.076 C 
ATOM     12  C   UNL     1      -4.401  -5.431   5.414  0.00  0.00    +0.226 C 
ATOM     13  O   UNL     1      -5.396  -5.105   6.026  0.00  0.00    -0.275 OA
ATOM     14  N   UNL     1      -3.916  -4.638   4.433  0.00  0.00    -0.282 N 
ATOM     15  C   UNL     1      -2.191  -6.474   5.831  0.00  0.00    +0.024 C 
ATOM     16  C   UNL     1      -4.204  -7.246   7.091  0.00  0.00    +0.024 C 
ATOM     17  H   UNL     1      -4.329  -3.780   4.247  0.00  0.00    +0.155 HD
ENDBRANCH   1   3
BRANCH   1  18
ATOM     18  S   UNL     1       0.326  -6.508  -0.204  0.00  0.00    +0.072 S 
ATOM     19  O   UNL     1      -0.853  -7.256  -0.464  0.00  0.00    -0.150 OA
ATOM     20  O   UNL     1       1.604  -6.911  -0.679  0.00  0.00    -0.150 OA
BRANCH  18  24
ATOM     21  C   UNL     1      -0.401  -2.342  -1.825  0.00  0.00    +0.123 A 
ATOM     22  C   UNL     1       0.893  -2.773  -1.570  0.00  0.00    +0.048 A 
ATOM     23  C   UNL     1       1.112  -4.043  -1.075  0.00  0.00    +0.032 A 
ATOM     24  C   UNL     1       0.043  -4.887  -0.835  0.00  0.00    +0.109 A 
ATOM     25  C   UNL     1      -1.247  -4.460  -1.087  0.00  0.00    +0.035 A 
ATOM     26  C   UNL     1      -1.472  -3.188  -1.577  0.00  0.00    -0.007 A 
ATOM     27  C   UNL     1      -2.880  -2.722  -1.847  0.00  0.00    +0.047 C 
BRANCH  21  28
ATOM     28  O   UNL     1      -0.619  -1.092  -2.311  0.00  0.00    -0.492 OA
BRANCH  28  29
ATOM     29  C   UNL     1       0.530  -0.274  -2.537  0.00  0.00    +0.229 C 
BRANCH  29  31
ATOM     30  C   UNL     1       1.320   1.962  -3.323  0.00  0.00    +0.007 C 
ATOM     31  C   UNL     1       0.089   1.086  -3.081  0.00  0.00    +0.038 C 
ENDBRANCH  29  31
ENDBRANCH  28  29
ENDBRANCH  21  28
ENDBRANCH  18  24
ENDBRANCH   1  18
TORSDOF 6
