REMARK  Name = ZINC44388624
REMARK  5 active torsions:
REMARK  status: ('A' for Active; 'I' for Inactive)
REMARK    1  A    between atoms: C_1  and  C_2
REMARK    2  A    between atoms: N_12  and  C_13
REMARK    3  A    between atoms: C_15  and  C_17
REMARK    4  A    between atoms: C_17  and  C_18
REMARK    5  A    between atoms: C_17  and  C_24
REMARK                            x       y       z     vdW  Elec       q    Type
REMARK                         _______ _______ _______ _____ _____    ______ ____
ROOT
ATOM      1  C   UNL     1      -0.071   1.962  -0.105  0.00  0.00    +0.013 C 
ATOM      2  C   UNL     1      -0.064   0.440  -0.257  0.00  0.00    +0.031 C 
ATOM      3  C   UNL     1       0.539   0.059  -1.613  0.00  0.00    +0.104 C 
ATOM      4  C   UNL     1       0.926  -1.392  -1.648  0.00  0.00    +0.219 C 
ATOM      5  O   UNL     1       0.746  -2.024  -2.668  0.00  0.00    -0.275 OA
ATOM      6  N   UNL     1       1.470  -2.014  -0.581  0.00  0.00    -0.270 N 
ATOM      7  C   UNL     1       1.489  -1.335   0.637  0.00  0.00    +0.128 A 
ATOM      8  C   UNL     1       0.783  -0.176   0.827  0.00  0.00    +0.037 A 
ATOM      9  C   UNL     1       1.010   0.256   2.131  0.00  0.00    +0.152 A 
ATOM     10  N   UNL     1       1.805  -0.614   2.717  0.00  0.00    -0.154 NA
ATOM     11  N   UNL     1       2.111  -1.629   1.794  0.00  0.00    -0.251 N 
ATOM     12  C   UNL     1       2.956  -2.799   2.046  0.00  0.00    +0.174 C 
ATOM     13  N   UNL     1       0.484   1.416   2.717  0.00  0.00    -0.268 N 
ATOM     14  C   UNL     1       0.869   1.778   3.957  0.00  0.00    +0.230 C 
ATOM     15  O   UNL     1       1.670   1.100   4.566  0.00  0.00    -0.274 OA
ATOM     16  H   UNL     1       1.837  -2.909  -0.658  0.00  0.00    +0.156 HD
ATOM     17  H   UNL     1      -0.156   1.958   2.230  0.00  0.00    +0.156 HD
ENDROOT
BRANCH  14  18
ATOM     18  C   UNL     1       0.303   3.024   4.587  0.00  0.00    +0.135 C 
BRANCH  18  19
ATOM     19  C   UNL     1      -1.195   2.899   4.692  0.00  0.00    -0.031 A 
ATOM     20  C   UNL     1      -1.763   1.695   5.065  0.00  0.00    +0.005 A 
ATOM     21  C   UNL     1      -3.137   1.580   5.162  0.00  0.00    +0.000 A 
ATOM     22  C   UNL     1      -3.943   2.669   4.886  0.00  0.00    +0.000 A 
ATOM     23  C   UNL     1      -3.375   3.873   4.514  0.00  0.00    +0.000 A 
ATOM     24  C   UNL     1      -2.000   3.989   4.422  0.00  0.00    +0.005 A 
ENDBRANCH  18  19
BRANCH  18  25
ATOM     25  C   UNL     1       0.891   3.202   5.964  0.00  0.00    -0.031 A 
ATOM     26  C   UNL     1       0.622   2.276   6.954  0.00  0.00    +0.005 A 
ATOM     27  C   UNL     1       1.161   2.439   8.217  0.00  0.00    +0.000 A 
ATOM     28  C   UNL     1       1.968   3.528   8.489  0.00  0.00    +0.000 A 
ATOM     29  C   UNL     1       2.237   4.453   7.498  0.00  0.00    +0.000 A 
ATOM     30  C   UNL     1       1.702   4.288   6.234  0.00  0.00    +0.005 A 
ENDBRANCH  18  25
ENDBRANCH  14  18
TORSDOF 3
