REMARK  Name = ZINC22345995
REMARK  4 active torsions:
REMARK  status: ('A' for Active; 'I' for Inactive)
REMARK    1  A    between atoms: C_1  and  C_2
REMARK    2  A    between atoms: C_5  and  C_11
REMARK    3  A    between atoms: C_7  and  N_8
REMARK    4  A    between atoms: C_12  and  C_13
REMARK                            x       y       z     vdW  Elec       q    Type
REMARK                         _______ _______ _______ _____ _____    ______ ____
ROOT
ATOM      1  C   UNL     1       3.918   2.914   0.067  0.00  0.00    +0.154 A 
ATOM      2  N   UNL     1       4.560   1.731  -0.160  0.00  0.00    -0.190 NA
ATOM      3  C   UNL     1       3.920   0.547  -0.064  0.00  0.00    +0.282 A 
ATOM      4  O   UNL     1       4.500  -0.501  -0.268  0.00  0.00    -0.265 OA
ATOM      5  C   UNL     1       2.473   0.571   0.302  0.00  0.00    +0.075 A 
ATOM      6  C   UNL     1       1.588  -0.480   0.465  0.00  0.00    -0.023 A 
ATOM      7  C   UNL     1       0.266  -0.161   0.820  0.00  0.00    -0.004 A 
ATOM      8  S   UNL     1       0.208   1.563   0.929  0.00  0.00    -0.075 S 
ATOM      9  C   UNL     1       1.896   1.917   0.522  0.00  0.00    +0.092 A 
ATOM     10  N   UNL     1       2.620   2.985   0.399  0.00  0.00    -0.333 N 
ATOM     11  C   UNL     1      -0.569  -1.406   0.964  0.00  0.00    +0.043 C 
ATOM     12  C   UNL     1       0.453  -2.554   1.099  0.00  0.00    +0.010 C 
ATOM     13  C   UNL     1       1.681  -2.004   0.349  0.00  0.00    +0.037 C 
ATOM     14  H   UNL     1       2.149   3.963   0.572  0.00  0.00    +0.168 HD
ENDROOT
BRANCH   1  16
ATOM     15  C   UNL     1       4.021   5.327   0.175  0.00  0.00    +0.031 C 
ATOM     16  C   UNL     1       4.646   4.106  -0.050  0.00  0.00    +0.084 C 
ATOM     17 CL   UNL     1       6.328   4.057  -0.477  0.00  0.00    -0.080 Cl
BRANCH  15  22
ATOM     18  C   UNL     1       7.095  10.116   0.241  0.00  0.00    +0.046 C 
ATOM     19  C   UNL     1       6.279   8.849   0.222  0.00  0.00    -0.020 A 
ATOM     20  C   UNL     1       6.834   7.665   0.684  0.00  0.00    +0.006 A 
ATOM     21  C   UNL     1       6.104   6.511   0.678  0.00  0.00    +0.008 A 
ATOM     22  C   UNL     1       4.784   6.520   0.190  0.00  0.00    -0.021 A 
ATOM     23  C   UNL     1       4.225   7.724  -0.278  0.00  0.00    +0.041 A 
ATOM     24  C   UNL     1       4.978   8.876  -0.257  0.00  0.00    +0.130 A 
BRANCH  24  25
ATOM     25  N   UNL     1       4.397  10.146  -0.748  0.00  0.00    +0.057 N 
ATOM     26  O   UNL     1       3.153  10.179  -1.178  0.00  0.00    -0.126 OA
ATOM     27  O   UNL     1       5.125  11.244  -0.753  0.00  0.00    -0.126 OA
ENDBRANCH  24  25
ENDBRANCH  15  22
ENDBRANCH   1  16
TORSDOF 3
