REMARK  Name = ZINC18198937
REMARK  6 active torsions:
REMARK  status: ('A' for Active; 'I' for Inactive)
REMARK    1  A    between atoms: C_1  and  O_2
REMARK    2  A    between atoms: O_2  and  C_3
REMARK    3  A    between atoms: C_6  and  C_11
REMARK    4  A    between atoms: C_8  and  O_9
REMARK    5  A    between atoms: O_9  and  C_10
REMARK    6  A    between atoms: C_16  and  C_25
REMARK                            x       y       z     vdW  Elec       q    Type
REMARK                         _______ _______ _______ _____ _____    ______ ____
ROOT
ATOM      1  C   UNL     1       2.489   1.046  -0.017  0.00  0.00    +0.032 C 
ATOM      2  C   UNL     1       3.303   1.415   1.225  0.00  0.00    +0.060 C 
ATOM      3  C   UNL     1       4.638   0.709   1.185  0.00  0.00    +0.020 C 
ATOM      4  C   UNL     1       5.238   0.425   0.010  0.00  0.00    +0.041 C 
ATOM      5  C   UNL     1       6.574  -0.282  -0.061  0.00  0.00    +0.176 C 
ATOM      6  N   UNL     1       7.208  -0.284   1.251  0.00  0.00    -0.219 N 
ATOM      7  C   UNL     1       6.552   0.025   2.397  0.00  0.00    +0.220 A 
ATOM      8  N   UNL     1       7.395  -0.081   3.388  0.00  0.00    -0.180 NA
ATOM      9  C   UNL     1       8.595  -0.448   2.918  0.00  0.00    +0.233 A 
ATOM     10  N   UNL     1       8.521  -0.581   1.611  0.00  0.00    -0.132 NA
ATOM     11  N   UNL     1       9.739  -0.654   3.690  0.00  0.00    -0.326 N 
ATOM     12  N   UNL     1       5.213   0.380   2.390  0.00  0.00    -0.287 N 
ATOM     13  C   UNL     1       4.634   0.775  -1.212  0.00  0.00    +0.164 C 
ATOM     14  O   UNL     1       5.210   0.525  -2.252  0.00  0.00    -0.292 OA
ATOM     15  C   UNL     1       3.292   1.451  -1.258  0.00  0.00    +0.088 C 
ATOM     16  H   UNL     1      10.570  -0.919   3.265  0.00  0.00    +0.145 HD
ATOM     17  H   UNL     1       9.704  -0.533   4.652  0.00  0.00    +0.145 HD
ATOM     18  H   UNL     1       4.697   0.396   3.211  0.00  0.00    +0.155 HD
ENDROOT
BRANCH   1  22
ATOM     19  C   UNL     1      -1.237   3.144   0.030  0.00  0.00    +0.161 A 
ATOM     20  C   UNL     1      -0.043   3.847   0.023  0.00  0.00    +0.049 A 
ATOM     21  C   UNL     1       1.160   3.166   0.008  0.00  0.00    +0.008 A 
ATOM     22  C   UNL     1       1.175   1.783   0.000  0.00  0.00    -0.040 A 
ATOM     23  C   UNL     1      -0.013   1.076   0.008  0.00  0.00    +0.053 A 
ATOM     24  C   UNL     1      -1.222   1.752   0.017  0.00  0.00    +0.162 A 
BRANCH  19  26
ATOM     25  C   UNL     1      -2.361   5.240   0.051  0.00  0.00    +0.277 C 
ATOM     26  O   UNL     1      -2.421   3.812   0.044  0.00  0.00    -0.491 OA
ENDBRANCH  19  26
BRANCH  24  27
ATOM     27  O   UNL     1      -2.391   1.058   0.019  0.00  0.00    -0.491 OA
ATOM     28  C   UNL     1      -2.299  -0.368   0.011  0.00  0.00    +0.277 C 
ENDBRANCH  24  27
ENDBRANCH   1  22
BRANCH   5  29
ATOM     29  C   UNL     1       6.364  -1.703  -0.517  0.00  0.00    -0.011 A 
ATOM     30  C   UNL     1       6.950  -2.159  -1.683  0.00  0.00    +0.013 A 
ATOM     31  C   UNL     1       6.741  -3.443  -2.064  0.00  0.00    +0.045 A 
ATOM     32  S   UNL     1       5.689  -4.051  -0.757  0.00  0.00    -0.105 S 
ATOM     33  C   UNL     1       5.603  -2.554   0.213  0.00  0.00    +0.051 A 
ENDBRANCH   5  29
TORSDOF 4
