REMARK  Name = ZINC04236600
REMARK  14 active torsions:
REMARK  status: ('A' for Active; 'I' for Inactive)
REMARK    1  A    between atoms: C_1  and  C_2
REMARK    2  A    between atoms: C_5  and  O_33
REMARK    3  A    between atoms: C_7  and  C_30
REMARK    4  A    between atoms: C_7  and  C_31
REMARK    5  A    between atoms: C_12  and  O_29
REMARK    6  A    between atoms: C_14  and  C_16
REMARK    7  A    between atoms: C_16  and  C_17
REMARK    8  A    between atoms: N_19  and  C_20
REMARK    9  A    between atoms: C_20  and  C_21
REMARK   10  A    between atoms: C_26  and  O_27
REMARK   11  A    between atoms: O_27  and  C_28
REMARK   12  A    between atoms: C_31  and  O_32
REMARK   13  A    between atoms: O_33  and  C_34
REMARK   14  A    between atoms: N_36  and  C_37
REMARK                            x       y       z     vdW  Elec       q    Type
REMARK                         _______ _______ _______ _____ _____    ______ ____
ROOT
ATOM      1  C   UNL     1       7.713   1.889   2.984  0.00  0.00    +0.012 C 
ATOM      2  C   UNL     1       7.319   0.411   2.975  0.00  0.00    -0.023 C 
ATOM      3  C   UNL     1       5.929   0.250   3.594  0.00  0.00    +0.011 C 
ATOM      4  C   UNL     1       4.912   1.054   2.781  0.00  0.00    +0.046 C 
ATOM      5  C   UNL     1       4.891   0.540   1.340  0.00  0.00    +0.186 C 
ATOM      6  C   UNL     1       6.281   0.701   0.721  0.00  0.00    +0.031 C 
ATOM      7  C   UNL     1       7.298  -0.103   1.534  0.00  0.00    +0.007 C 
ATOM      8  C   UNL     1       8.688   0.058   0.915  0.00  0.00    +0.007 C 
ATOM      9  C   UNL     1       9.704  -0.746   1.728  0.00  0.00    +0.032 C 
ATOM     10  C   UNL     1       9.725  -0.232   3.169  0.00  0.00    +0.119 C 
ATOM     11  C   UNL     1       8.335  -0.393   3.788  0.00  0.00    +0.032 C 
ATOM     12  C   UNL     1       6.260   0.188  -0.720  0.00  0.00    +0.017 C 
ENDROOT
BRANCH  10  13
ATOM     13  O   UNL     1      10.094   1.148   3.178  0.00  0.00    -0.391 OA
ATOM     14  H   UNL     1      10.966   1.325   2.799  0.00  0.00    +0.210 HD
ENDBRANCH  10  13
BRANCH  11  15
ATOM     15  C   UNL     1       8.356   0.120   5.229  0.00  0.00    +0.102 C 
BRANCH  15  16
ATOM     16  C   UNL     1       9.265  -0.749   6.059  0.00  0.00    +0.214 C 
ATOM     17  O   UNL     1       9.840  -1.687   5.548  0.00  0.00    -0.276 OA
ATOM     18  N   UNL     1       9.440  -0.484   7.369  0.00  0.00    -0.311 N 
ATOM     19  H   UNL     1       8.980   0.266   7.778  0.00  0.00    +0.149 HD
BRANCH  18  20
ATOM     20  C   UNL     1      10.323  -1.330   8.176  0.00  0.00    +0.143 C 
BRANCH  20  21
ATOM     21  C   UNL     1      10.344  -0.824   9.595  0.00  0.00    +0.011 A 
ATOM     22  C   UNL     1      11.395  -0.043  10.036  0.00  0.00    +0.009 A 
ATOM     23  C   UNL     1      11.414   0.422  11.338  0.00  0.00    +0.001 A 
ATOM     24  C   UNL     1      10.382   0.107  12.202  0.00  0.00    +0.004 A 
ATOM     25  C   UNL     1       9.329  -0.674  11.767  0.00  0.00    +0.046 A 
ATOM     26  C   UNL     1       9.305  -1.137  10.459  0.00  0.00    +0.125 A 
BRANCH  26  27
ATOM     27  O   UNL     1       8.267  -1.900  10.026  0.00  0.00    -0.495 OA
ATOM     28  C   UNL     1       7.232  -2.183  10.970  0.00  0.00    +0.277 C 
ENDBRANCH  26  27
ENDBRANCH  20  21
ENDBRANCH  18  20
ENDBRANCH  15  16
ENDBRANCH  11  15
BRANCH   6  29
ATOM     29  C   UNL     1       6.676   2.180   0.730  0.00  0.00    +0.166 C 
BRANCH  29  30
ATOM     30  O   UNL     1       5.846   2.899  -0.184  0.00  0.00    -0.394 OA
ATOM     31  H   UNL     1       6.041   3.845  -0.231  0.00  0.00    +0.209 HD
ENDBRANCH  29  30
ENDBRANCH   6  29
BRANCH   5  32
ATOM     32  O   UNL     1       3.927   1.303   0.568  0.00  0.00    -0.446 OA
BRANCH  32  33
ATOM     33  C   UNL     1       2.664   0.838   0.536  0.00  0.00    +0.401 C 
ATOM     34  O   UNL     1       2.376  -0.179   1.137  0.00  0.00    -0.226 OA
ATOM     35  N   UNL     1       1.719   1.498  -0.162  0.00  0.00    -0.278 N 
ATOM     36  H   UNL     1       1.949   2.310  -0.641  0.00  0.00    +0.152 HD
BRANCH  35  37
ATOM     37  C   UNL     1       0.345   0.992  -0.197  0.00  0.00    +0.076 C 
ATOM     38  C   UNL     1      -0.416   1.497   1.030  0.00  0.00    +0.022 C 
ATOM     39  C   UNL     1      -1.851   0.968   0.994  0.00  0.00    +0.002 C 
ATOM     40  C   UNL     1      -2.545   1.463  -0.277  0.00  0.00    +0.000 C 
ATOM     41  C   UNL     1      -1.784   0.957  -1.504  0.00  0.00    +0.002 C 
ATOM     42  C   UNL     1      -0.349   1.486  -1.467  0.00  0.00    +0.022 C 
ENDBRANCH  35  37
ENDBRANCH  32  33
ENDBRANCH   5  32
TORSDOF 11
