REMARK  Name = ZINC00836033
REMARK  7 active torsions:
REMARK  status: ('A' for Active; 'I' for Inactive)
REMARK    1  A    between atoms: C_1  and  O_2
REMARK    2  A    between atoms: O_2  and  C_3
REMARK    3  A    between atoms: C_5  and  C_11
REMARK    4  A    between atoms: C_8  and  O_9
REMARK    5  A    between atoms: C_12  and  C_13
REMARK    6  A    between atoms: C_12  and  C_15
REMARK    7  A    between atoms: C_18  and  N_21
REMARK                            x       y       z     vdW  Elec       q    Type
REMARK                         _______ _______ _______ _____ _____    ______ ____
ROOT
ATOM      1  C   UNL     1      -1.205   2.092   0.019  0.00  0.00    +0.027 C 
ATOM      2  C   UNL     1      -0.023   1.423   0.110  0.00  0.00    +0.059 C 
ENDROOT
BRANCH   1   5
ATOM      3  C   UNL     1      -4.831   1.182   0.318  0.00  0.00    +0.163 A 
ATOM      4  C   UNL     1      -3.649   1.889   0.424  0.00  0.00    +0.057 A 
ATOM      5  C   UNL     1      -2.465   1.346  -0.090  0.00  0.00    -0.019 A 
ATOM      6  C   UNL     1      -2.486   0.092  -0.713  0.00  0.00    +0.027 A 
ATOM      7  C   UNL     1      -3.669  -0.609  -0.807  0.00  0.00    +0.063 A 
ATOM      8  C   UNL     1      -4.843  -0.069  -0.298  0.00  0.00    +0.173 A 
ATOM      9 BR   UNL     1      -3.696  -2.306  -1.641  0.00  0.00    -0.046 Br
BRANCH   3  11
ATOM     10  C   UNL     1      -5.897   2.991   1.433  0.00  0.00    +0.277 C 
ATOM     11  O   UNL     1      -5.983   1.706   0.816  0.00  0.00    -0.491 OA
ENDBRANCH   3  11
BRANCH   8  12
ATOM     12  O   UNL     1      -6.008  -0.762  -0.400  0.00  0.00    -0.503 OA
ATOM     13  H   UNL     1      -6.506  -0.577  -1.208  0.00  0.00    +0.292 HD
ENDBRANCH   8  12
ENDBRANCH   1   5
BRANCH   2  14
ATOM     14  C   UNL     1       1.255   2.169   0.062  0.00  0.00    -0.008 A 
ATOM     15  C   UNL     1       1.625   2.851  -1.097  0.00  0.00    +0.011 A 
ATOM     16  C   UNL     1       2.815   3.549  -1.133  0.00  0.00    +0.033 A 
ATOM     17  C   UNL     1       3.646   3.563  -0.027  0.00  0.00    +0.126 A 
ATOM     18  C   UNL     1       3.287   2.884   1.123  0.00  0.00    +0.033 A 
ATOM     19  C   UNL     1       2.097   2.188   1.174  0.00  0.00    +0.011 A 
BRANCH  17  20
ATOM     20  N   UNL     1       4.924   4.308  -0.075  0.00  0.00    +0.056 N 
ATOM     21  O   UNL     1       5.658   4.323   0.897  0.00  0.00    -0.126 OA
ATOM     22  O   UNL     1       5.243   4.907  -1.087  0.00  0.00    -0.126 OA
ENDBRANCH  17  20
ENDBRANCH   2  14
BRANCH   2  23
ATOM     23  C   UNL     1      -0.016  -0.002   0.246  0.00  0.00    +0.100 C 
ATOM     24  N   UNL     1      -0.010  -1.133   0.353  0.00  0.00    -0.191 NA
ENDBRANCH   2  23
TORSDOF 6
