REMARK  Name = ZINC09124115
REMARK  11 active torsions:
REMARK  status: ('A' for Active; 'I' for Inactive)
REMARK    1  A    between atoms: C_1  and  C_2
REMARK    2  A    between atoms: C_2  and  O_3
REMARK    3  A    between atoms: O_3  and  C_4
REMARK    4  A    between atoms: C_6  and  C_11
REMARK    5  A    between atoms: C_9  and  O_10
REMARK    6  A    between atoms: C_14  and  C_28
REMARK    7  A    between atoms: N_21  and  C_22
REMARK    8  A    between atoms: C_22  and  C_23
REMARK    9  A    between atoms: C_30  and  C_36
REMARK   10  A    between atoms: C_32  and  C_35
REMARK   11  A    between atoms: C_33  and  O_34
REMARK                            x       y       z     vdW  Elec       q    Type
REMARK                         _______ _______ _______ _____ _____    ______ ____
ROOT
ATOM      1  C   UNL     1       0.028  -4.976   0.028  0.00  0.00    +0.142 C 
ATOM      2  C   UNL     1       0.829  -5.323   1.253  0.00  0.00    +0.035 A 
ATOM      3  C   UNL     1       1.513  -4.864   2.384  0.00  0.00    +0.102 A 
ATOM      4  N   UNL     1       1.989  -5.921   3.013  0.00  0.00    -0.173 NA
ATOM      5  N   UNL     1       1.674  -7.001   2.391  0.00  0.00    -0.272 N 
ATOM      6  H   UNL     1       1.917  -7.897   2.672  0.00  0.00    +0.189 HD
ATOM      7  C   UNL     1       0.945  -6.699   1.276  0.00  0.00    +0.126 A 
ATOM      8  C   UNL     1       0.245  -7.246   0.108  0.00  0.00    +0.266 C 
ATOM      9  O   UNL     1       0.161  -8.429  -0.161  0.00  0.00    -0.268 OA
ATOM     10  N   UNL     1      -0.293  -6.252  -0.624  0.00  0.00    -0.278 N 
ENDROOT
BRANCH   3  11
ATOM     11  C   UNL     1       1.673  -3.448   2.800  0.00  0.00    +0.044 A 
ATOM     12  C   UNL     1       1.003  -2.438   2.115  0.00  0.00    +0.017 A 
ATOM     13  C   UNL     1       1.155  -1.123   2.505  0.00  0.00    -0.049 A 
ATOM     14  C   UNL     1       1.972  -0.804   3.575  0.00  0.00    +0.010 A 
ATOM     15  C   UNL     1       2.642  -1.799   4.261  0.00  0.00    -0.008 A 
ATOM     16  C   UNL     1       2.493  -3.124   3.884  0.00  0.00    +0.129 A 
ATOM     17  C   UNL     1       3.530  -1.443   5.426  0.00  0.00    +0.047 C 
ATOM     18  C   UNL     1       0.429  -0.031   1.762  0.00  0.00    +0.044 C 
BRANCH  16  19
ATOM     19  O   UNL     1       3.146  -4.103   4.562  0.00  0.00    -0.506 OA
ATOM     20  H   UNL     1       4.025  -4.305   4.212  0.00  0.00    +0.292 HD
ENDBRANCH  16  19
ENDBRANCH   3  11
BRANCH   1  23
ATOM     21  C   UNL     1       2.743  -3.819  -2.330  0.00  0.00    +0.162 A 
ATOM     22  C   UNL     1       1.992  -4.614  -1.478  0.00  0.00    +0.055 A 
ATOM     23  C   UNL     1       0.843  -4.111  -0.898  0.00  0.00    -0.019 A 
ATOM     24  C   UNL     1       0.440  -2.815  -1.165  0.00  0.00    +0.009 A 
ATOM     25  C   UNL     1       1.184  -2.018  -2.014  0.00  0.00    +0.049 A 
ATOM     26  C   UNL     1       2.340  -2.514  -2.594  0.00  0.00    +0.158 A 
BRANCH  26  27
ATOM     27  O   UNL     1       3.077  -1.728  -3.425  0.00  0.00    -0.503 OA
ATOM     28  H   UNL     1       2.817  -1.787  -4.355  0.00  0.00    +0.292 HD
ENDBRANCH  26  27
BRANCH  21  29
ATOM     29  O   UNL     1       3.874  -4.312  -2.901  0.00  0.00    -0.489 OA
BRANCH  29  31
ATOM     30  C   UNL     1       5.422  -6.085  -3.452  0.00  0.00    +0.048 C 
ATOM     31  C   UNL     1       4.189  -5.682  -2.641  0.00  0.00    +0.226 C 
ENDBRANCH  29  31
ENDBRANCH  21  29
ENDBRANCH   1  23
BRANCH  10  32
ATOM     32  C   UNL     1      -1.065  -6.414  -1.859  0.00  0.00    +0.183 C 
BRANCH  32  33
ATOM     33  C   UNL     1      -0.133  -6.382  -3.042  0.00  0.00    +0.122 A 
ATOM     34  C   UNL     1       0.471  -7.449  -3.597  0.00  0.00    +0.046 A 
ATOM     35  C   UNL     1       1.249  -6.965  -4.673  0.00  0.00    +0.041 A 
ATOM     36  C   UNL     1       1.074  -5.631  -4.712  0.00  0.00    +0.195 A 
ATOM     37  O   UNL     1       0.232  -5.285  -3.726  0.00  0.00    -0.466 OA
ENDBRANCH  32  33
ENDBRANCH  10  32
TORSDOF 8
