REMARK  Name = ZINC39685206
REMARK  11 active torsions:
REMARK  status: ('A' for Active; 'I' for Inactive)
REMARK    1  A    between atoms: C_1  and  C_2
REMARK    2  A    between atoms: C_2  and  C_3
REMARK    3  A    between atoms: C_2  and  C_4
REMARK    4  A    between atoms: C_4  and  C_6
REMARK    5  A    between atoms: C_4  and  O_32
REMARK    6  A    between atoms: C_10  and  C_19
REMARK    7  A    between atoms: N_21  and  C_22
REMARK    8  A    between atoms: C_22  and  C_23
REMARK    9  A    between atoms: C_23  and  O_24
REMARK   10  A    between atoms: O_24  and  C_25
REMARK   11  A    between atoms: O_32  and  C_33
REMARK                            x       y       z     vdW  Elec       q    Type
REMARK                         _______ _______ _______ _____ _____    ______ ____
ROOT
ATOM      1  C   UNL     1      -1.135  -1.601   0.251  0.00  0.00    +0.257 C 
ATOM      2  O   UNL     1      -1.455  -2.379  -0.622  0.00  0.00    -0.272 OA
ATOM      3  N   UNL     1      -0.660  -2.064   1.425  0.00  0.00    -0.297 N 
ATOM      4  C   UNL     1      -0.334  -1.285   2.643  0.00  0.00    +0.121 C 
ATOM      5  C   UNL     1      -0.817  -2.170   3.813  0.00  0.00    +0.100 C 
ATOM      6  C   UNL     1      -0.822  -3.600   3.248  0.00  0.00    -0.004 C 
ATOM      7  C   UNL     1      -0.354  -3.467   1.792  0.00  0.00    +0.115 C 
ATOM      8  C   UNL     1      -2.233  -4.181   3.291  0.00  0.00    -0.010 C 
ATOM      9  C   UNL     1      -2.202  -5.622   2.777  0.00  0.00    -0.082 C 
ATOM     10  N   UNL     1      -1.297  -6.422   3.611  0.00  0.00    +0.379 N 
ATOM     11  C   UNL     1       0.075  -5.914   3.491  0.00  0.00    -0.082 C 
ATOM     12  C   UNL     1       0.141  -4.484   4.035  0.00  0.00    -0.010 C 
ATOM     13  H   UNL     1      -1.592  -6.367   4.574  0.00  0.00    -0.086 HD
ATOM     14  H   UNL     1      -1.325  -7.384   3.308  0.00  0.00    -0.086 HD
ENDROOT
BRANCH   5  15
ATOM     15  C   UNL     1       0.135  -2.067   4.977  0.00  0.00    +0.218 C 
ATOM     16  O   UNL     1       1.299  -1.786   4.785  0.00  0.00    -0.275 OA
ATOM     17  N   UNL     1      -0.307  -2.288   6.231  0.00  0.00    -0.312 N 
ATOM     18  H   UNL     1      -1.238  -2.513   6.385  0.00  0.00    +0.149 HD
BRANCH  17  19
ATOM     19  C   UNL     1       0.619  -2.188   7.362  0.00  0.00    +0.145 C 
BRANCH  19  20
ATOM     20  C   UNL     1      -0.131  -2.482   8.663  0.00  0.00    +0.248 C 
BRANCH  20  21
ATOM     21  O   UNL     1      -0.577  -3.840   8.658  0.00  0.00    -0.488 OA
BRANCH  21  22
ATOM     22  C   UNL     1      -1.266  -4.266   9.750  0.00  0.00    +0.156 A 
ATOM     23  C   UNL     1      -1.512  -3.395  10.800  0.00  0.00    +0.048 A 
ATOM     24  C   UNL     1      -2.213  -3.831  11.909  0.00  0.00    +0.004 A 
ATOM     25  C   UNL     1      -2.668  -5.135  11.973  0.00  0.00    +0.003 A 
ATOM     26  C   UNL     1      -2.424  -6.007  10.928  0.00  0.00    +0.042 A 
ATOM     27  C   UNL     1      -1.730  -5.574   9.813  0.00  0.00    +0.165 A 
ATOM     28  F   UNL     1      -1.496  -6.425   8.789  0.00  0.00    -0.202 F 
ENDBRANCH  21  22
ENDBRANCH  20  21
ENDBRANCH  19  20
ENDBRANCH  17  19
ENDBRANCH   5  15
BRANCH   1  29
ATOM     29  C   UNL     1      -1.267  -0.117   0.024  0.00  0.00    +0.261 C 
BRANCH  29  31
ATOM     30  C   UNL     1      -0.037   1.968  -0.594  0.00  0.00    +0.011 C 
ATOM     31  C   UNL     1       0.082   0.453  -0.419  0.00  0.00    +0.033 C 
ATOM     32  C   UNL     1       1.140   0.144   0.643  0.00  0.00    +0.011 C 
ENDBRANCH  29  31
BRANCH  29  33
ATOM     33  O   UNL     1      -2.242   0.124  -0.992  0.00  0.00    -0.479 OA
BRANCH  33  34
ATOM     34  C   UNL     1      -3.104   1.155  -0.787  0.00  0.00    +0.122 A 
ATOM     35  C   UNL     1      -4.155   1.367  -1.667  0.00  0.00    +0.045 A 
ATOM     36  C   UNL     1      -5.030   2.416  -1.457  0.00  0.00    +0.004 A 
ATOM     37  C   UNL     1      -4.859   3.252  -0.369  0.00  0.00    +0.000 A 
ATOM     38  C   UNL     1      -3.812   3.042   0.510  0.00  0.00    +0.004 A 
ATOM     39  C   UNL     1      -2.938   1.992   0.307  0.00  0.00    +0.045 A 
ENDBRANCH  33  34
ENDBRANCH  29  33
ENDBRANCH   1  29
TORSDOF 9
