REMARK  Name = ZINC67268893
REMARK  8 active torsions:
REMARK  status: ('A' for Active; 'I' for Inactive)
REMARK    1  A    between atoms: C_1  and  C_2
REMARK    2  A    between atoms: C_5  and  C_8
REMARK    3  A    between atoms: C_8  and  C_10
REMARK    4  A    between atoms: C_8  and  N_23
REMARK    5  A    between atoms: C_10  and  N_11
REMARK    6  A    between atoms: C_12  and  C_14
REMARK    7  A    between atoms: N_23  and  C_24
REMARK    8  A    between atoms: N_23  and  C_25
REMARK                            x       y       z     vdW  Elec       q    Type
REMARK                         _______ _______ _______ _____ _____    ______ ____
ROOT
ATOM      1  N   UNL     1       1.370  -5.935   0.426  0.00  0.00    -0.316 N 
ATOM      2  C   UNL     1       2.501  -6.538   0.840  0.00  0.00    +0.216 C 
ATOM      3  O   UNL     1       3.537  -5.909   0.902  0.00  0.00    -0.276 OA
ATOM      4  H   UNL     1       0.542  -6.438   0.376  0.00  0.00    +0.149 HD
ENDROOT
BRANCH   2   5
ATOM      5  C   UNL     1       2.480  -7.995   1.227  0.00  0.00    +0.078 C 
ATOM      6  C   UNL     1       1.504  -8.200   2.387  0.00  0.00    +0.032 C 
ATOM      7  C   UNL     1       1.459  -9.686   2.755  0.00  0.00    +0.110 C 
ATOM      8  N   UNL     1       2.826 -10.147   3.029  0.00  0.00    -0.286 N 
ATOM      9  C   UNL     1       3.866  -9.918   2.016  0.00  0.00    +0.110 C 
ATOM     10  C   UNL     1       3.884  -8.428   1.656  0.00  0.00    +0.032 C 
ATOM     11  C   UNL     1       3.123 -10.768   4.188  0.00  0.00    +0.300 C 
ATOM     12  O   UNL     1       2.278 -10.869   5.056  0.00  0.00    -0.253 OA
ATOM     13  N   UNL     1       4.355 -11.278   4.383  0.00  0.00    -0.313 N 
ATOM     14  H   UNL     1       5.050 -11.135   3.721  0.00  0.00    +0.146 HD
ATOM     15  H   UNL     1       4.547 -11.787   5.186  0.00  0.00    +0.146 HD
ENDBRANCH   2   5
BRANCH   1  16
ATOM     16  C   UNL     1       1.391  -4.519   0.050  0.00  0.00    +0.093 C 
BRANCH  16  17
ATOM     17  C   UNL     1      -0.033  -4.053  -0.262  0.00  0.00    -0.021 C 
BRANCH  17  22
ATOM     18  C   UNL     1      -2.041  -6.925  -4.857  0.00  0.00    +0.044 C 
ATOM     19  C   UNL     1      -1.517  -6.176  -3.659  0.00  0.00    -0.050 A 
ATOM     20  C   UNL     1      -1.885  -6.567  -2.385  0.00  0.00    +0.003 A 
ATOM     21  C   UNL     1      -1.405  -5.880  -1.286  0.00  0.00    +0.002 A 
ATOM     22  C   UNL     1      -0.556  -4.803  -1.460  0.00  0.00    -0.059 A 
ATOM     23  C   UNL     1      -0.187  -4.413  -2.734  0.00  0.00    +0.002 A 
ATOM     24  C   UNL     1      -0.664  -5.103  -3.833  0.00  0.00    +0.003 A 
ENDBRANCH  17  22
BRANCH  17  25
ATOM     25  N   UNL     1      -0.025  -2.613  -0.551  0.00  0.00    +0.382 N 
ATOM     26  C   UNL     1      -1.403  -2.147  -0.757  0.00  0.00    -0.096 C 
ATOM     27  C   UNL     1       0.572  -1.890   0.581  0.00  0.00    -0.096 C 
ATOM     28  H   UNL     1       0.517  -2.440  -1.384  0.00  0.00    -0.082 HD
ENDBRANCH  17  25
ENDBRANCH  16  17
ENDBRANCH   1  16
TORSDOF 5
