REMARK  Name = ZINC31735335
REMARK  7 active torsions:
REMARK  status: ('A' for Active; 'I' for Inactive)
REMARK    1  A    between atoms: C_1  and  C_2
REMARK    2  A    between atoms: C_4  and  C_17
REMARK    3  A    between atoms: C_6  and  C_12
REMARK    4  A    between atoms: N_9  and  C_11
REMARK    5  A    between atoms: N_19  and  C_20
REMARK    6  A    between atoms: C_20  and  C_22
REMARK    7  A    between atoms: C_20  and  C_23
REMARK                            x       y       z     vdW  Elec       q    Type
REMARK                         _______ _______ _______ _____ _____    ______ ____
ROOT
ATOM      1  C   UNL     1      -0.261   0.787  -3.159  0.00  0.00    +0.245 C 
ATOM      2  O   UNL     1      -0.110   1.731  -2.409  0.00  0.00    -0.270 OA
ATOM      3  N   UNL     1      -0.484   0.998  -4.471  0.00  0.00    -0.305 N 
ATOM      4  H   UNL     1      -0.605   0.244  -5.070  0.00  0.00    +0.150 HD
ENDROOT
BRANCH   1   8
ATOM      5  C   UNL     1      -1.734   1.301  -0.448  0.00  0.00    +0.068 C 
ATOM      6  C   UNL     1      -1.422  -0.172  -0.379  0.00  0.00    +0.070 A 
ATOM      7  C   UNL     1      -0.752  -0.918  -1.371  0.00  0.00    +0.054 A 
ATOM      8  C   UNL     1      -0.198  -0.594  -2.632  0.00  0.00    +0.051 A 
ATOM      9  C   UNL     1       0.405  -1.611  -3.360  0.00  0.00    +0.045 A 
ATOM     10  C   UNL     1       0.443  -2.906  -2.826  0.00  0.00    +0.109 A 
ATOM     11  N   UNL     1      -0.085  -3.179  -1.642  0.00  0.00    -0.224 NA
ATOM     12  C   UNL     1      -0.671  -2.247  -0.906  0.00  0.00    +0.160 A 
ATOM     13  N   UNL     1      -1.280  -2.264   0.322  0.00  0.00    -0.249 N 
ATOM     14  N   UNL     1      -1.722  -0.967   0.608  0.00  0.00    -0.174 NA
ATOM     15  C   UNL     1      -1.437  -3.435   1.188  0.00  0.00    +0.174 C 
BRANCH  10  16
ATOM     16  C   UNL     1       1.083  -3.988  -3.599  0.00  0.00    +0.153 A 
ATOM     17  C   UNL     1       1.190  -5.289  -3.214  0.00  0.00    +0.051 A 
ATOM     18  C   UNL     1       1.867  -5.963  -4.248  0.00  0.00    +0.042 A 
ATOM     19  C   UNL     1       2.137  -5.051  -5.204  0.00  0.00    +0.196 A 
ATOM     20  O   UNL     1       1.657  -3.861  -4.811  0.00  0.00    -0.461 OA
ENDBRANCH  10  16
ENDBRANCH   1   8
BRANCH   3  21
ATOM     21  C   UNL     1      -0.546   2.365  -4.993  0.00  0.00    +0.100 C 
ATOM     22  C   UNL     1      -1.962   2.916  -4.813  0.00  0.00    +0.033 C 
BRANCH  21  23
ATOM     23  C   UNL     1      -0.191   2.360  -6.458  0.00  0.00    -0.025 A 
ATOM     24  C   UNL     1      -0.659   1.349  -7.277  0.00  0.00    +0.009 A 
ATOM     25  C   UNL     1      -0.339   1.338  -8.622  0.00  0.00    +0.048 A 
ATOM     26  C   UNL     1       0.453   2.342  -9.151  0.00  0.00    +0.142 A 
ATOM     27  C   UNL     1       0.925   3.361  -8.325  0.00  0.00    +0.076 A 
ATOM     28  C   UNL     1       0.596   3.370  -6.980  0.00  0.00    +0.032 A 
ATOM     29  N   UNL     1       1.728   4.372  -8.873  0.00  0.00    -0.280 N 
ATOM     30  C   UNL     1       1.769   4.520 -10.215  0.00  0.00    +0.255 C 
ATOM     31  O   UNL     1       2.481   5.366 -10.713  0.00  0.00    -0.272 OA
ATOM     32  C   UNL     1       0.927   3.628 -11.091  0.00  0.00    +0.325 C 
ATOM     33  O   UNL     1       0.777   2.348 -10.472  0.00  0.00    -0.481 OA
ATOM     34  H   UNL     1       2.246   4.956  -8.297  0.00  0.00    +0.155 HD
ENDBRANCH  21  23
ENDBRANCH   3  21
TORSDOF 4
