REMARK  Name = ZINC21351986
REMARK  7 active torsions:
REMARK  status: ('A' for Active; 'I' for Inactive)
REMARK    1  A    between atoms: C_3  and  S_22
REMARK    2  A    between atoms: C_6  and  N_7
REMARK    3  A    between atoms: C_8  and  C_10
REMARK    4  A    between atoms: N_15  and  C_17
REMARK    5  A    between atoms: S_22  and  N_25
REMARK    6  A    between atoms: N_25  and  C_26
REMARK    7  A    between atoms: C_26  and  C_27
REMARK                            x       y       z     vdW  Elec       q    Type
REMARK                         _______ _______ _______ _____ _____    ______ ____
ROOT
ATOM      1  C   UNL     1       2.929  -0.077   7.494  0.00  0.00    +0.025 A 
ATOM      2  C   UNL     1       3.956  -0.129   8.416  0.00  0.00    +0.030 A 
ATOM      3  C   UNL     1       3.975  -1.123   9.377  0.00  0.00    +0.105 A 
ATOM      4  C   UNL     1       2.963  -2.064   9.422  0.00  0.00    +0.030 A 
ATOM      5  C   UNL     1       1.931  -2.015   8.506  0.00  0.00    +0.025 A 
ATOM      6  C   UNL     1       1.909  -1.018   7.540  0.00  0.00    +0.034 A 
ENDROOT
BRANCH   6   7
ATOM      7  N   UNL     1       0.864  -0.966   6.610  0.00  0.00    -0.285 N 
ATOM      8  C   UNL     1      -0.384  -1.318   6.978  0.00  0.00    +0.222 C 
ATOM      9  O   UNL     1      -0.587  -1.760   8.089  0.00  0.00    -0.275 OA
ATOM     10  H   UNL     1       1.062  -0.638   5.579  0.00  0.00    +0.155 HD
BRANCH   8  11
ATOM     11  C   UNL     1      -1.527  -1.163   6.008  0.00  0.00    +0.101 C 
ATOM     12  C   UNL     1      -1.716   0.318   5.608  0.00  0.00    +0.110 C 
ATOM     13  C   UNL     1      -3.216   0.484   5.499  0.00  0.00    +0.217 C 
ATOM     14  O   UNL     1      -3.774   1.407   4.943  0.00  0.00    -0.276 OA
ATOM     15  N   UNL     1      -3.840  -0.538   6.108  0.00  0.00    -0.298 N 
ATOM     16  C   UNL     1      -2.877  -1.477   6.695  0.00  0.00    +0.121 C 
BRANCH  15  17
ATOM     17  C   UNL     1      -5.295  -0.694   6.181  0.00  0.00    +0.076 C 
ATOM     18  C   UNL     1      -5.939   0.512   6.909  0.00  0.00    +0.022 C 
ATOM     19  C   UNL     1      -7.393   0.537   6.393  0.00  0.00    +0.002 C 
ATOM     20  C   UNL     1      -7.388  -0.180   5.031  0.00  0.00    +0.002 C 
ATOM     21  C   UNL     1      -5.932  -0.615   4.768  0.00  0.00    +0.022 C 
ENDBRANCH  15  17
ENDBRANCH   8  11
ENDBRANCH   6   7
BRANCH   3  22
ATOM     22  S   UNL     1       5.291  -1.189  10.547  0.00  0.00    +0.058 S 
ATOM     23  O   UNL     1       5.823   0.125  10.635  0.00  0.00    -0.153 OA
ATOM     24  O   UNL     1       4.792  -1.887  11.680  0.00  0.00    -0.153 OA
BRANCH  22  25
ATOM     25  N   UNL     1       6.480  -2.139   9.892  0.00  0.00    -0.187 NA
ATOM     26  H   UNL     1       6.622  -3.161  10.273  0.00  0.00    +0.148 HD
BRANCH  25  27
ATOM     27  C   UNL     1       7.181  -1.703   8.682  0.00  0.00    +0.137 C 
BRANCH  27  28
ATOM     28  C   UNL     1       8.450  -2.539   8.500  0.00  0.00    +0.134 C 
ATOM     29  C   UNL     1       9.271  -2.015   7.301  0.00  0.00    +0.035 C 
ATOM     30  C   UNL     1       9.842  -3.295   6.650  0.00  0.00    +0.031 C 
ATOM     31  C   UNL     1       9.299  -4.440   7.533  0.00  0.00    +0.160 C 
ATOM     32  O   UNL     1       8.111  -3.898   8.150  0.00  0.00    -0.375 OA
ENDBRANCH  27  28
ENDBRANCH  25  27
ENDBRANCH  22  25
ENDBRANCH   3  22
TORSDOF 7
