REMARK  Name = ZINC14467856
REMARK  7 active torsions:
REMARK  status: ('A' for Active; 'I' for Inactive)
REMARK    1  A    between atoms: C_1  and  C_2
REMARK    2  A    between atoms: C_2  and  C_3
REMARK    3  A    between atoms: C_3  and  C_5
REMARK    4  A    between atoms: C_3  and  N_6
REMARK    5  A    between atoms: C_7  and  C_9
REMARK    6  A    between atoms: C_16  and  C_25
REMARK    7  A    between atoms: C_30  and  O_31
REMARK                            x       y       z     vdW  Elec       q    Type
REMARK                         _______ _______ _______ _____ _____    ______ ____
ROOT
ATOM      1  C   UNL     1       1.614   0.224  -3.317  0.00  0.00    +0.058 A 
ATOM      2  C   UNL     1       0.846   0.037  -4.465  0.00  0.00    +0.015 A 
ATOM      3  C   UNL     1      -0.459   0.475  -4.501  0.00  0.00    +0.001 A 
ATOM      4  C   UNL     1      -1.004   1.110  -3.397  0.00  0.00    +0.006 A 
ATOM      5  C   UNL     1      -0.257   1.312  -2.257  0.00  0.00    -0.019 A 
ATOM      6  C   UNL     1       1.065   0.862  -2.186  0.00  0.00    +0.044 A 
ATOM      7  N   UNL     1       1.875   0.999  -1.071  0.00  0.00    -0.336 N 
ATOM      8  C   UNL     1       1.326   1.763   0.060  0.00  0.00    +0.109 C 
ATOM      9  C   UNL     1      -0.139   1.394   0.178  0.00  0.00    +0.029 C 
ATOM     10  C   UNL     1      -0.805   2.025  -1.084  0.00  0.00    +0.049 C 
ATOM     11  C   UNL     1      -2.250   1.999  -0.750  0.00  0.00    -0.023 C 
ATOM     12  C   UNL     1      -2.380   2.067   0.571  0.00  0.00    -0.030 C 
ATOM     13  C   UNL     1      -0.975   2.104   1.248  0.00  0.00    +0.033 C 
ATOM     14  H   UNL     1       2.226   0.104  -0.767  0.00  0.00    +0.147 HD
ENDROOT
BRANCH   8  15
ATOM     15  C   UNL     1       2.052   1.395   1.329  0.00  0.00    +0.017 A 
ATOM     16  C   UNL     1       1.478   0.510   2.222  0.00  0.00    +0.029 A 
ATOM     17  C   UNL     1       2.146   0.167   3.384  0.00  0.00    +0.043 A 
ATOM     18  C   UNL     1       3.385   0.717   3.660  0.00  0.00    +0.043 A 
ATOM     19  C   UNL     1       3.960   1.607   2.772  0.00  0.00    +0.084 A 
ATOM     20  C   UNL     1       3.293   1.948   1.603  0.00  0.00    +0.140 A 
ATOM     21 CL   UNL     1       5.515   2.297   3.118  0.00  0.00    -0.080 Cl
ATOM     22 CL   UNL     1       1.425  -0.949   4.501  0.00  0.00    -0.083 Cl
BRANCH  20  23
ATOM     23  O   UNL     1       3.857   2.822   0.728  0.00  0.00    -0.505 OA
ATOM     24  H   UNL     1       3.651   3.749   0.910  0.00  0.00    +0.292 HD
ENDBRANCH  20  23
ENDBRANCH   8  15
BRANCH   1  26
ATOM     25  N   UNL     1       3.539  -0.860  -4.364  0.00  0.00    -0.309 N 
ATOM     26  C   UNL     1       3.010  -0.250  -3.285  0.00  0.00    +0.246 C 
ATOM     27  O   UNL     1       3.684  -0.089  -2.285  0.00  0.00    -0.270 OA
ATOM     28  H   UNL     1       3.002  -0.988  -5.161  0.00  0.00    +0.149 HD
BRANCH  25  29
ATOM     29  C   UNL     1       4.927  -1.330  -4.332  0.00  0.00    +0.070 C 
ATOM     30  C   UNL     1       5.864  -0.180  -4.706  0.00  0.00    +0.028 C 
BRANCH  29  32
ATOM     31  C   UNL     1       4.257  -3.672  -4.888  0.00  0.00    +0.005 C 
ATOM     32  C   UNL     1       5.100  -2.475  -5.332  0.00  0.00    +0.018 C 
ENDBRANCH  29  32
ENDBRANCH  25  29
ENDBRANCH   1  26
TORSDOF 5
