REMARK  Name = ZINC48769333
REMARK  6 active torsions:
REMARK  status: ('A' for Active; 'I' for Inactive)
REMARK    1  A    between atoms: C_1  and  C_2
REMARK    2  A    between atoms: C_7  and  N_8
REMARK    3  A    between atoms: N_11  and  C_12
REMARK    4  A    between atoms: C_12  and  C_14
REMARK    5  A    between atoms: C_12  and  C_15
REMARK    6  A    between atoms: C_15  and  C_16
REMARK                            x       y       z     vdW  Elec       q    Type
REMARK                         _______ _______ _______ _____ _____    ______ ____
ROOT
ATOM      1  N   UNL     1       0.025  -0.014   2.417  0.00  0.00    -0.269 N 
ATOM      2  C   UNL     1      -0.056  -0.694   3.578  0.00  0.00    +0.304 C 
ATOM      3  O   UNL     1      -0.040  -1.909   3.574  0.00  0.00    -0.253 OA
ATOM      4  N   UNL     1      -0.156  -0.025   4.745  0.00  0.00    -0.296 N 
ATOM      5  H   UNL     1       0.078   0.954   2.425  0.00  0.00    +0.156 HD
ATOM      6  H   UNL     1      -0.169   0.944   4.748  0.00  0.00    +0.151 HD
ENDROOT
BRANCH   1  13
ATOM      7  C   UNL     1      -1.266   1.182   0.182  0.00  0.00    +0.046 C 
ATOM      8  C   UNL     1      -0.585  -0.158   0.085  0.00  0.00    -0.028 A 
ATOM      9  C   UNL     1      -0.570  -0.841  -1.116  0.00  0.00    +0.019 A 
ATOM     10  C   UNL     1       0.055  -2.071  -1.206  0.00  0.00    +0.014 A 
ATOM     11  C   UNL     1       0.667  -2.622  -0.094  0.00  0.00    +0.016 A 
ATOM     12  C   UNL     1       0.655  -1.944   1.109  0.00  0.00    +0.024 A 
ATOM     13  C   UNL     1       0.034  -0.706   1.200  0.00  0.00    +0.038 A 
ATOM     14  I   UNL     1       0.075  -3.103  -3.030  0.00  0.00    -0.044 I 
ENDBRANCH   1  13
BRANCH   4  15
ATOM     15  C   UNL     1      -0.245  -0.764   6.007  0.00  0.00    +0.076 C 
ATOM     16  C   UNL     1       1.163  -1.111   6.494  0.00  0.00    +0.028 C 
BRANCH  15  17
ATOM     17  C   UNL     1      -0.949   0.100   7.055  0.00  0.00    +0.057 C 
BRANCH  17  18
ATOM     18  C   UNL     1      -2.376   0.339   6.632  0.00  0.00    -0.039 A 
ATOM     19  C   UNL     1      -2.701   1.430   5.848  0.00  0.00    +0.011 A 
ATOM     20  C   UNL     1      -3.994   1.616   5.485  0.00  0.00    +0.045 A 
ATOM     21  S   UNL     1      -4.799   0.224   6.260  0.00  0.00    -0.105 S 
ATOM     22  C   UNL     1      -3.358  -0.515   7.010  0.00  0.00    +0.049 A 
ENDBRANCH  17  18
ENDBRANCH  15  17
ENDBRANCH   4  15
TORSDOF 4
