REMARK  Name = ZINC66708424
REMARK  2 active torsions:
REMARK  status: ('A' for Active; 'I' for Inactive)
REMARK    1  A    between atoms: C_6  and  C_7
REMARK    2  A    between atoms: C_14  and  C_16
REMARK                            x       y       z     vdW  Elec       q    Type
REMARK                         _______ _______ _______ _____ _____    ______ ____
ROOT
ATOM      1  C   UNL     1      -1.581  -0.419   0.104  0.00  0.00    +0.166 C 
ATOM      2  C   UNL     1      -1.721  -1.133  -1.245  0.00  0.00    +0.144 C 
ATOM      3  N   UNL     1      -2.903  -2.008  -1.187  0.00  0.00    -0.291 N 
ATOM      4  C   UNL     1      -3.028  -2.927  -0.045  0.00  0.00    +0.136 C 
ATOM      5  C   UNL     1      -2.825  -2.125   1.246  0.00  0.00    +0.179 C 
ATOM      6  O   UNL     1      -1.604  -1.388   1.156  0.00  0.00    -0.369 OA
ATOM      7  C   UNL     1      -3.844  -1.967  -2.151  0.00  0.00    +0.267 C 
ATOM      8  O   UNL     1      -3.783  -1.123  -3.024  0.00  0.00    -0.268 OA
ENDROOT
BRANCH   1  14
ATOM      9  C   UNL     1      -0.259   1.696  -0.094  0.00  0.00    +0.008 A 
ATOM     10  C   UNL     1       0.937   2.389  -0.059  0.00  0.00    +0.022 A 
ATOM     11  C   UNL     1       2.116   1.720   0.213  0.00  0.00    +0.059 A 
ATOM     12  C   UNL     1       2.098   0.355   0.449  0.00  0.00    +0.060 A 
ATOM     13  C   UNL     1       0.901  -0.336   0.414  0.00  0.00    +0.027 A 
ATOM     14  C   UNL     1      -0.277   0.335   0.142  0.00  0.00    -0.016 A 
ATOM     15 CL   UNL     1       3.578  -0.487   0.789  0.00  0.00    -0.082 Cl
ATOM     16 CL   UNL     1       3.618   2.589   0.256  0.00  0.00    -0.082 Cl
ENDBRANCH   1  14
BRANCH   7  17
ATOM     17  C   UNL     1      -4.948  -2.948  -2.148  0.00  0.00    +0.147 A 
ATOM     18  C   UNL     1      -6.075  -2.950  -3.003  0.00  0.00    +0.054 A 
ATOM     19  C   UNL     1      -6.807  -4.027  -2.634  0.00  0.00    +0.105 A 
ATOM     20  N   UNL     1      -6.151  -4.628  -1.618  0.00  0.00    -0.284 N 
ATOM     21  H   UNL     1      -6.452  -5.428  -1.159  0.00  0.00    +0.188 HD
ATOM     22  N   UNL     1      -5.068  -3.991  -1.351  0.00  0.00    -0.169 NA
ENDBRANCH   7  17
TORSDOF 2
