REMARK  Name = ZINC13354529
REMARK  5 active torsions:
REMARK  status: ('A' for Active; 'I' for Inactive)
REMARK    1  A    between atoms: C_1  and  C_2
REMARK    2  A    between atoms: C_4  and  C_7
REMARK    3  A    between atoms: C_7  and  N_8
REMARK    4  A    between atoms: C_9  and  C_11
REMARK    5  A    between atoms: N_19  and  C_20
REMARK                            x       y       z     vdW  Elec       q    Type
REMARK                         _______ _______ _______ _____ _____    ______ ____
ROOT
ATOM      1  C   UNL     1       5.986   2.691   1.288  0.00  0.00    +0.078 C 
ATOM      2  C   UNL     1       5.507   1.480   2.092  0.00  0.00    +0.032 C 
ATOM      3  C   UNL     1       4.693   0.556   1.182  0.00  0.00    +0.110 C 
ATOM      4  N   UNL     1       3.612   1.335   0.562  0.00  0.00    -0.286 N 
ATOM      5  C   UNL     1       3.954   2.565  -0.165  0.00  0.00    +0.110 C 
ATOM      6  C   UNL     1       4.776   3.470   0.766  0.00  0.00    +0.032 C 
ATOM      7  C   UNL     1       2.331   0.926   0.654  0.00  0.00    +0.302 C 
ATOM      8  O   UNL     1       2.050  -0.043   1.333  0.00  0.00    -0.253 OA
ATOM      9  N   UNL     1       1.362   1.590  -0.006  0.00  0.00    -0.296 N 
ATOM     10  H   UNL     1       1.575   2.404  -0.488  0.00  0.00    +0.151 HD
ENDROOT
BRANCH   9  11
ATOM     11  C   UNL     1      -0.012   1.083   0.005  0.00  0.00    +0.074 C 
ATOM     12  C   UNL     1      -0.730   1.581   1.261  0.00  0.00    +0.022 C 
ATOM     13  C   UNL     1      -2.165   1.052   1.273  0.00  0.00    +0.002 C 
ATOM     14  C   UNL     1      -2.904   1.554   0.030  0.00  0.00    +0.000 C 
ATOM     15  C   UNL     1      -2.186   1.055  -1.226  0.00  0.00    +0.002 C 
ATOM     16  C   UNL     1      -0.751   1.585  -1.237  0.00  0.00    +0.022 C 
ENDBRANCH   9  11
BRANCH   1  18
ATOM     17  N   UNL     1       7.347   4.719   1.674  0.00  0.00    -0.309 N 
ATOM     18  C   UNL     1       6.816   3.585   2.172  0.00  0.00    +0.217 C 
ATOM     19  O   UNL     1       7.006   3.285   3.331  0.00  0.00    -0.276 OA
ATOM     20  H   UNL     1       7.196   4.960   0.747  0.00  0.00    +0.149 HD
BRANCH  17  21
ATOM     21  C   UNL     1       8.154   5.589   2.534  0.00  0.00    +0.160 C 
BRANCH  21  25
ATOM     22  C   UNL     1      11.354   7.856  -0.573  0.00  0.00    +0.073 C 
ATOM     23  C   UNL     1      10.140   7.745   0.313  0.00  0.00    +0.076 A 
ATOM     24  N   UNL     1       9.717   6.714   1.008  0.00  0.00    -0.248 NA
ATOM     25  C   UNL     1       8.626   6.781   1.741  0.00  0.00    +0.066 A 
ATOM     26  C   UNL     1       7.932   7.948   1.761  0.00  0.00    +0.071 A 
ATOM     27  S   UNL     1       8.941   8.948   0.677  0.00  0.00    -0.080 S 
ENDBRANCH  21  25
ENDBRANCH  17  21
ENDBRANCH   1  18
TORSDOF 4
