REMARK  Name = ZINC13064867
REMARK  13 active torsions:
REMARK  status: ('A' for Active; 'I' for Inactive)
REMARK    1  A    between atoms: C_1  and  C_2
REMARK    2  A    between atoms: C_2  and  C_3
REMARK    3  A    between atoms: C_3  and  C_5
REMARK    4  A    between atoms: C_3  and  N_73
REMARK    5  A    between atoms: N_9  and  C_10
REMARK    6  A    between atoms: C_10  and  C_11
REMARK    7  A    between atoms: C_17  and  C_18
REMARK    8  A    between atoms: C_17  and  N_73
REMARK    9  A    between atoms: C_18  and  C_19
REMARK   10  A    between atoms: C_25  and  C_26
REMARK   11  A    between atoms: C_25  and  N_73
REMARK   12  A    between atoms: C_29  and  C_39
REMARK   13  A    between atoms: C_31  and  C_38
REMARK                            x       y       z     vdW  Elec       q    Type
REMARK                         _______ _______ _______ _____ _____    ______ ____
ROOT
ATOM      1  N   UNL     1      -0.956   1.913  -0.953  0.00  0.00    +0.389 N 
ATOM      2  H   UNL     1      -1.773   1.377  -0.635  0.00  0.00    -0.080 HD
ENDROOT
BRANCH   1   3
ATOM      3  C   UNL     1      -1.367   3.309  -1.210  0.00  0.00    +0.003 C 
BRANCH   3   4
ATOM      4  C   UNL     1      -2.764   3.302  -1.776  0.00  0.00    +0.138 A 
ATOM      5  N   UNL     1      -3.232   2.493  -2.695  0.00  0.00    -0.115 NA
ATOM      6  N   UNL     1      -4.465   2.803  -2.908  0.00  0.00    -0.023 NA
ATOM      7  N   UNL     1      -4.794   3.790  -2.149  0.00  0.00    -0.044 NA
ATOM      8  N   UNL     1      -3.774   4.123  -1.433  0.00  0.00    -0.228 N 
BRANCH   8   9
ATOM      9  C   UNL     1      -3.724   5.194  -0.435  0.00  0.00    +0.178 C 
BRANCH   9  10
ATOM     10  C   UNL     1      -3.297   6.500  -1.110  0.00  0.00    +0.140 C 
ATOM     11  C   UNL     1      -3.130   7.608  -0.048  0.00  0.00    +0.035 C 
ATOM     12  C   UNL     1      -3.711   8.851  -0.775  0.00  0.00    +0.031 C 
ATOM     13  C   UNL     1      -4.837   8.200  -1.617  0.00  0.00    +0.160 C 
ATOM     14  O   UNL     1      -4.312   6.927  -2.026  0.00  0.00    -0.375 OA
ENDBRANCH   9  10
ENDBRANCH   8   9
ENDBRANCH   3   4
BRANCH   3  16
ATOM     15  C   UNL     1       0.987   4.046  -1.603  0.00  0.00    +0.002 C 
ATOM     16  C   UNL     1      -0.416   3.970  -2.209  0.00  0.00    -0.011 C 
ENDBRANCH   3  16
ENDBRANCH   1   3
BRANCH   1  17
ATOM     17  C   UNL     1       0.079   1.877   0.101  0.00  0.00    -0.073 C 
BRANCH  17  18
ATOM     18  C   UNL     1      -0.551   2.308   1.427  0.00  0.00    +0.016 C 
BRANCH  18  19
ATOM     19  C   UNL     1       0.503   2.318   2.505  0.00  0.00    -0.049 A 
ATOM     20  C   UNL     1       0.734   1.181   3.256  0.00  0.00    +0.003 A 
ATOM     21  C   UNL     1       1.703   1.189   4.241  0.00  0.00    +0.000 A 
ATOM     22  C   UNL     1       2.435   2.336   4.481  0.00  0.00    +0.000 A 
ATOM     23  C   UNL     1       2.201   3.475   3.734  0.00  0.00    +0.000 A 
ATOM     24  C   UNL     1       1.234   3.466   2.745  0.00  0.00    +0.003 A 
ENDBRANCH  18  19
ENDBRANCH  17  18
ENDBRANCH   1  17
BRANCH   1  25
ATOM     25  C   UNL     1      -0.435   1.302  -2.194  0.00  0.00    -0.037 C 
BRANCH  25  26
ATOM     26  C   UNL     1      -0.462  -0.197  -2.043  0.00  0.00    +0.001 A 
ATOM     27  C   UNL     1      -1.528  -0.902  -2.494  0.00  0.00    +0.017 A 
ATOM     28  C   UNL     1      -1.522  -2.358  -2.336  0.00  0.00    +0.002 A 
ATOM     29  C   UNL     1      -2.591  -3.139  -2.786  0.00  0.00    -0.041 A 
ATOM     30  C   UNL     1      -2.556  -4.495  -2.619  0.00  0.00    +0.007 A 
ATOM     31  C   UNL     1      -1.469  -5.104  -2.007  0.00  0.00    -0.048 A 
ATOM     32  C   UNL     1      -0.405  -4.354  -1.556  0.00  0.00    +0.029 A 
ATOM     33  C   UNL     1      -0.418  -2.971  -1.715  0.00  0.00    +0.050 A 
ATOM     34  N   UNL     1       0.634  -2.197  -1.273  0.00  0.00    -0.322 N 
ATOM     35  H   UNL     1       1.393  -2.621  -0.845  0.00  0.00    +0.169 HD
ATOM     36  C   UNL     1       0.621  -0.861  -1.427  0.00  0.00    +0.251 A 
ATOM     37  O   UNL     1       1.568  -0.207  -1.025  0.00  0.00    -0.268 OA
ATOM     38  C   UNL     1      -1.452  -6.601  -1.835  0.00  0.00    +0.044 C 
ATOM     39  C   UNL     1      -3.777  -2.489  -3.451  0.00  0.00    +0.044 C 
ENDBRANCH  25  26
ENDBRANCH   1  25
TORSDOF 10
