REMARK  Name = ZINC37402287
REMARK  7 active torsions:
REMARK  status: ('A' for Active; 'I' for Inactive)
REMARK    1  A    between atoms: C_1  and  C_2
REMARK    2  A    between atoms: C_5  and  O_12
REMARK    3  A    between atoms: C_8  and  C_10
REMARK    4  A    between atoms: C_8  and  C_11
REMARK    5  A    between atoms: O_12  and  C_13
REMARK    6  A    between atoms: C_13  and  C_14
REMARK    7  A    between atoms: C_15  and  N_21
REMARK                            x       y       z     vdW  Elec       q    Type
REMARK                         _______ _______ _______ _____ _____    ______ ____
ROOT
ATOM      1  C   UNL     1      -1.017  -3.102  -2.538  0.00  0.00    +0.198 C 
ENDROOT
BRANCH   1   2
ATOM      2  C   UNL     1      -2.430  -3.610  -2.408  0.00  0.00    +0.013 A 
ATOM      3  C   UNL     1      -2.667  -4.966  -2.223  0.00  0.00    +0.031 A 
ATOM      4  C   UNL     1      -3.970  -5.431  -2.104  0.00  0.00    +0.023 A 
ATOM      5  C   UNL     1      -5.027  -4.544  -2.170  0.00  0.00    +0.003 A 
ATOM      6  C   UNL     1      -4.789  -3.195  -2.355  0.00  0.00    +0.016 A 
ATOM      7  C   UNL     1      -3.491  -2.727  -2.468  0.00  0.00    +0.025 A 
ATOM      8 BR   UNL     1      -3.170  -0.880  -2.713  0.00  0.00    -0.050 Br
BRANCH   3   9
ATOM      9  N   UNL     1      -1.596  -5.861  -2.157  0.00  0.00    -0.358 N 
ATOM     10  H   UNL     1      -0.686  -5.535  -2.241  0.00  0.00    +0.142 HD
ATOM     11  H   UNL     1      -1.762  -6.808  -2.028  0.00  0.00    +0.142 HD
ENDBRANCH   3   9
ENDBRANCH   1   2
BRANCH   1  12
ATOM     12  O   UNL     1      -0.508  -2.775  -1.243  0.00  0.00    -0.372 OA
BRANCH  12  16
ATOM     13  C   UNL     1       0.032   1.381  -0.373  0.00  0.00    +0.007 C 
ATOM     14  C   UNL     1       0.051  -0.141  -0.226  0.00  0.00    -0.011 C 
ATOM     15  C   UNL     1       0.813  -0.758  -1.400  0.00  0.00    +0.035 C 
ATOM     16  C   UNL     1       0.833  -2.280  -1.253  0.00  0.00    +0.119 C 
ATOM     17  C   UNL     1       1.525  -2.657   0.058  0.00  0.00    +0.038 C 
ATOM     18  C   UNL     1       0.763  -2.041   1.233  0.00  0.00    -0.032 C 
ATOM     19  C   UNL     1       0.744  -0.518   1.086  0.00  0.00    +0.009 C 
ATOM     20  C   UNL     1       1.455  -2.417   2.544  0.00  0.00    +0.011 C 
ATOM     21  C   UNL     1      -0.673  -2.570   1.244  0.00  0.00    +0.011 C 
ENDBRANCH  12  16
ENDBRANCH   1  12
TORSDOF 4
