REMARK  Name = ZINC36597578
REMARK  14 active torsions:
REMARK  status: ('A' for Active; 'I' for Inactive)
REMARK    1  A    between atoms: C_1  and  C_2
REMARK    2  A    between atoms: C_3  and  C_4
REMARK    3  A    between atoms: C_4  and  C_6
REMARK    4  A    between atoms: C_4  and  N_20
REMARK    5  A    between atoms: N_8  and  C_9
REMARK    6  A    between atoms: C_9  and  S_10
REMARK    7  A    between atoms: S_10  and  C_13
REMARK    8  A    between atoms: C_16  and  C_19
REMARK    9  A    between atoms: N_20  and  C_21
REMARK   10  A    between atoms: C_21  and  C_22
REMARK   11  A    between atoms: C_25  and  C_27
REMARK   12  A    between atoms: C_28  and  C_30
REMARK   13  A    between atoms: C_31  and  O_37
REMARK   14  A    between atoms: C_35  and  O_36
REMARK                            x       y       z     vdW  Elec       q    Type
REMARK                         _______ _______ _______ _____ _____    ______ ____
ROOT
ATOM      1  N   UNL     1       1.888   1.285  -2.110  0.00  0.00    -0.275 N 
ATOM      2  C   UNL     1       3.009   1.707  -1.493  0.00  0.00    +0.255 C 
ATOM      3  O   UNL     1       3.506   1.037  -0.608  0.00  0.00    -0.270 OA
ENDROOT
BRANCH   2   4
ATOM      4  C   UNL     1       3.634   2.980  -1.891  0.00  0.00    +0.119 A 
ATOM      5  C   UNL     1       3.381   4.150  -1.160  0.00  0.00    +0.133 A 
ATOM      6  C   UNL     1       3.974   5.342  -1.542  0.00  0.00    +0.046 A 
ATOM      7  C   UNL     1       4.812   5.381  -2.641  0.00  0.00    +0.007 A 
ATOM      8  C   UNL     1       5.068   4.234  -3.369  0.00  0.00    +0.046 A 
ATOM      9  C   UNL     1       4.490   3.030  -3.000  0.00  0.00    +0.133 A 
BRANCH   9  10
ATOM     10  O   UNL     1       4.748   1.905  -3.713  0.00  0.00    -0.506 OA
ATOM     11  H   UNL     1       4.184   1.794  -4.491  0.00  0.00    +0.292 HD
ENDBRANCH   9  10
BRANCH   5  12
ATOM     12  O   UNL     1       2.558   4.114  -0.082  0.00  0.00    -0.506 OA
ATOM     13  H   UNL     1       3.010   3.927   0.752  0.00  0.00    +0.292 HD
ENDBRANCH   5  12
ENDBRANCH   2   4
BRANCH   1  14
ATOM     14  C   UNL     1       1.208   0.073  -1.645  0.00  0.00    +0.186 C 
BRANCH  14  15
ATOM     15  C   UNL     1       2.090  -1.123  -1.891  0.00  0.00    +0.239 C 
ATOM     16  O   UNL     1       3.261  -0.967  -2.166  0.00  0.00    -0.273 OA
ATOM     17  N   UNL     1       1.578  -2.367  -1.807  0.00  0.00    -0.294 N 
ATOM     18  H   UNL     1       0.641  -2.492  -1.587  0.00  0.00    +0.150 HD
BRANCH  17  19
ATOM     19  C   UNL     1       2.436  -3.530  -2.047  0.00  0.00    +0.278 C 
BRANCH  19  20
ATOM     20  S   UNL     1       3.069  -4.151  -0.464  0.00  0.00    +0.013 S 
ATOM     21  O   UNL     1       3.852  -5.318  -0.674  0.00  0.00    -0.168 OA
ATOM     22  O   UNL     1       3.567  -3.075   0.319  0.00  0.00    -0.168 OA
BRANCH  20  23
ATOM     23  C   UNL     1       1.643  -4.716   0.404  0.00  0.00    +0.090 A 
ATOM     24  C   UNL     1       0.943  -3.849   1.221  0.00  0.00    +0.027 A 
ATOM     25  C   UNL     1      -0.175  -4.293   1.902  0.00  0.00    +0.005 A 
ATOM     26  C   UNL     1      -0.594  -5.603   1.765  0.00  0.00    -0.050 A 
ATOM     27  C   UNL     1       0.106  -6.470   0.947  0.00  0.00    +0.005 A 
ATOM     28  C   UNL     1       1.222  -6.025   0.262  0.00  0.00    +0.027 A 
ATOM     29  C   UNL     1      -1.812  -6.087   2.508  0.00  0.00    +0.044 C 
ENDBRANCH  20  23
ENDBRANCH  19  20
ENDBRANCH  17  19
ENDBRANCH  14  15
BRANCH  14  32
ATOM     30  C   UNL     1      -1.445  -0.083  -0.700  0.00  0.00    +0.035 C 
ATOM     31  C   UNL     1      -0.315   0.184   0.261  0.00  0.00    -0.032 C 
ATOM     32  C   UNL     1       0.923   0.192  -0.170  0.00  0.00    +0.000 C 
ENDBRANCH  14  32
ENDBRANCH   1  14
BRANCH   1  33
ATOM     33  C   UNL     1       1.348   2.038  -3.244  0.00  0.00    +0.183 C 
BRANCH  33  34
ATOM     34  C   UNL     1       0.278   2.982  -2.758  0.00  0.00    +0.122 A 
ATOM     35  C   UNL     1       0.456   4.276  -2.440  0.00  0.00    +0.046 A 
ATOM     36  C   UNL     1      -0.804   4.776  -2.035  0.00  0.00    +0.045 A 
ATOM     37  C   UNL     1      -1.676   3.756  -2.131  0.00  0.00    +0.102 A 
ATOM     38  O   UNL     1      -1.016   2.673  -2.574  0.00  0.00    -0.463 OA
ATOM     39  C   UNL     1      -3.145   3.819  -1.801  0.00  0.00    +0.086 C 
ENDBRANCH  33  34
ENDBRANCH   1  33
TORSDOF 11
