REMARK  Name = ZINC39676239
REMARK  7 active torsions:
REMARK  status: ('A' for Active; 'I' for Inactive)
REMARK    1  A    between atoms: C_1  and  C_2
REMARK    2  A    between atoms: C_2  and  C_4
REMARK    3  A    between atoms: C_2  and  O_33
REMARK    4  A    between atoms: C_8  and  C_17
REMARK    5  A    between atoms: N_19  and  C_20
REMARK    6  A    between atoms: C_20  and  C_21
REMARK    7  A    between atoms: O_33  and  C_34
REMARK                            x       y       z     vdW  Elec       q    Type
REMARK                         _______ _______ _______ _____ _____    ______ ____
ROOT
ATOM      1  C   UNL     1       1.040  -0.318   1.587  0.00  0.00    +0.256 C 
ATOM      2  O   UNL     1       2.171  -0.754   1.570  0.00  0.00    -0.272 OA
ATOM      3  N   UNL     1       0.442  -0.040   2.762  0.00  0.00    -0.297 N 
ATOM      4  C   UNL     1      -0.925   0.488   2.983  0.00  0.00    +0.121 C 
ATOM      5  C   UNL     1      -1.443  -0.276   4.222  0.00  0.00    +0.100 C 
ATOM      6  C   UNL     1      -0.174  -0.720   4.968  0.00  0.00    -0.004 C 
ATOM      7  C   UNL     1       1.000  -0.201   4.126  0.00  0.00    +0.115 C 
ATOM      8  C   UNL     1      -0.119  -2.242   5.058  0.00  0.00    -0.010 C 
ATOM      9  C   UNL     1       1.122  -2.657   5.854  0.00  0.00    -0.082 C 
ATOM     10  N   UNL     1       1.063  -2.070   7.197  0.00  0.00    +0.379 N 
ATOM     11  C   UNL     1       1.103  -0.606   7.106  0.00  0.00    -0.082 C 
ATOM     12  C   UNL     1      -0.138  -0.103   6.363  0.00  0.00    -0.010 C 
ATOM     13  H   UNL     1       0.207  -2.354   7.650  0.00  0.00    -0.086 HD
ATOM     14  H   UNL     1       1.850  -2.394   7.740  0.00  0.00    -0.086 HD
ENDROOT
BRANCH   5  15
ATOM     15  C   UNL     1      -2.252  -1.475   3.799  0.00  0.00    +0.219 C 
ATOM     16  O   UNL     1      -1.997  -2.042   2.757  0.00  0.00    -0.275 OA
ATOM     17  N   UNL     1      -3.260  -1.917   4.577  0.00  0.00    -0.308 N 
ATOM     18  H   UNL     1      -3.464  -1.464   5.410  0.00  0.00    +0.149 HD
BRANCH  17  19
ATOM     19  C   UNL     1      -4.046  -3.083   4.165  0.00  0.00    +0.178 C 
BRANCH  19  20
ATOM     20  C   UNL     1      -5.102  -3.368   5.202  0.00  0.00    +0.128 A 
ATOM     21  N   UNL     1      -5.935  -4.422   5.001  0.00  0.00    -0.309 N 
ATOM     22  H   UNL     1      -5.837  -4.966   4.204  0.00  0.00    +0.170 HD
ATOM     23  C   UNL     1      -6.899  -4.720   5.902  0.00  0.00    +0.259 A 
ATOM     24  O   UNL     1      -7.652  -5.662   5.735  0.00  0.00    -0.267 OA
ATOM     25  C   UNL     1      -7.003  -3.862   7.092  0.00  0.00    +0.065 A 
ATOM     26  C   UNL     1      -7.961  -4.083   8.079  0.00  0.00    +0.015 A 
ATOM     27  C   UNL     1      -8.013  -3.248   9.173  0.00  0.00    +0.001 A 
ATOM     28  C   UNL     1      -7.121  -2.191   9.298  0.00  0.00    +0.002 A 
ATOM     29  C   UNL     1      -6.167  -1.955   8.334  0.00  0.00    +0.028 A 
ATOM     30  C   UNL     1      -6.093  -2.788   7.216  0.00  0.00    +0.078 A 
ATOM     31  N   UNL     1      -5.166  -2.596   6.244  0.00  0.00    -0.232 NA
ENDBRANCH  19  20
ENDBRANCH  17  19
ENDBRANCH   5  15
BRANCH   1  33
ATOM     32  C   UNL     1       0.039   1.412   0.118  0.00  0.00    +0.062 C 
ATOM     33  C   UNL     1       0.303  -0.085   0.293  0.00  0.00    +0.256 C 
BRANCH  33  34
ATOM     34  O   UNL     1       1.095  -0.560  -0.798  0.00  0.00    -0.480 OA
BRANCH  34  35
ATOM     35  C   UNL     1       0.433  -0.921  -1.929  0.00  0.00    +0.122 A 
ATOM     36  C   UNL     1       1.125  -1.496  -2.985  0.00  0.00    +0.045 A 
ATOM     37  C   UNL     1       0.451  -1.863  -4.133  0.00  0.00    +0.004 A 
ATOM     38  C   UNL     1      -0.913  -1.657  -4.231  0.00  0.00    +0.000 A 
ATOM     39  C   UNL     1      -1.605  -1.083  -3.180  0.00  0.00    +0.004 A 
ATOM     40  C   UNL     1      -0.936  -0.720  -2.028  0.00  0.00    +0.045 A 
ENDBRANCH  34  35
ENDBRANCH  33  34
ENDBRANCH   1  33
TORSDOF 6
