REMARK  Name = ZINC03654934
REMARK  9 active torsions:
REMARK  status: ('A' for Active; 'I' for Inactive)
REMARK    1  A    between atoms: C_1  and  C_2
REMARK    2  A    between atoms: C_5  and  C_24
REMARK    3  A    between atoms: C_5  and  C_25
REMARK    4  A    between atoms: N_9  and  C_10
REMARK    5  A    between atoms: C_10  and  C_11
REMARK    6  A    between atoms: C_11  and  C_12
REMARK    7  A    between atoms: C_12  and  C_13
REMARK    8  A    between atoms: N_15  and  C_16
REMARK    9  A    between atoms: C_16  and  C_17
REMARK                            x       y       z     vdW  Elec       q    Type
REMARK                         _______ _______ _______ _____ _____    ______ ____
ROOT
ATOM      1  C   UNL     1       0.038   0.534  -3.255  0.00  0.00    +0.028 C 
ENDROOT
BRANCH   1   2
ATOM      2  C   UNL     1       0.024   1.811  -2.413  0.00  0.00    +0.107 C 
BRANCH   2  10
ATOM      3  C   UNL     1       1.422   1.617  -0.003  0.00  0.00    +0.028 C 
ATOM      4  C   UNL     1      -0.013   1.086   0.008  0.00  0.00    +0.074 C 
ATOM      5  C   UNL     1      -0.733   1.581   1.267  0.00  0.00    +0.047 C 
ATOM      6  C   UNL     1      -2.198   1.134   1.197  0.00  0.00    +0.030 C 
ATOM      7  N   UNL     1      -2.790   1.618  -0.051  0.00  0.00    -0.321 N 
ATOM      8  C   UNL     1      -2.044   1.803  -1.151  0.00  0.00    +0.133 C 
ATOM      9  S   UNL     1      -2.809   2.358  -2.579  0.00  0.00    -0.019 S 
ATOM     10  N   UNL     1      -0.723   1.572  -1.176  0.00  0.00    -0.310 N 
ATOM     11  C   UNL     1      -2.966   1.715   2.386  0.00  0.00    +0.031 C 
ATOM     12  C   UNL     1      -2.269  -0.394   1.238  0.00  0.00    +0.031 C 
ATOM     13  H   UNL     1      -3.740   1.809  -0.084  0.00  0.00    +0.148 HD
ENDBRANCH   2  10
ENDBRANCH   1   2
BRANCH   1  14
ATOM     14  C   UNL     1       0.818   0.783  -4.548  0.00  0.00    +0.097 C 
BRANCH  14  15
ATOM     15  C   UNL     1       0.832  -0.475  -5.377  0.00  0.00    +0.213 C 
ATOM     16  O   UNL     1       0.274  -1.473  -4.974  0.00  0.00    -0.276 OA
ATOM     17  N   UNL     1       1.466  -0.491  -6.566  0.00  0.00    -0.311 N 
ATOM     18  H   UNL     1       1.913   0.307  -6.888  0.00  0.00    +0.149 HD
BRANCH  17  19
ATOM     19  C   UNL     1       1.480  -1.714  -7.372  0.00  0.00    +0.139 C 
BRANCH  19  20
ATOM     20  C   UNL     1       2.248  -1.468  -8.645  0.00  0.00    -0.030 A 
ATOM     21  C   UNL     1       1.590  -1.014  -9.773  0.00  0.00    +0.006 A 
ATOM     22  C   UNL     1       2.295  -0.783 -10.939  0.00  0.00    +0.020 A 
ATOM     23  C   UNL     1       3.658  -1.017 -10.981  0.00  0.00    +0.041 A 
ATOM     24  C   UNL     1       4.315  -1.476  -9.853  0.00  0.00    +0.020 A 
ATOM     25  C   UNL     1       3.610  -1.702  -8.686  0.00  0.00    +0.006 A 
ATOM     26 CL   UNL     1       4.543  -0.734 -12.447  0.00  0.00    -0.084 Cl
ENDBRANCH  19  20
ENDBRANCH  17  19
ENDBRANCH  14  15
ENDBRANCH   1  14
TORSDOF 6
