REMARK  Name = ZINC36029722
REMARK  12 active torsions:
REMARK  status: ('A' for Active; 'I' for Inactive)
REMARK    1  A    between atoms: C_1  and  C_2
REMARK    2  A    between atoms: C_2  and  C_3
REMARK    3  A    between atoms: C_2  and  C_4
REMARK    4  A    between atoms: C_4  and  C_5
REMARK    5  A    between atoms: N_9  and  C_28
REMARK    6  A    between atoms: C_17  and  C_19
REMARK    7  A    between atoms: C_28  and  C_29
REMARK    8  A    between atoms: C_29  and  C_30
REMARK    9  A    between atoms: C_33  and  O_38
REMARK   10  A    between atoms: C_34  and  O_36
REMARK   11  A    between atoms: O_36  and  C_37
REMARK   12  A    between atoms: O_38  and  C_39
REMARK                            x       y       z     vdW  Elec       q    Type
REMARK                         _______ _______ _______ _____ _____    ______ ____
ROOT
ATOM      1  C   UNL     1      -0.168  -1.983   1.536  0.00  0.00    +0.019 C 
ATOM      2  C   UNL     1      -1.559  -2.325   1.047  0.00  0.00    +0.200 C 
ATOM      3  O   UNL     1      -2.254  -1.625   0.341  0.00  0.00    -0.277 OA
ATOM      4  N   UNL     1      -1.895  -3.540   1.528  0.00  0.00    -0.313 N 
ATOM      5  C   UNL     1      -0.791  -4.069   2.332  0.00  0.00    +0.006 C 
ATOM      6  N   UNL     1       0.082  -2.920   2.658  0.00  0.00    +0.401 N 
ATOM      7  C   UNL     1      -0.002  -5.103   1.531  0.00  0.00    +0.025 C 
ATOM      8  C   UNL     1      -0.922  -6.272   1.163  0.00  0.00    +0.108 C 
ATOM      9  N   UNL     1      -1.540  -6.790   2.392  0.00  0.00    -0.298 N 
ATOM     10  C   UNL     1      -2.258  -5.858   3.271  0.00  0.00    +0.108 C 
ATOM     11  C   UNL     1      -1.327  -4.693   3.620  0.00  0.00    +0.025 C 
ATOM     12  C   UNL     1      -1.449  -8.098   2.706  0.00  0.00    +0.247 C 
ATOM     13  O   UNL     1      -2.030  -8.530   3.682  0.00  0.00    -0.270 OA
ATOM     14  H   UNL     1       1.051  -3.200   2.678  0.00  0.00    -0.082 HD
ATOM     15  H   UNL     1      -0.189  -2.504   3.536  0.00  0.00    -0.082 HD
ENDROOT
BRANCH  12  16
ATOM     16  C   UNL     1      -0.644  -9.005   1.864  0.00  0.00    +0.041 A 
ATOM     17  C   UNL     1      -0.697  -8.901   0.472  0.00  0.00    +0.017 A 
ATOM     18  C   UNL     1       0.056  -9.748  -0.311  0.00  0.00    +0.050 A 
ATOM     19  C   UNL     1       0.869 -10.707   0.278  0.00  0.00    +0.166 A 
ATOM     20  C   UNL     1       0.926 -10.816   1.667  0.00  0.00    +0.167 A 
ATOM     21  C   UNL     1       0.178  -9.966   2.458  0.00  0.00    +0.062 A 
ATOM     22  O   UNL     1       1.789 -11.825   1.989  0.00  0.00    -0.453 OA
ATOM     23  C   UNL     1       1.944 -12.597   0.784  0.00  0.00    +0.466 C 
ATOM     24  O   UNL     1       1.695 -11.645  -0.267  0.00  0.00    -0.453 OA
ENDBRANCH  12  16
BRANCH   1  25
ATOM     25  C   UNL     1      -0.118  -0.535   2.030  0.00  0.00    -0.004 C 
BRANCH  25  27
ATOM     26  C   UNL     1       2.277  -0.266   1.372  0.00  0.00    +0.007 C 
ATOM     27  C   UNL     1       1.289  -0.219   2.539  0.00  0.00    -0.018 C 
ATOM     28  C   UNL     1       1.303   1.179   3.163  0.00  0.00    +0.007 C 
ENDBRANCH  25  27
ENDBRANCH   1  25
BRANCH   4  29
ATOM     29  C   UNL     1      -3.167  -4.224   1.283  0.00  0.00    +0.110 C 
BRANCH  29  30
ATOM     30  C   UNL     1      -4.186  -3.800   2.343  0.00  0.00    +0.054 C 
BRANCH  30  31
ATOM     31  C   UNL     1      -5.464  -4.575   2.150  0.00  0.00    -0.042 A 
ATOM     32  C   UNL     1      -6.454  -4.078   1.323  0.00  0.00    +0.007 A 
ATOM     33  C   UNL     1      -7.628  -4.786   1.143  0.00  0.00    +0.049 A 
ATOM     34  C   UNL     1      -7.814  -5.996   1.792  0.00  0.00    +0.161 A 
ATOM     35  C   UNL     1      -6.817  -6.497   2.624  0.00  0.00    +0.162 A 
ATOM     36  C   UNL     1      -5.641  -5.785   2.796  0.00  0.00    +0.053 A 
BRANCH  35  37
ATOM     37  O   UNL     1      -6.995  -7.684   3.262  0.00  0.00    -0.491 OA
ATOM     38  C   UNL     1      -5.929  -8.136   4.100  0.00  0.00    +0.277 C 
ENDBRANCH  35  37
BRANCH  34  39
ATOM     39  O   UNL     1      -8.968  -6.693   1.616  0.00  0.00    -0.491 OA
ATOM     40  C   UNL     1      -9.947  -6.119   0.748  0.00  0.00    +0.277 C 
ENDBRANCH  34  39
ENDBRANCH  30  31
ENDBRANCH  29  30
ENDBRANCH   4  29
TORSDOF 8
