REMARK  Name = ZINC35486457
REMARK  12 active torsions:
REMARK  status: ('A' for Active; 'I' for Inactive)
REMARK    1  A    between atoms: C_1  and  C_2
REMARK    2  A    between atoms: C_2  and  N_3
REMARK    3  A    between atoms: N_3  and  C_4
REMARK    4  A    between atoms: N_3  and  C_6
REMARK    5  A    between atoms: C_4  and  C_5
REMARK    6  A    between atoms: C_6  and  C_7
REMARK    7  A    between atoms: C_7  and  N_8
REMARK    8  A    between atoms: C_9  and  C_25
REMARK    9  A    between atoms: C_28  and  O_34
REMARK   10  A    between atoms: C_29  and  O_31
REMARK   11  A    between atoms: O_31  and  C_32
REMARK   12  A    between atoms: C_32  and  C_33
REMARK                            x       y       z     vdW  Elec       q    Type
REMARK                         _______ _______ _______ _____ _____    ______ ____
ROOT
ATOM      1  N   UNL     1       2.330  -3.538  -0.356  0.00  0.00    -0.285 N 
ATOM      2  C   UNL     1       3.511  -4.202   0.220  0.00  0.00    +0.145 C 
ATOM      3  C   UNL     1       3.400  -5.640  -0.169  0.00  0.00    +0.072 A 
ATOM      4  C   UNL     1       4.276  -6.785   0.101  0.00  0.00    +0.199 A 
ATOM      5  O   UNL     1       5.210  -6.740   0.882  0.00  0.00    -0.287 OA
ATOM      6  C   UNL     1       3.917  -8.003  -0.668  0.00  0.00    +0.066 A 
ATOM      7  C   UNL     1       4.766  -9.109  -0.674  0.00  0.00    +0.035 A 
ATOM      8  C   UNL     1       4.420 -10.229  -1.398  0.00  0.00    +0.042 A 
ATOM      9  C   UNL     1       3.231 -10.253  -2.116  0.00  0.00    +0.023 A 
ATOM     10  C   UNL     1       2.385  -9.168  -2.115  0.00  0.00    +0.048 A 
ATOM     11  C   UNL     1       2.712  -8.023  -1.388  0.00  0.00    +0.140 A 
ATOM     12  O   UNL     1       1.857  -6.974  -1.397  0.00  0.00    -0.450 OA
ATOM     13  C   UNL     1       2.254  -5.787  -0.898  0.00  0.00    +0.199 A 
ATOM     14  C   UNL     1       1.601  -4.471  -1.002  0.00  0.00    +0.283 C 
ATOM     15  O   UNL     1       0.558  -4.256  -1.587  0.00  0.00    -0.267 OA
ATOM     16 CL   UNL     1       5.469 -11.612  -1.412  0.00  0.00    -0.084 Cl
ENDROOT
BRANCH   2  17
ATOM     17  C   UNL     1       3.504  -4.066   1.720  0.00  0.00    -0.019 A 
ATOM     18  C   UNL     1       2.318  -4.195   2.419  0.00  0.00    +0.009 A 
ATOM     19  C   UNL     1       2.306  -4.071   3.796  0.00  0.00    +0.049 A 
ATOM     20  C   UNL     1       3.485  -3.817   4.479  0.00  0.00    +0.158 A 
ATOM     21  C   UNL     1       4.679  -3.688   3.776  0.00  0.00    +0.162 A 
ATOM     22  C   UNL     1       4.684  -3.818   2.396  0.00  0.00    +0.055 A 
BRANCH  20  23
ATOM     23  O   UNL     1       3.475  -3.695   5.833  0.00  0.00    -0.503 OA
ATOM     24  H   UNL     1       3.613  -4.528   6.305  0.00  0.00    +0.292 HD
ENDBRANCH  20  23
BRANCH  21  25
ATOM     25  O   UNL     1       5.838  -3.439   4.441  0.00  0.00    -0.489 OA
BRANCH  25  26
ATOM     26  C   UNL     1       7.025  -3.318   3.655  0.00  0.00    +0.226 C 
ATOM     27  C   UNL     1       8.218  -3.041   4.571  0.00  0.00    +0.048 C 
ENDBRANCH  25  26
ENDBRANCH  21  25
ENDBRANCH   2  17
BRANCH   1  28
ATOM     28  C   UNL     1       2.001  -2.115  -0.242  0.00  0.00    +0.090 C 
BRANCH  28  29
ATOM     29  C   UNL     1       1.153  -1.887   1.011  0.00  0.00    -0.060 C 
BRANCH  29  30
ATOM     30  N   UNL     1       0.823  -0.460   1.126  0.00  0.00    +0.380 N 
ATOM     31  H   UNL     1       1.673   0.084   1.111  0.00  0.00    -0.082 HD
BRANCH  30  33
ATOM     32  C   UNL     1      -0.260   1.449   0.040  0.00  0.00    -0.017 C 
ATOM     33  C   UNL     1      -0.032  -0.063  -0.001  0.00  0.00    -0.082 C 
ENDBRANCH  30  33
BRANCH  30  34
ATOM     34  C   UNL     1       0.111  -0.222   2.389  0.00  0.00    -0.082 C 
ATOM     35  C   UNL     1       1.053  -0.495   3.563  0.00  0.00    -0.017 C 
ENDBRANCH  30  34
ENDBRANCH  29  30
ENDBRANCH  28  29
ENDBRANCH   1  28
TORSDOF 9
