REMARK  Name = ZINC04729506
REMARK  8 active torsions:
REMARK  status: ('A' for Active; 'I' for Inactive)
REMARK    1  A    between atoms: C_1  and  C_2
REMARK    2  A    between atoms: C_2  and  C_3
REMARK    3  A    between atoms: C_3  and  C_4
REMARK    4  A    between atoms: C_6  and  C_19
REMARK    5  A    between atoms: C_9  and  C_11
REMARK    6  A    between atoms: C_14  and  C_17
REMARK    7  A    between atoms: C_17  and  C_18
REMARK    8  A    between atoms: C_24  and  O_25
REMARK                            x       y       z     vdW  Elec       q    Type
REMARK                         _______ _______ _______ _____ _____    ______ ____
ROOT
ATOM      1  C   UNL     1       3.663  -1.033  -0.024  0.00  0.00    +0.050 C 
ATOM      2  C   UNL     1       4.927   0.987   0.353  0.00  0.00    -0.029 C 
ATOM      3  C   UNL     1       3.744   1.885  -0.023  0.00  0.00    +0.044 C 
ATOM      4  C   UNL     1       2.477   1.076  -0.015  0.00  0.00    +0.040 C 
ATOM      5  N   UNL     1       2.465  -0.203  -0.015  0.00  0.00    -0.303 NA
ATOM      6  N   UNL     1       4.837  -0.252  -0.444  0.00  0.00    +0.399 N 
ATOM      7  H   UNL     1       4.749  -0.012  -1.438  0.00  0.00    -0.082 HD
ATOM      8  H   UNL     1       5.687  -0.811  -0.301  0.00  0.00    -0.082 HD
ENDROOT
BRANCH   2   9
ATOM      9  C   UNL     1       6.221   1.694   0.044  0.00  0.00    -0.018 A 
ATOM     10  C   UNL     1       6.864   1.463  -1.157  0.00  0.00    +0.020 A 
ATOM     11  C   UNL     1       8.050   2.116  -1.444  0.00  0.00    +0.018 A 
ATOM     12  C   UNL     1       8.600   2.991  -0.525  0.00  0.00    +0.019 A 
ATOM     13  C   UNL     1       7.963   3.220   0.679  0.00  0.00    +0.047 A 
ATOM     14  C   UNL     1       6.771   2.571   0.966  0.00  0.00    +0.119 A 
ATOM     15 BR   UNL     1       8.924   1.804  -3.092  0.00  0.00    -0.050 Br
BRANCH  14  16
ATOM     16  O   UNL     1       6.142   2.795   2.151  0.00  0.00    -0.507 OA
ATOM     17  H   UNL     1       6.411   2.194   2.858  0.00  0.00    +0.292 HD
ENDBRANCH  14  16
ENDBRANCH   2   9
BRANCH   4  18
ATOM     18  C   UNL     1       1.186   1.792   0.000  0.00  0.00    -0.004 A 
ATOM     19  C   UNL     1      -0.013   1.076   0.008  0.00  0.00    +0.010 A 
ATOM     20  C   UNL     1      -1.216   1.751   0.017  0.00  0.00    +0.004 A 
ATOM     21  C   UNL     1      -1.236   3.134   0.029  0.00  0.00    -0.048 A 
ATOM     22  C   UNL     1      -0.052   3.850   0.022  0.00  0.00    +0.004 A 
ATOM     23  C   UNL     1       1.158   3.188   0.008  0.00  0.00    +0.010 A 
BRANCH  21  24
ATOM     24  C   UNL     1      -2.554   3.865   0.044  0.00  0.00    +0.032 C 
ATOM     25  C   UNL     1      -3.013   4.119  -1.393  0.00  0.00    +0.009 C 
ENDBRANCH  21  24
ENDBRANCH   4  18
BRANCH   1  26
ATOM     26  C   UNL     1       3.465  -2.198  -0.995  0.00  0.00    +0.007 C 
BRANCH  26  28
ATOM     27  C   UNL     1       2.048  -4.183  -1.538  0.00  0.00    +0.004 C 
ATOM     28  C   UNL     1       2.246  -3.017  -0.567  0.00  0.00    -0.003 C 
ENDBRANCH  26  28
ENDBRANCH   1  26
TORSDOF 6
