REMARK  Name = ZINC44920688
REMARK  4 active torsions:
REMARK  status: ('A' for Active; 'I' for Inactive)
REMARK    1  A    between atoms: C_1  and  C_2
REMARK    2  A    between atoms: C_14  and  O_29
REMARK    3  A    between atoms: C_17  and  C_19
REMARK    4  A    between atoms: C_23  and  N_25
REMARK                            x       y       z     vdW  Elec       q    Type
REMARK                         _______ _______ _______ _____ _____    ______ ____
ROOT
ATOM      1  C   UNL     1       0.468   1.747  -0.271  0.00  0.00    +0.068 C 
ATOM      2  C   UNL     1       0.523   0.247  -0.138  0.00  0.00    +0.067 A 
ATOM      3  C   UNL     1       0.210  -0.676  -1.154  0.00  0.00    +0.037 A 
ATOM      4  C   UNL     1       0.380  -1.933  -0.641  0.00  0.00    +0.166 A 
ATOM      5  N   UNL     1       0.799  -1.773   0.667  0.00  0.00    -0.196 N 
ATOM      6  N   UNL     1       0.874  -0.406   0.934  0.00  0.00    -0.168 NA
ATOM      7  C   UNL     1       1.098  -2.801   1.564  0.00  0.00    +0.156 A 
ATOM      8  C   UNL     1       1.966  -2.560   2.623  0.00  0.00    +0.048 A 
ATOM      9  C   UNL     1       2.254  -3.587   3.505  0.00  0.00    +0.005 A 
ATOM     10  C   UNL     1       1.661  -4.824   3.296  0.00  0.00    +0.020 A 
ATOM     11  C   UNL     1       0.808  -4.993   2.222  0.00  0.00    +0.113 A 
ATOM     12  N   UNL     1       0.549  -3.994   1.401  0.00  0.00    -0.236 NA
ATOM     13  N   UNL     1       0.205  -3.152  -1.177  0.00  0.00    -0.197 NA
ATOM     14  C   UNL     1      -0.154  -3.616  -2.283  0.00  0.00    +0.199 C 
ATOM     15  C   UNL     1      -0.497  -2.916  -3.539  0.00  0.00    +0.165 C 
ATOM     16  S   UNL     1      -1.396  -1.383  -3.270  0.00  0.00    -0.138 S 
ATOM     17  C   UNL     1      -0.220  -0.248  -2.524  0.00  0.00    +0.112 C 
ENDROOT
BRANCH  17  18
ATOM     18  C   UNL     1      -0.852   1.117  -2.432  0.00  0.00    -0.028 A 
ATOM     19  C   UNL     1      -2.064   1.274  -1.787  0.00  0.00    +0.006 A 
ATOM     20  C   UNL     1      -2.644   2.526  -1.701  0.00  0.00    +0.022 A 
ATOM     21  C   UNL     1      -2.012   3.621  -2.262  0.00  0.00    +0.071 A 
ATOM     22  C   UNL     1      -0.799   3.462  -2.908  0.00  0.00    +0.145 A 
ATOM     23  C   UNL     1      -0.217   2.211  -2.988  0.00  0.00    +0.039 A 
ATOM     24 CL   UNL     1      -2.740   5.193  -2.156  0.00  0.00    -0.081 Cl
BRANCH  22  25
ATOM     25  N   UNL     1      -0.121   4.633  -3.509  0.00  0.00    +0.058 N 
ATOM     26  O   UNL     1       0.939   4.495  -4.073  0.00  0.00    -0.126 OA
ATOM     27  O   UNL     1      -0.628   5.729  -3.434  0.00  0.00    -0.126 OA
ENDBRANCH  22  25
ENDBRANCH  17  18
BRANCH  14  28
ATOM     28  O   UNL     1      -0.240  -4.961  -2.338  0.00  0.00    -0.495 OA
ATOM     29  H   UNL     1      -0.012  -5.404  -1.509  0.00  0.00    +0.293 HD
ENDBRANCH  14  28
TORSDOF 3
