REMARK  Name = ZINC27392274
REMARK  5 active torsions:
REMARK  status: ('A' for Active; 'I' for Inactive)
REMARK    1  A    between atoms: C_3  and  O_9
REMARK    2  A    between atoms: C_6  and  C_7
REMARK    3  A    between atoms: O_9  and  C_10
REMARK    4  A    between atoms: C_10  and  C_11
REMARK    5  A    between atoms: N_13  and  N_14
REMARK                            x       y       z     vdW  Elec       q    Type
REMARK                         _______ _______ _______ _____ _____    ______ ____
ROOT
ATOM      1  C   UNL     1       2.074  -6.317  -1.753  0.00  0.00    +0.269 C 
ATOM      2  O   UNL     1       1.223  -6.032  -2.569  0.00  0.00    -0.270 OA
ATOM      3  N   UNL     1       2.174  -5.611  -0.609  0.00  0.00    -0.216 N 
ATOM      4  H   UNL     1       2.945  -5.869   0.131  0.00  0.00    +0.176 HD
ENDROOT
BRANCH   3   5
ATOM      5  N   UNL     1       1.296  -4.547  -0.363  0.00  0.00    -0.212 N 
ATOM      6  C   UNL     1       0.019  -4.832  -0.009  0.00  0.00    +0.223 A 
ATOM      7  N   UNL     1      -0.879  -3.905   0.241  0.00  0.00    -0.228 NA
ATOM      8  C   UNL     1      -0.494  -2.637   0.136  0.00  0.00    +0.116 A 
ATOM      9  C   UNL     1       0.812  -2.239  -0.226  0.00  0.00    +0.077 A 
ATOM     10  C   UNL     1       1.762  -3.282  -0.491  0.00  0.00    +0.280 A 
ATOM     11  O   UNL     1       2.914  -3.045  -0.810  0.00  0.00    -0.265 OA
ATOM     12  C   UNL     1       1.051  -0.808  -0.290  0.00  0.00    -0.023 A 
ATOM     13  C   UNL     1       0.002  -0.004   0.002  0.00  0.00    -0.004 A 
ATOM     14  S   UNL     1      -1.339  -1.106   0.372  0.00  0.00    -0.073 S 
ATOM     15  C   UNL     1      -0.018   1.493   0.010  0.00  0.00    +0.043 C 
ATOM     16  C   UNL     1       1.431   1.999  -0.001  0.00  0.00    +0.005 C 
ATOM     17  C   UNL     1       2.205   1.245  -1.085  0.00  0.00    +0.005 C 
ATOM     18  C   UNL     1       2.405  -0.211  -0.663  0.00  0.00    +0.037 C 
ENDBRANCH   3   5
BRANCH   1  19
ATOM     19  C   UNL     1       3.018  -7.461  -2.017  0.00  0.00    +0.326 C 
BRANCH  19  20
ATOM     20  O   UNL     1       2.714  -8.047  -3.284  0.00  0.00    -0.483 OA
BRANCH  20  23
ATOM     21  C   UNL     1       4.006 -10.782  -5.300  0.00  0.00    +0.022 A 
ATOM     22  C   UNL     1       3.234  -9.715  -4.898  0.00  0.00    +0.047 A 
ATOM     23  C   UNL     1       3.478  -9.099  -3.676  0.00  0.00    +0.121 A 
ATOM     24  C   UNL     1       4.505  -9.552  -2.858  0.00  0.00    +0.047 A 
ATOM     25  C   UNL     1       5.279 -10.622  -3.250  0.00  0.00    +0.022 A 
ATOM     26  C   UNL     1       5.037 -11.245  -4.477  0.00  0.00    +0.052 A 
BRANCH  26  27
ATOM     27  C   UNL     1       5.842 -12.354  -4.891  0.00  0.00    +0.099 C 
ATOM     28  N   UNL     1       6.481 -13.235  -5.218  0.00  0.00    -0.191 NA
ENDBRANCH  26  27
ENDBRANCH  20  23
ENDBRANCH  19  20
ENDBRANCH   1  19
TORSDOF 5
