REMARK  Name = ZINC39634799
REMARK  15 active torsions:
REMARK  status: ('A' for Active; 'I' for Inactive)
REMARK    1  A    between atoms: C_1  and  C_2
REMARK    2  A    between atoms: C_3  and  C_12
REMARK    3  A    between atoms: C_7  and  O_8
REMARK    4  A    between atoms: O_8  and  C_9
REMARK    5  A    between atoms: C_9  and  C_11
REMARK    6  A    between atoms: C_16  and  C_25
REMARK    7  A    between atoms: N_27  and  C_28
REMARK    8  A    between atoms: C_28  and  C_29
REMARK    9  A    between atoms: C_29  and  N_30
REMARK   10  A    between atoms: N_30  and  C_31
REMARK   11  A    between atoms: N_30  and  C_34
REMARK   12  A    between atoms: C_31  and  C_32
REMARK   13  A    between atoms: C_31  and  C_33
REMARK   14  A    between atoms: C_34  and  C_35
REMARK   15  A    between atoms: C_34  and  C_36
REMARK                            x       y       z     vdW  Elec       q    Type
REMARK                         _______ _______ _______ _____ _____    ______ ____
ROOT
ATOM      1  C   UNL     1      -2.748  -0.081  -3.339  0.00  0.00    +0.247 C 
ATOM      2  O   UNL     1      -3.018   1.086  -3.546  0.00  0.00    -0.270 OA
ATOM      3  N   UNL     1      -2.353  -0.872  -4.356  0.00  0.00    -0.296 N 
ATOM      4  C   UNL     1      -2.111  -2.333  -4.329  0.00  0.00    +0.121 C 
ATOM      5  C   UNL     1      -2.670  -2.847  -5.674  0.00  0.00    +0.100 C 
ATOM      6  C   UNL     1      -2.634  -1.625  -6.606  0.00  0.00    -0.004 C 
ATOM      7  C   UNL     1      -2.069  -0.477  -5.757  0.00  0.00    +0.115 C 
ATOM      8  C   UNL     1      -4.043  -1.279  -7.079  0.00  0.00    -0.010 C 
ATOM      9  C   UNL     1      -3.976  -0.097  -8.049  0.00  0.00    -0.082 C 
ATOM     10  N   UNL     1      -3.127  -0.448  -9.194  0.00  0.00    +0.379 N 
ATOM     11  C   UNL     1      -1.751  -0.689  -8.742  0.00  0.00    -0.082 C 
ATOM     12  C   UNL     1      -1.725  -1.897  -7.801  0.00  0.00    -0.010 C 
ATOM     13  H   UNL     1      -3.486  -1.283  -9.633  0.00  0.00    -0.086 HD
ATOM     14  H   UNL     1      -3.133   0.309  -9.860  0.00  0.00    -0.086 HD
ENDROOT
BRANCH   1  17
ATOM     15  C   UNL     1      -4.901   0.784  -1.610  0.00  0.00    +0.048 C 
ATOM     16  C   UNL     1      -3.887  -0.223  -1.129  0.00  0.00    +0.004 A 
ATOM     17  C   UNL     1      -2.853  -0.632  -1.971  0.00  0.00    +0.043 A 
ATOM     18  C   UNL     1      -1.919  -1.564  -1.518  0.00  0.00    +0.013 A 
ATOM     19  C   UNL     1      -2.020  -2.077  -0.241  0.00  0.00    +0.004 A 
ATOM     20  C   UNL     1      -3.045  -1.671   0.592  0.00  0.00    +0.047 A 
ATOM     21  C   UNL     1      -3.977  -0.740   0.152  0.00  0.00    +0.135 A 
BRANCH  21  22
ATOM     22  O   UNL     1      -4.979  -0.340   0.978  0.00  0.00    -0.426 OA
BRANCH  22  23
ATOM     23  C   UNL     1      -4.842   0.835   1.613  0.00  0.00    +0.309 C 
ATOM     24  O   UNL     1      -3.812   1.458   1.516  0.00  0.00    -0.251 OA
ATOM     25  C   UNL     1      -5.974   1.377   2.447  0.00  0.00    +0.136 C 
ENDBRANCH  22  23
ENDBRANCH  21  22
ENDBRANCH   1  17
BRANCH   5  26
ATOM     26  C   UNL     1      -1.798  -3.950  -6.218  0.00  0.00    +0.218 C 
ATOM     27  O   UNL     1      -0.626  -4.004  -5.910  0.00  0.00    -0.275 OA
ATOM     28  N   UNL     1      -2.321  -4.876  -7.046  0.00  0.00    -0.317 N 
ATOM     29  H   UNL     1      -3.258  -4.832  -7.293  0.00  0.00    +0.149 HD
BRANCH  28  30
ATOM     30  C   UNL     1      -1.473  -5.948  -7.574  0.00  0.00    +0.085 C 
BRANCH  30  31
ATOM     31  C   UNL     1      -2.306  -6.856  -8.482  0.00  0.00    -0.059 C 
BRANCH  31  32
ATOM     32  N   UNL     1      -1.498  -8.012  -8.893  0.00  0.00    +0.384 N 
ATOM     33  H   UNL     1      -1.133  -8.475  -8.074  0.00  0.00    -0.081 HD
BRANCH  32  34
ATOM     34  C   UNL     1      -2.335  -8.949  -9.653  0.00  0.00    -0.074 C 
ATOM     35  C   UNL     1      -1.520 -10.198  -9.995  0.00  0.00    -0.014 C 
ATOM     36  C   UNL     1      -3.549  -9.347  -8.811  0.00  0.00    -0.014 C 
ENDBRANCH  32  34
BRANCH  32  37
ATOM     37  C   UNL     1      -0.384  -7.556  -9.735  0.00  0.00    -0.074 C 
ATOM     38  C   UNL     1      -0.833  -6.353 -10.567  0.00  0.00    -0.014 C 
ATOM     39  C   UNL     1       0.794  -7.151  -8.847  0.00  0.00    -0.014 C 
ENDBRANCH  32  37
ENDBRANCH  31  32
ENDBRANCH  30  31
ENDBRANCH  28  30
ENDBRANCH   5  26
TORSDOF 9
