REMARK  Name = ZINC09505392
REMARK  10 active torsions:
REMARK  status: ('A' for Active; 'I' for Inactive)
REMARK    1  A    between atoms: C_1  and  C_2
REMARK    2  A    between atoms: C_2  and  C_3
REMARK    3  A    between atoms: C_3  and  N_59
REMARK    4  A    between atoms: C_9  and  N_15
REMARK    5  A    between atoms: C_10  and  C_11
REMARK    6  A    between atoms: C_11  and  O_13
REMARK    7  A    between atoms: O_13  and  C_14
REMARK    8  A    between atoms: C_16  and  C_18
REMARK    9  A    between atoms: N_23  and  S_24
REMARK   10  A    between atoms: S_24  and  C_27
REMARK                            x       y       z     vdW  Elec       q    Type
REMARK                         _______ _______ _______ _____ _____    ______ ____
ROOT
ATOM      1  C   UNL     1      -5.129  -4.637   2.308  0.00  0.00    -0.074 C 
ATOM      2  C   UNL     1      -5.358  -3.514   3.324  0.00  0.00    +0.018 C 
ATOM      3  C   UNL     1      -4.672  -2.256   2.803  0.00  0.00    -0.025 A 
ATOM      4  C   UNL     1      -3.732  -2.347   1.836  0.00  0.00    -0.021 A 
ATOM      5  S   UNL     1      -3.226  -0.678   1.540  0.00  0.00    -0.079 S 
ATOM      6  C   UNL     1      -4.239   0.130   2.691  0.00  0.00    +0.086 A 
ATOM      7  C   UNL     1      -4.952  -0.912   3.272  0.00  0.00    +0.091 A 
ATOM      8  C   UNL     1      -3.252  -3.603   1.179  0.00  0.00    -0.035 C 
ATOM      9  N   UNL     1      -3.685  -4.747   2.017  0.00  0.00    +0.383 N 
ATOM     10  H   UNL     1      -3.163  -4.731   2.901  0.00  0.00    -0.081 HD
ENDROOT
BRANCH   6  11
ATOM     11  N   UNL     1      -4.323   1.487   2.961  0.00  0.00    -0.278 N 
ATOM     12  C   UNL     1      -3.544   2.357   2.288  0.00  0.00    +0.236 C 
ATOM     13  O   UNL     1      -2.769   1.953   1.447  0.00  0.00    -0.274 OA
ATOM     14  H   UNL     1      -4.942   1.810   3.634  0.00  0.00    +0.155 HD
BRANCH  12  15
ATOM     15  C   UNL     1      -3.635   3.833   2.582  0.00  0.00    +0.166 C 
ATOM     16  C   UNL     1      -2.406   4.294   3.409  0.00  0.00    +0.031 C 
ATOM     17  C   UNL     1      -2.353   5.807   3.066  0.00  0.00    +0.019 C 
ATOM     18  C   UNL     1      -2.797   5.841   1.588  0.00  0.00    +0.110 C 
ATOM     19  N   UNL     1      -3.559   4.610   1.332  0.00  0.00    -0.164 NA
BRANCH  19  20
ATOM     20  S   UNL     1      -4.227   4.173  -0.119  0.00  0.00    +0.068 S 
ATOM     21  O   UNL     1      -4.502   2.781  -0.036  0.00  0.00    -0.152 OA
ATOM     22  O   UNL     1      -3.397   4.727  -1.131  0.00  0.00    -0.152 OA
BRANCH  20  23
ATOM     23  C   UNL     1      -5.784   4.987  -0.242  0.00  0.00    +0.143 A 
ATOM     24  C   UNL     1      -6.061   6.236  -0.690  0.00  0.00    +0.036 A 
ATOM     25  C   UNL     1      -7.373   6.672  -0.693  0.00  0.00    +0.010 A 
ATOM     26  C   UNL     1      -8.345   5.833  -0.258  0.00  0.00    +0.047 A 
ATOM     27  S   UNL     1      -7.408   4.379   0.183  0.00  0.00    -0.077 S 
ENDBRANCH  20  23
ENDBRANCH  19  20
ENDBRANCH  12  15
ENDBRANCH   6  11
BRANCH   7  28
ATOM     28  C   UNL     1      -5.946  -0.662   4.318  0.00  0.00    +0.342 C 
ATOM     29  O   UNL     1      -7.107  -0.458   4.017  0.00  0.00    -0.245 OA
BRANCH  28  30
ATOM     30  O   UNL     1      -5.575  -0.659   5.615  0.00  0.00    -0.464 OA
ATOM     31  C   UNL     1      -6.613  -0.405   6.597  0.00  0.00    +0.280 C 
ENDBRANCH  28  30
ENDBRANCH   7  28
BRANCH   9  32
ATOM     32  C   UNL     1      -3.406  -6.020   1.317  0.00  0.00    -0.079 C 
BRANCH  32  34
ATOM     33  C   UNL     1      -1.587  -7.538   0.525  0.00  0.00    +0.002 C 
ATOM     34  C   UNL     1      -1.891  -6.214   1.229  0.00  0.00    -0.022 C 
ENDBRANCH  32  34
ENDBRANCH   9  32
TORSDOF 8
