REMARK  Name = ZINC13063222
REMARK  13 active torsions:
REMARK  status: ('A' for Active; 'I' for Inactive)
REMARK    1  A    between atoms: C_1  and  C_2
REMARK    2  A    between atoms: C_2  and  C_3
REMARK    3  A    between atoms: C_2  and  C_4
REMARK    4  A    between atoms: C_4  and  C_5
REMARK    5  A    between atoms: C_5  and  N_6
REMARK    6  A    between atoms: N_6  and  C_7
REMARK    7  A    between atoms: C_8  and  N_23
REMARK    8  A    between atoms: N_9  and  C_16
REMARK    9  A    between atoms: C_16  and  C_17
REMARK   10  A    between atoms: C_24  and  C_26
REMARK   11  A    between atoms: C_26  and  N_70
REMARK   12  A    between atoms: C_27  and  N_70
REMARK   13  A    between atoms: C_28  and  N_70
REMARK                            x       y       z     vdW  Elec       q    Type
REMARK                         _______ _______ _______ _____ _____    ______ ____
ROOT
ATOM      1  C   UNL     1      -0.142   2.721   1.727  0.00  0.00    +0.140 A 
ATOM      2  C   UNL     1      -0.956   3.799   2.009  0.00  0.00    +0.128 A 
ATOM      3  N   UNL     1      -0.392   4.959   2.487  0.00  0.00    -0.276 N 
ATOM      4  C   UNL     1       0.938   5.044   2.669  0.00  0.00    +0.331 A 
ATOM      5  O   UNL     1       1.418   6.080   3.088  0.00  0.00    -0.246 OA
ATOM      6  N   UNL     1       1.747   4.005   2.395  0.00  0.00    -0.273 N 
ATOM      7  H   UNL     1       2.733   4.095   2.539  0.00  0.00    +0.173 HD
ATOM      8  C   UNL     1       1.245   2.845   1.929  0.00  0.00    +0.277 A 
ATOM      9  O   UNL     1       1.987   1.909   1.684  0.00  0.00    -0.266 OA
ENDROOT
BRANCH   1  10
ATOM     10  N   UNL     1      -0.691   1.516   1.239  0.00  0.00    -0.266 N 
ATOM     11  C   UNL     1      -1.530   0.795   2.013  0.00  0.00    +0.203 C 
ATOM     12  O   UNL     1      -1.886   1.228   3.089  0.00  0.00    -0.277 OA
BRANCH  10  13
ATOM     13  C   UNL     1      -0.351   1.048  -0.106  0.00  0.00    +0.114 C 
BRANCH  13  14
ATOM     14  C   UNL     1      -1.389   1.565  -1.104  0.00  0.00    +0.022 C 
BRANCH  14  16
ATOM     15  C   UNL     1      -1.146  -0.450  -2.562  0.00  0.00    +0.007 C 
ATOM     16  C   UNL     1      -1.034   1.075  -2.510  0.00  0.00    -0.016 C 
ATOM     17  C   UNL     1      -1.999   1.693  -3.524  0.00  0.00    +0.007 C 
ENDBRANCH  14  16
ENDBRANCH  13  14
ENDBRANCH  10  13
BRANCH  11  18
ATOM     18  C   UNL     1      -2.025  -0.548   1.539  0.00  0.00    +0.019 C 
BRANCH  18  20
ATOM     19  C   UNL     1      -2.180  -1.439   3.785  0.00  0.00    -0.095 C 
ATOM     20  N   UNL     1      -2.937  -1.106   2.559  0.00  0.00    +0.385 N 
ATOM     21  H   UNL     1      -3.651  -0.405   2.788  0.00  0.00    -0.081 HD
BRANCH  20  22
ATOM     22  C   UNL     1      -3.603  -2.316   2.033  0.00  0.00    -0.068 C 
ATOM     23  C   UNL     1      -4.436  -1.930   0.809  0.00  0.00    -0.015 C 
ATOM     24  C   UNL     1      -5.151  -3.170   0.267  0.00  0.00    -0.002 C 
ATOM     25  C   UNL     1      -6.069  -3.743   1.349  0.00  0.00    -0.000 C 
ATOM     26  C   UNL     1      -5.236  -4.128   2.573  0.00  0.00    -0.002 C 
ATOM     27  C   UNL     1      -4.521  -2.889   3.115  0.00  0.00    -0.015 C 
ENDBRANCH  20  22
ENDBRANCH  18  20
ENDBRANCH  11  18
ENDBRANCH   1  10
BRANCH   2  28
ATOM     28  N   UNL     1      -2.314   3.714   1.818  0.00  0.00    -0.343 N 
ATOM     29  H   UNL     1      -2.697   2.924   1.405  0.00  0.00    +0.144 HD
ATOM     30  H   UNL     1      -2.890   4.443   2.097  0.00  0.00    +0.144 HD
ENDBRANCH   2  28
BRANCH   3  31
ATOM     31  C   UNL     1      -1.244   6.110   2.795  0.00  0.00    +0.163 C 
BRANCH  31  32
ATOM     32  C   UNL     1      -1.384   6.974   1.568  0.00  0.00    -0.028 A 
ATOM     33  C   UNL     1      -0.486   8.000   1.339  0.00  0.00    +0.005 A 
ATOM     34  C   UNL     1      -0.612   8.790   0.211  0.00  0.00    +0.000 A 
ATOM     35  C   UNL     1      -1.641   8.559  -0.682  0.00  0.00    +0.000 A 
ATOM     36  C   UNL     1      -2.542   7.537  -0.451  0.00  0.00    +0.000 A 
ATOM     37  C   UNL     1      -2.414   6.744   0.674  0.00  0.00    +0.005 A 
ENDBRANCH  31  32
ENDBRANCH   3  31
TORSDOF 10
