REMARK  Name = ZINC09601474
REMARK  7 active torsions:
REMARK  status: ('A' for Active; 'I' for Inactive)
REMARK    1  A    between atoms: C_1  and  C_2
REMARK    2  A    between atoms: C_2  and  N_3
REMARK    3  A    between atoms: C_4  and  C_6
REMARK    4  A    between atoms: C_6  and  C_7
REMARK    5  A    between atoms: N_11  and  C_22
REMARK    6  A    between atoms: N_13  and  C_14
REMARK    7  A    between atoms: C_22  and  C_23
REMARK                            x       y       z     vdW  Elec       q    Type
REMARK                         _______ _______ _______ _____ _____    ______ ____
ROOT
ATOM      1  C   UNL     1       2.240   4.801   3.420  0.00  0.00    +0.149 C 
ATOM      2  C   UNL     1       2.314   4.304   1.986  0.00  0.00    +0.235 C 
ATOM      3  O   UNL     1       3.371   4.127   1.419  0.00  0.00    -0.274 OA
ATOM      4  N   UNL     1       1.153   4.077   1.394  0.00  0.00    -0.245 N 
ATOM      5  C   UNL     1      -0.053   4.282   2.032  0.00  0.00    +0.164 C 
ATOM      6  N   UNL     1      -1.262   4.100   1.557  0.00  0.00    -0.226 NA
ATOM      7  S   UNL     1       0.419   4.850   3.659  0.00  0.00    -0.077 S 
ENDROOT
BRANCH   6   8
ATOM      8  C   UNL     1      -2.353   4.359   2.344  0.00  0.00    +0.067 A 
ATOM      9  C   UNL     1      -2.387   3.909   3.665  0.00  0.00    +0.030 A 
ATOM     10  C   UNL     1      -3.486   4.177   4.454  0.00  0.00    +0.040 A 
ATOM     11  C   UNL     1      -4.560   4.881   3.935  0.00  0.00    +0.124 A 
ATOM     12  C   UNL     1      -4.535   5.325   2.623  0.00  0.00    +0.040 A 
ATOM     13  C   UNL     1      -3.439   5.068   1.826  0.00  0.00    +0.030 A 
ATOM     14  F   UNL     1      -5.637   5.136   4.710  0.00  0.00    -0.205 F 
ENDBRANCH   6   8
BRANCH   1  15
ATOM     15  C   UNL     1       2.855   6.195   3.556  0.00  0.00    +0.119 C 
BRANCH  15  17
ATOM     16  N   UNL     1       3.373   7.795   5.370  0.00  0.00    -0.316 N 
ATOM     17  C   UNL     1       2.872   6.597   5.008  0.00  0.00    +0.215 C 
ATOM     18  O   UNL     1       2.435   5.843   5.852  0.00  0.00    -0.276 OA
ATOM     19  H   UNL     1       3.723   8.398   4.696  0.00  0.00    +0.149 HD
BRANCH  16  21
ATOM     20  C   UNL     1       4.005   9.580   6.918  0.00  0.00    +0.024 C 
ATOM     21  C   UNL     1       3.390   8.186   6.782  0.00  0.00    +0.101 C 
ENDBRANCH  16  21
ENDBRANCH  15  17
ENDBRANCH   1  15
BRANCH   4  22
ATOM     22  C   UNL     1       1.147   3.596   0.010  0.00  0.00    +0.150 C 
BRANCH  22  23
ATOM     23  C   UNL     1       1.171   2.089   0.002  0.00  0.00    -0.026 A 
ATOM     24  C   UNL     1       2.379   1.418  -0.013  0.00  0.00    +0.009 A 
ATOM     25  C   UNL     1       2.405   0.036  -0.020  0.00  0.00    +0.050 A 
ATOM     26  C   UNL     1       1.220  -0.680  -0.013  0.00  0.00    +0.166 A 
ATOM     27  C   UNL     1       0.002  -0.004   0.002  0.00  0.00    +0.167 A 
ATOM     28  C   UNL     1      -0.017   1.381   0.010  0.00  0.00    +0.054 A 
ATOM     29  O   UNL     1      -1.007  -0.923   0.006  0.00  0.00    -0.453 OA
ATOM     30  C   UNL     1      -0.396  -2.164   0.405  0.00  0.00    +0.466 C 
ATOM     31  O   UNL     1       0.973  -2.023  -0.019  0.00  0.00    -0.453 OA
ENDBRANCH  22  23
ENDBRANCH   4  22
TORSDOF 6
