REMARK  Name = ZINC04197509
REMARK  5 active torsions:
REMARK  status: ('A' for Active; 'I' for Inactive)
REMARK    1  A    between atoms: C_1  and  C_2
REMARK    2  A    between atoms: C_3  and  C_8
REMARK    3  A    between atoms: N_5  and  C_7
REMARK    4  A    between atoms: C_8  and  N_9
REMARK    5  A    between atoms: N_12  and  C_13
REMARK                            x       y       z     vdW  Elec       q    Type
REMARK                         _______ _______ _______ _____ _____    ______ ____
ROOT
ATOM      1  N   UNL     1       1.347   0.058  -2.960  0.00  0.00    -0.295 N 
ATOM      2  C   UNL     1       1.576   0.520  -4.206  0.00  0.00    +0.300 C 
ATOM      3  O   UNL     1       0.661   0.603  -5.001  0.00  0.00    -0.253 OA
ATOM      4  N   UNL     1       2.820   0.889  -4.569  0.00  0.00    -0.294 N 
ATOM      5  H   UNL     1       2.077  -0.009  -2.325  0.00  0.00    +0.151 HD
ATOM      6  H   UNL     1       3.551   0.822  -3.934  0.00  0.00    +0.151 HD
ENDROOT
BRANCH   4   7
ATOM      7  C   UNL     1       3.070   1.391  -5.922  0.00  0.00    +0.037 C 
ATOM      8  C   UNL     1       2.227   2.644  -6.165  0.00  0.00    +0.029 C 
ATOM      9  C   UNL     1       2.488   3.168  -7.578  0.00  0.00    -0.008 C 
ATOM     10  C   UNL     1       3.971   3.514  -7.729  0.00  0.00    +0.007 C 
ATOM     11  C   UNL     1       4.814   2.260  -7.486  0.00  0.00    -0.008 C 
ATOM     12  C   UNL     1       4.553   1.736  -6.073  0.00  0.00    +0.029 C 
ATOM     13  C   UNL     1       4.434   1.185  -8.507  0.00  0.00    +0.007 C 
ATOM     14  C   UNL     1       2.951   0.840  -8.356  0.00  0.00    -0.008 C 
ATOM     15  C   UNL     1       2.108   2.094  -8.599  0.00  0.00    +0.007 C 
ATOM     16  C   UNL     1       2.691   0.316  -6.943  0.00  0.00    +0.029 C 
ENDBRANCH   4   7
BRANCH   1  17
ATOM     17  C   UNL     1      -0.006  -0.343  -2.566  0.00  0.00    +0.144 C 
BRANCH  17  20
ATOM     18  C   UNL     1      -0.018   1.503   0.010  0.00  0.00    +0.068 C 
ATOM     19  C   UNL     1       0.002  -0.004   0.002  0.00  0.00    +0.065 A 
ATOM     20  C   UNL     1       0.008  -0.818  -1.135  0.00  0.00    +0.010 A 
ATOM     21  C   UNL     1       0.028  -2.107  -0.725  0.00  0.00    +0.113 A 
ATOM     22  N   UNL     1       0.034  -2.109   0.625  0.00  0.00    -0.274 N 
ATOM     23  N   UNL     1       0.023  -0.777   1.058  0.00  0.00    -0.176 NA
ATOM     24  C   UNL     1       0.055  -3.295   1.485  0.00  0.00    +0.172 C 
ENDBRANCH  17  20
ENDBRANCH   1  17
TORSDOF 3
