REMARK  Name = ZINC64003624
REMARK  10 active torsions:
REMARK  status: ('A' for Active; 'I' for Inactive)
REMARK    1  A    between atoms: C_1  and  C_2
REMARK    2  A    between atoms: C_4  and  C_14
REMARK    3  A    between atoms: N_8  and  C_11
REMARK    4  A    between atoms: C_11  and  C_12
REMARK    5  A    between atoms: C_11  and  C_13
REMARK    6  A    between atoms: C_14  and  O_16
REMARK    7  A    between atoms: O_16  and  C_17
REMARK    8  A    between atoms: C_17  and  C_18
REMARK    9  A    between atoms: C_18  and  C_20
REMARK   10  A    between atoms: C_28  and  C_30
REMARK                            x       y       z     vdW  Elec       q    Type
REMARK                         _______ _______ _______ _____ _____    ______ ____
ROOT
ATOM      1  C   UNL     1       0.029  -2.842  -2.467  0.00  0.00    +0.340 C 
ATOM      2  O   UNL     1       0.046  -4.056  -2.441  0.00  0.00    -0.245 OA
ENDROOT
BRANCH   1   6
ATOM      3  C   UNL     1      -0.018   1.503   0.010  0.00  0.00    +0.065 C 
ATOM      4  C   UNL     1       0.002  -0.004   0.002  0.00  0.00    +0.041 A 
ATOM      5  C   UNL     1       0.005  -0.673  -1.205  0.00  0.00    +0.038 A 
ATOM      6  C   UNL     1       0.025  -2.075  -1.200  0.00  0.00    +0.068 A 
ATOM      7  C   UNL     1       0.040  -2.722   0.029  0.00  0.00    +0.023 A 
ATOM      8  C   UNL     1       0.035  -1.982   1.207  0.00  0.00    +0.141 A 
ATOM      9  N   UNL     1       0.022  -0.655   1.147  0.00  0.00    -0.236 NA
ATOM     10  N   UNL     1       0.053  -2.843   2.295  0.00  0.00    -0.248 N 
ATOM     11  N   UNL     1       0.070  -4.149   1.908  0.00  0.00    -0.234 NA
ATOM     12  C   UNL     1       0.063  -4.176   0.433  0.00  0.00    +0.141 C 
ATOM     13  H   UNL     1       0.881  -4.624   2.274  0.00  0.00    +0.145 HD
BRANCH  10  14
ATOM     14  C   UNL     1       0.055  -2.401   3.692  0.00  0.00    +0.086 C 
ATOM     15  C   UNL     1      -1.183  -2.952   4.402  0.00  0.00    +0.029 C 
ATOM     16  C   UNL     1       1.315  -2.917   4.389  0.00  0.00    +0.029 C 
ENDBRANCH  10  14
ENDBRANCH   1   6
BRANCH   1  17
ATOM     17  O   UNL     1       0.014  -2.193  -3.647  0.00  0.00    -0.453 OA
BRANCH  17  18
ATOM     18  C   UNL     1       0.019  -2.997  -4.829  0.00  0.00    +0.311 C 
BRANCH  18  19
ATOM     19  C   UNL     1      -0.000  -2.104  -6.043  0.00  0.00    +0.199 C 
ATOM     20  O   UNL     1      -0.016  -0.897  -5.909  0.00  0.00    -0.289 OA
BRANCH  19  21
ATOM     21  C   UNL     1       0.001  -2.671  -7.335  0.00  0.00    +0.029 C 
ATOM     22  C   UNL     1       0.012  -4.016  -7.659  0.00  0.00    +0.007 A 
ATOM     23  C   UNL     1       0.025  -5.194  -6.876  0.00  0.00    +0.010 A 
ATOM     24  C   UNL     1       0.035  -6.407  -7.471  0.00  0.00    +0.001 A 
ATOM     25  C   UNL     1       0.031  -6.563  -8.866  0.00  0.00    +0.002 A 
ATOM     26  C   UNL     1       0.019  -5.503  -9.703  0.00  0.00    +0.026 A 
ATOM     27  C   UNL     1       0.008  -4.144  -9.137  0.00  0.00    +0.043 A 
ATOM     28  N   UNL     1      -0.005  -2.968  -9.697  0.00  0.00    -0.377 N 
ATOM     29  C   UNL     1      -0.016  -1.935  -8.657  0.00  0.00    +0.111 C 
ATOM     30  C   UNL     1       1.226  -1.050  -8.783  0.00  0.00    +0.035 C 
ATOM     31  H   UNL     1      -0.009  -2.802 -10.653  0.00  0.00    +0.160 HD
ENDBRANCH  19  21
ENDBRANCH  18  19
ENDBRANCH  17  18
ENDBRANCH   1  17
TORSDOF 6
