REMARK  Name = ZINC08635514
REMARK  11 active torsions:
REMARK  status: ('A' for Active; 'I' for Inactive)
REMARK    1  A    between atoms: C_1  and  N_2
REMARK    2  A    between atoms: C_3  and  C_17
REMARK    3  A    between atoms: C_5  and  C_7
REMARK    4  A    between atoms: C_10  and  O_15
REMARK    5  A    between atoms: C_11  and  O_13
REMARK    6  A    between atoms: O_13  and  C_14
REMARK    7  A    between atoms: O_15  and  C_16
REMARK    8  A    between atoms: C_25  and  C_27
REMARK    9  A    between atoms: C_27  and  N_28
REMARK   10  A    between atoms: N_28  and  S_29
REMARK   11  A    between atoms: S_29  and  C_32
REMARK                            x       y       z     vdW  Elec       q    Type
REMARK                         _______ _______ _______ _____ _____    ______ ____
ROOT
ATOM      1  C   UNL     1       7.275   2.069  -0.099  0.00  0.00    +0.024 C 
ATOM      2  C   UNL     1       7.754   1.732   1.316  0.00  0.00    -0.068 C 
ATOM      3  C   UNL     1       9.386   0.165   0.449  0.00  0.00    -0.078 C 
ATOM      4  C   UNL     1       8.953   0.459  -0.990  0.00  0.00    -0.015 C 
ATOM      5  C   UNL     1       7.467   0.838  -0.993  0.00  0.00    -0.007 C 
ATOM      6  C   UNL     1       6.663  -0.327  -0.401  0.00  0.00    -0.010 C 
ATOM      7  C   UNL     1       7.160  -0.598   1.021  0.00  0.00    -0.053 C 
ATOM      8  N   UNL     1       8.247   0.339   1.376  0.00  0.00    +0.383 N 
ATOM      9  H   UNL     1       8.562   0.138   2.332  0.00  0.00    -0.081 HD
ENDROOT
BRANCH   1  12
ATOM     10  C   UNL     1       5.394   2.416  -2.534  0.00  0.00    +0.172 C 
ATOM     11  N   UNL     1       5.006   2.591  -1.132  0.00  0.00    -0.271 N 
ATOM     12  C   UNL     1       5.815   2.444  -0.061  0.00  0.00    +0.041 A 
ATOM     13  C   UNL     1       5.087   2.690   1.049  0.00  0.00    +0.053 A 
ATOM     14  C   UNL     1       3.774   3.002   0.644  0.00  0.00    +0.093 A 
ATOM     15  N   UNL     1       3.730   2.937  -0.670  0.00  0.00    -0.171 NA
BRANCH  14  16
ATOM     16  C   UNL     1       2.641   3.339   1.540  0.00  0.00    +0.006 A 
ATOM     17  C   UNL     1       2.850   3.469   2.912  0.00  0.00    +0.014 A 
ATOM     18  C   UNL     1       1.796   3.783   3.745  0.00  0.00    +0.050 A 
ATOM     19  C   UNL     1       0.526   3.969   3.220  0.00  0.00    +0.162 A 
ATOM     20  C   UNL     1       0.310   3.840   1.851  0.00  0.00    +0.162 A 
ATOM     21  C   UNL     1       1.365   3.526   1.012  0.00  0.00    +0.059 A 
BRANCH  20  22
ATOM     22  O   UNL     1      -0.937   4.016   1.339  0.00  0.00    -0.491 OA
ATOM     23  C   UNL     1      -1.085   3.869  -0.075  0.00  0.00    +0.277 C 
ENDBRANCH  20  22
BRANCH  19  24
ATOM     24  O   UNL     1      -0.511   4.277   4.044  0.00  0.00    -0.491 OA
ATOM     25  C   UNL     1      -0.219   4.394   5.438  0.00  0.00    +0.277 C 
ENDBRANCH  19  24
ENDBRANCH  14  16
ENDBRANCH   1  12
BRANCH   7  26
ATOM     26  C   UNL     1       6.006  -0.417   2.009  0.00  0.00    +0.090 C 
BRANCH  26  27
ATOM     27  N   UNL     1       6.508  -0.556   3.378  0.00  0.00    -0.191 NA
ATOM     28  H   UNL     1       7.382  -0.945   3.537  0.00  0.00    +0.148 HD
BRANCH  27  29
ATOM     29  S   UNL     1       5.583  -0.050   4.655  0.00  0.00    +0.058 S 
ATOM     30  O   UNL     1       6.322  -0.340   5.833  0.00  0.00    -0.153 OA
ATOM     31  O   UNL     1       5.138   1.262   4.338  0.00  0.00    -0.153 OA
BRANCH  29  32
ATOM     32  C   UNL     1       4.148  -1.071   4.696  0.00  0.00    +0.106 A 
ATOM     33  C   UNL     1       3.010  -0.686   3.990  0.00  0.00    +0.029 A 
ATOM     34  C   UNL     1       1.887  -1.455   3.996  0.00  0.00    +0.010 A 
ATOM     35  C   UNL     1       1.867  -2.650   4.736  0.00  0.00    -0.018 A 
ATOM     36  C   UNL     1       0.724  -3.467   4.772  0.00  0.00    +0.008 A 
ATOM     37  C   UNL     1       0.742  -4.618   5.498  0.00  0.00    +0.001 A 
ATOM     38  C   UNL     1       1.878  -5.000   6.210  0.00  0.00    +0.001 A 
ATOM     39  C   UNL     1       3.003  -4.234   6.198  0.00  0.00    +0.008 A 
ATOM     40  C   UNL     1       3.022  -3.039   5.459  0.00  0.00    -0.016 A 
ATOM     41  C   UNL     1       4.165  -2.222   5.423  0.00  0.00    +0.037 A 
ENDBRANCH  29  32
ENDBRANCH  27  29
ENDBRANCH  26  27
ENDBRANCH   7  26
TORSDOF 8
