REMARK  Name = ZINC17111544
REMARK  8 active torsions:
REMARK  status: ('A' for Active; 'I' for Inactive)
REMARK    1  A    between atoms: C_4  and  C_7
REMARK    2  A    between atoms: C_7  and  O_8
REMARK    3  A    between atoms: O_8  and  C_9
REMARK    4  A    between atoms: C_11  and  O_38
REMARK    5  A    between atoms: C_13  and  O_37
REMARK    6  A    between atoms: C_15  and  O_29
REMARK    7  A    between atoms: O_29  and  C_30
REMARK    8  A    between atoms: C_30  and  C_31
REMARK                            x       y       z     vdW  Elec       q    Type
REMARK                         _______ _______ _______ _____ _____    ______ ____
ROOT
ATOM      1  C   UNL     1       0.239   2.642  -4.229  0.00  0.00    +0.181 C 
ATOM      2  C   UNL     1       0.400   4.097  -4.600  0.00  0.00    +0.177 C 
ATOM      3  C   UNL     1      -0.118   5.004  -3.484  0.00  0.00    +0.177 C 
ATOM      4  C   UNL     1       0.729   4.740  -2.237  0.00  0.00    +0.181 C 
ATOM      5  C   UNL     1       0.570   3.314  -1.778  0.00  0.00    +0.184 C 
ATOM      6  C   UNL     1       0.745   2.266  -2.873  0.00  0.00    +0.184 C 
ATOM      7  O   UNL     1      -0.077   1.156  -2.418  0.00  0.00    -0.340 OA
ATOM      8  C   UNL     1      -0.751   1.591  -1.229  0.00  0.00    +0.171 C 
ATOM      9  O   UNL     1      -0.738   3.036  -1.242  0.00  0.00    -0.340 OA
ATOM     10  C   UNL     1      -0.013   1.086   0.008  0.00  0.00    +0.065 C 
ATOM     11  C   UNL     1      -0.729   1.579   1.268  0.00  0.00    +0.005 C 
ATOM     12  C   UNL     1      -2.168   1.062   1.270  0.00  0.00    +0.000 C 
ATOM     13  C   UNL     1      -2.904   1.586   0.035  0.00  0.00    +0.005 C 
ATOM     14  C   UNL     1      -2.193   1.093  -1.228  0.00  0.00    +0.065 C 
ENDROOT
BRANCH   3  15
ATOM     15  O   UNL     1       0.008   6.373  -3.874  0.00  0.00    -0.386 OA
ATOM     16  H   UNL     1      -0.505   6.607  -4.660  0.00  0.00    +0.210 HD
ENDBRANCH   3  15
BRANCH   2  17
ATOM     17  O   UNL     1       1.783   4.375  -4.827  0.00  0.00    -0.386 OA
ATOM     18  H   UNL     1       1.964   5.287  -5.090  0.00  0.00    +0.210 HD
ENDBRANCH   2  17
BRANCH   1  19
ATOM     19  O   UNL     1       0.926   1.853  -5.204  0.00  0.00    -0.367 OA
BRANCH  19  20
ATOM     20  C   UNL     1       0.116   1.470  -6.317  0.00  0.00    +0.195 C 
BRANCH  20  24
ATOM     21  C   UNL     1       2.442  -0.863  -9.036  0.00  0.00    +0.000 A 
ATOM     22  C   UNL     1       1.742  -1.482  -8.017  0.00  0.00    +0.000 A 
ATOM     23  C   UNL     1       0.989  -0.727  -7.137  0.00  0.00    +0.006 A 
ATOM     24  C   UNL     1       0.936   0.647  -7.276  0.00  0.00    -0.022 A 
ATOM     25  C   UNL     1       1.632   1.266  -8.298  0.00  0.00    +0.006 A 
ATOM     26  C   UNL     1       2.389   0.511  -9.175  0.00  0.00    +0.000 A 
ENDBRANCH  20  24
ENDBRANCH  19  20
ENDBRANCH   1  19
BRANCH   4  27
ATOM     27  O   UNL     1       0.313   5.620  -1.192  0.00  0.00    -0.367 OA
BRANCH  27  28
ATOM     28  C   UNL     1       0.994   6.877  -1.185  0.00  0.00    +0.195 C 
BRANCH  28  29
ATOM     29  C   UNL     1       0.479   7.721  -0.047  0.00  0.00    -0.022 A 
ATOM     30  C   UNL     1      -0.593   8.570  -0.247  0.00  0.00    +0.006 A 
ATOM     31  C   UNL     1      -1.068   9.341   0.797  0.00  0.00    +0.000 A 
ATOM     32  C   UNL     1      -0.465   9.269   2.039  0.00  0.00    +0.000 A 
ATOM     33  C   UNL     1       0.609   8.423   2.238  0.00  0.00    +0.000 A 
ATOM     34  C   UNL     1       1.082   7.649   1.195  0.00  0.00    +0.006 A 
ENDBRANCH  28  29
ENDBRANCH  27  28
ENDBRANCH   4  27
TORSDOF 8
