REMARK  Name = ZINC63807073
REMARK  9 active torsions:
REMARK  status: ('A' for Active; 'I' for Inactive)
REMARK    1  A    between atoms: C_1  and  C_2
REMARK    2  A    between atoms: C_4  and  C_21
REMARK    3  A    between atoms: C_7  and  N_10
REMARK    4  A    between atoms: N_10  and  C_11
REMARK    5  A    between atoms: C_11  and  C_12
REMARK    6  A    between atoms: C_18  and  C_20
REMARK    7  A    between atoms: N_23  and  C_24
REMARK    8  A    between atoms: C_24  and  C_25
REMARK    9  A    between atoms: C_25  and  C_26
REMARK                            x       y       z     vdW  Elec       q    Type
REMARK                         _______ _______ _______ _____ _____    ______ ____
ROOT
ATOM      1  C   UNL     1      -0.358   1.557  -0.445  0.00  0.00    +0.025 C 
ATOM      2  C   UNL     1      -0.210   0.040  -0.310  0.00  0.00    +0.075 C 
ATOM      3  C   UNL     1      -1.617  -0.598  -0.349  0.00  0.00    +0.152 C 
ATOM      4  S   UNL     1      -1.612  -1.614   1.190  0.00  0.00    -0.108 S 
ATOM      5  C   UNL     1       0.214  -1.595   1.475  0.00  0.00    +0.205 C 
ATOM      6  N   UNL     1       0.534  -0.249   0.918  0.00  0.00    -0.286 NA
ATOM      7  H   UNL     1       1.527  -0.148   0.772  0.00  0.00    +0.125 HD
ENDROOT
BRANCH   5   8
ATOM      8  N   UNL     1       0.533  -1.673   2.902  0.00  0.00    -0.275 N 
ATOM      9  C   UNL     1       0.824  -0.551   3.590  0.00  0.00    +0.214 C 
ATOM     10  O   UNL     1       0.723   0.532   3.054  0.00  0.00    -0.276 OA
ATOM     11  C   UNL     1       1.275  -0.643   5.025  0.00  0.00    +0.109 C 
BRANCH   8  12
ATOM     12  C   UNL     1       0.537  -2.971   3.582  0.00  0.00    +0.141 C 
BRANCH  12  13
ATOM     13  C   UNL     1       1.897  -3.644   3.391  0.00  0.00    +0.136 C 
ATOM     14  C   UNL     1       1.871  -5.062   4.000  0.00  0.00    +0.035 C 
ATOM     15  C   UNL     1       3.279  -5.170   4.645  0.00  0.00    +0.031 C 
ATOM     16  C   UNL     1       3.507  -3.707   5.101  0.00  0.00    +0.160 C 
ATOM     17  O   UNL     1       2.910  -2.896   4.074  0.00  0.00    -0.375 OA
ENDBRANCH  12  13
ENDBRANCH   8  12
ENDBRANCH   5   8
BRANCH   3  18
ATOM     18  C   UNL     1      -2.690   0.458  -0.295  0.00  0.00    +0.228 C 
ATOM     19  O   UNL     1      -3.178   0.880  -1.323  0.00  0.00    -0.275 OA
ATOM     20  N   UNL     1      -3.109   0.934   0.894  0.00  0.00    -0.314 N 
ATOM     21  H   UNL     1      -2.719   0.597   1.716  0.00  0.00    +0.149 HD
BRANCH  20  22
ATOM     22  C   UNL     1      -4.152   1.961   0.946  0.00  0.00    +0.108 C 
BRANCH  22  23
ATOM     23  C   UNL     1      -4.439   2.323   2.405  0.00  0.00    +0.052 C 
BRANCH  23  24
ATOM     24  C   UNL     1      -5.513   3.379   2.458  0.00  0.00    -0.040 C 
ATOM     25  C   UNL     1      -6.840   3.182   2.629  0.00  0.00    -0.001 A 
ATOM     26  C   UNL     1      -7.650   1.972   2.808  0.00  0.00    +0.010 A 
ATOM     27  C   UNL     1      -8.989   2.094   2.957  0.00  0.00    +0.001 A 
ATOM     28  C   UNL     1      -9.620   3.346   2.945  0.00  0.00    +0.002 A 
ATOM     29  C   UNL     1      -8.943   4.503   2.786  0.00  0.00    +0.026 A 
ATOM     30  C   UNL     1      -7.530   4.492   2.620  0.00  0.00    +0.043 A 
ATOM     31  N   UNL     1      -6.664   5.461   2.451  0.00  0.00    -0.380 N 
ATOM     32  C   UNL     1      -5.323   4.875   2.339  0.00  0.00    +0.144 C 
ATOM     33  H   UNL     1      -6.873   6.407   2.410  0.00  0.00    +0.160 HD
ENDBRANCH  23  24
ENDBRANCH  22  23
ENDBRANCH  20  22
ENDBRANCH   3  18
TORSDOF 7
