REMARK  Name = ZINC04737535
REMARK  4 active torsions:
REMARK  status: ('A' for Active; 'I' for Inactive)
REMARK    1  A    between atoms: C_1  and  C_2
REMARK    2  A    between atoms: C_2  and  C_25
REMARK    3  A    between atoms: N_3  and  N_4
REMARK    4  A    between atoms: C_28  and  N_31
REMARK                            x       y       z     vdW  Elec       q    Type
REMARK                         _______ _______ _______ _____ _____    ______ ____
ROOT
ATOM      1  N   UNL     1      -2.188  -4.090  -0.741  0.00  0.00    -0.205 N 
ATOM      2  C   UNL     1      -1.754  -3.473   0.416  0.00  0.00    +0.241 A 
ATOM      3  N   UNL     1      -1.943  -4.061   1.594  0.00  0.00    -0.180 NA
ATOM      4  C   UNL     1      -1.526  -3.466   2.707  0.00  0.00    +0.224 A 
ATOM      5  N   UNL     1      -0.915  -2.287   2.642  0.00  0.00    -0.181 NA
ATOM      6  C   UNL     1      -0.731  -1.697   1.465  0.00  0.00    +0.224 A 
ATOM      7  N   UNL     1      -1.148  -2.291   0.352  0.00  0.00    -0.180 NA
ATOM      8  N   UNL     1      -0.102  -0.470   1.399  0.00  0.00    -0.299 N 
ATOM      9  C   UNL     1       0.002  -0.004   0.002  0.00  0.00    +0.108 C 
ATOM     10  C   UNL     1      -0.018   1.504   0.010  0.00  0.00    +0.019 C 
ATOM     11  C   UNL     1       1.404   2.090  -0.000  0.00  0.00    +0.002 C 
ATOM     12  C   UNL     1       2.357   1.307   0.924  0.00  0.00    +0.002 C 
ATOM     13  C   UNL     1       1.713   0.926   2.232  0.00  0.00    +0.019 C 
ATOM     14  C   UNL     1       1.106  -0.488   2.102  0.00  0.00    +0.108 C 
ATOM     15  N   UNL     1      -1.721  -4.076   3.929  0.00  0.00    -0.299 N 
ATOM     16  C   UNL     1      -0.458  -4.138   4.699  0.00  0.00    +0.108 C 
ATOM     17  C   UNL     1      -0.555  -5.026   5.910  0.00  0.00    +0.019 C 
ATOM     18  C   UNL     1      -0.062  -6.436   5.522  0.00  0.00    +0.002 C 
ATOM     19  C   UNL     1      -1.073  -7.191   4.789  0.00  0.00    +0.002 C 
ATOM     20  C   UNL     1      -1.463  -6.505   3.463  0.00  0.00    +0.019 C 
ATOM     21  C   UNL     1      -2.410  -5.376   3.770  0.00  0.00    +0.108 C 
ATOM     22  H   UNL     1      -2.051  -3.661  -1.600  0.00  0.00    +0.177 HD
ENDROOT
BRANCH   1  25
ATOM     23  C   UNL     1      -3.021  -5.249  -3.095  0.00  0.00    +0.068 C 
ATOM     24  C   UNL     1      -3.235  -5.915  -1.761  0.00  0.00    +0.063 C 
ATOM     25  N   UNL     1      -2.827  -5.335  -0.673  0.00  0.00    -0.184 NA
BRANCH  24  26
ATOM     26  C   UNL     1      -3.906  -7.225  -1.690  0.00  0.00    -0.002 A 
ATOM     27  C   UNL     1      -4.351  -7.849  -2.859  0.00  0.00    +0.011 A 
ATOM     28  C   UNL     1      -4.973  -9.076  -2.789  0.00  0.00    +0.023 A 
ATOM     29  C   UNL     1      -5.169  -9.689  -1.556  0.00  0.00    +0.025 A 
ATOM     30  C   UNL     1      -4.733  -9.069  -0.390  0.00  0.00    +0.023 A 
ATOM     31  C   UNL     1      -4.105  -7.845  -0.453  0.00  0.00    +0.011 A 
BRANCH  29  32
ATOM     32  N   UNL     1      -5.806 -10.929  -1.489  0.00  0.00    -0.358 N 
ATOM     33  H   UNL     1      -5.943 -11.357  -0.630  0.00  0.00    +0.142 HD
ATOM     34  H   UNL     1      -6.110 -11.362  -2.301  0.00  0.00    +0.142 HD
ENDBRANCH  29  32
ENDBRANCH  24  26
ENDBRANCH   1  25
TORSDOF 3
