REMARK  Name = ZINC39325393
REMARK  5 active torsions:
REMARK  status: ('A' for Active; 'I' for Inactive)
REMARK    1  A    between atoms: C_1  and  C_2
REMARK    2  A    between atoms: C_2  and  C_3
REMARK    3  A    between atoms: C_5  and  C_17
REMARK    4  A    between atoms: C_7  and  C_15
REMARK    5  A    between atoms: C_8  and  N_14
REMARK                            x       y       z     vdW  Elec       q    Type
REMARK                         _______ _______ _______ _____ _____    ______ ____
ROOT
ATOM      1  C   UNL     1      -1.412  -0.526   0.013  0.00  0.00    +0.069 C 
ATOM      2  C   UNL     1      -2.091  -0.872  -1.054  0.00  0.00    +0.030 C 
ATOM      3  C   UNL     1      -1.734  -1.014  -2.509  0.00  0.00    +0.104 C 
ATOM      4  C   UNL     1      -2.408  -2.293  -2.970  0.00  0.00    +0.098 C 
ATOM      5  C   UNL     1      -3.287  -2.953  -2.188  0.00  0.00    +0.195 C 
ATOM      6  O   UNL     1      -3.663  -2.618  -0.940  0.00  0.00    -0.448 OA
ATOM      7  C   UNL     1      -3.476  -1.259  -0.537  0.00  0.00    +0.343 C 
ATOM      8  N   UNL     1      -3.307  -1.130   0.914  0.00  0.00    -0.138 NA
ATOM      9  N   UNL     1      -2.163  -0.710   1.129  0.00  0.00    -0.155 NA
ENDROOT
BRANCH   3  10
ATOM     10  C   UNL     1      -2.257   0.164  -3.290  0.00  0.00    +0.004 A 
ATOM     11  C   UNL     1      -1.571   1.069  -4.031  0.00  0.00    +0.013 A 
ATOM     12  C   UNL     1      -2.267   2.079  -4.669  0.00  0.00    +0.028 A 
ATOM     13  C   UNL     1      -3.615   2.135  -4.534  0.00  0.00    +0.078 A 
ATOM     14  S   UNL     1      -3.940   0.726  -3.486  0.00  0.00    -0.081 S 
ATOM     15 CL   UNL     1      -4.735   3.276  -5.210  0.00  0.00    -0.076 Cl
ENDBRANCH   3  10
BRANCH   5  16
ATOM     16  N   UNL     1      -3.858  -4.082  -2.720  0.00  0.00    -0.329 N 
ATOM     17  H   UNL     1      -3.622  -4.368  -3.616  0.00  0.00    +0.145 HD
ATOM     18  H   UNL     1      -4.497  -4.594  -2.200  0.00  0.00    +0.145 HD
ENDBRANCH   5  16
BRANCH   1  20
ATOM     19  C   UNL     1      -0.019   1.526   0.010  0.00  0.00    +0.010 C 
ATOM     20  C   UNL     1       0.002  -0.004   0.002  0.00  0.00    +0.054 C 
ENDBRANCH   1  20
BRANCH   4  21
ATOM     21  C   UNL     1      -2.103  -2.812  -4.269  0.00  0.00    +0.101 C 
ATOM     22  N   UNL     1      -1.861  -3.225  -5.300  0.00  0.00    -0.191 NA
ENDBRANCH   4  21
TORSDOF 4
