REMARK  Name = ZINC13495947
REMARK  14 active torsions:
REMARK  status: ('A' for Active; 'I' for Inactive)
REMARK    1  A    between atoms: C_1  and  C_2
REMARK    2  A    between atoms: C_2  and  C_3
REMARK    3  A    between atoms: C_3  and  C_5
REMARK    4  A    between atoms: C_3  and  N_76
REMARK    5  A    between atoms: N_9  and  C_10
REMARK    6  A    between atoms: C_10  and  C_11
REMARK    7  A    between atoms: C_17  and  C_18
REMARK    8  A    between atoms: C_17  and  N_76
REMARK    9  A    between atoms: C_18  and  C_19
REMARK   10  A    between atoms: C_23  and  C_25
REMARK   11  A    between atoms: C_26  and  C_27
REMARK   12  A    between atoms: C_26  and  N_76
REMARK   13  A    between atoms: C_31  and  C_40
REMARK   14  A    between atoms: C_33  and  C_39
REMARK                            x       y       z     vdW  Elec       q    Type
REMARK                         _______ _______ _______ _____ _____    ______ ____
ROOT
ATOM      1  N   UNL     1       4.370   4.430  -1.294  0.00  0.00    +0.389 N 
ATOM      2  H   UNL     1       5.014   3.874  -0.719  0.00  0.00    -0.080 HD
ENDROOT
BRANCH   1   3
ATOM      3  C   UNL     1       4.829   4.398  -2.698  0.00  0.00    +0.003 C 
BRANCH   3   4
ATOM      4  C   UNL     1       4.695   2.993  -3.227  0.00  0.00    +0.138 A 
ATOM      5  N   UNL     1       5.032   1.888  -2.607  0.00  0.00    -0.115 NA
ATOM      6  N   UNL     1       4.764   0.897  -3.386  0.00  0.00    -0.023 NA
ATOM      7  N   UNL     1       4.265   1.341  -4.486  0.00  0.00    -0.044 NA
ATOM      8  N   UNL     1       4.201   2.628  -4.425  0.00  0.00    -0.228 N 
BRANCH   8   9
ATOM      9  C   UNL     1       3.691   3.525  -5.465  0.00  0.00    +0.178 C 
BRANCH   9  10
ATOM     10  C   UNL     1       4.835   3.926  -6.399  0.00  0.00    +0.140 C 
ATOM     11  C   UNL     1       4.332   4.961  -7.428  0.00  0.00    +0.035 C 
ATOM     12  C   UNL     1       5.060   4.515  -8.726  0.00  0.00    +0.031 C 
ATOM     13  C   UNL     1       5.090   2.978  -8.533  0.00  0.00    +0.160 C 
ATOM     14  O   UNL     1       5.293   2.780  -7.125  0.00  0.00    -0.375 OA
ENDBRANCH   9  10
ENDBRANCH   8   9
ENDBRANCH   3   4
BRANCH   3  16
ATOM     15  C   UNL     1       7.129   3.892  -1.864  0.00  0.00    +0.002 C 
ATOM     16  C   UNL     1       6.298   4.824  -2.748  0.00  0.00    -0.011 C 
ENDBRANCH   3  16
ENDBRANCH   1   3
BRANCH   1  17
ATOM     17  C   UNL     1       3.014   3.851  -1.191  0.00  0.00    -0.073 C 
BRANCH  17  18
ATOM     18  C   UNL     1       2.669   3.661   0.287  0.00  0.00    +0.016 C 
BRANCH  18  19
ATOM     19  C   UNL     1       1.353   2.938   0.407  0.00  0.00    -0.049 A 
ATOM     20  C   UNL     1       1.316   1.556   0.358  0.00  0.00    +0.003 A 
ATOM     21  C   UNL     1       0.109   0.892   0.469  0.00  0.00    +0.001 A 
ATOM     22  C   UNL     1      -1.063   1.610   0.622  0.00  0.00    +0.003 A 
ATOM     23  C   UNL     1      -1.026   2.990   0.675  0.00  0.00    -0.050 A 
ATOM     24  C   UNL     1       0.182   3.655   0.566  0.00  0.00    +0.007 A 
ATOM     25  C   UNL     1      -2.303   3.772   0.848  0.00  0.00    +0.044 C 
ENDBRANCH  18  19
ENDBRANCH  17  18
ENDBRANCH   1  17
BRANCH   1  26
ATOM     26  C   UNL     1       4.364   5.822  -0.796  0.00  0.00    -0.037 C 
BRANCH  26  27
ATOM     27  C   UNL     1       3.306   6.630  -1.503  0.00  0.00    +0.001 A 
ATOM     28  C   UNL     1       2.072   6.756  -0.953  0.00  0.00    +0.017 A 
ATOM     29  C   UNL     1       1.069   7.553  -1.662  0.00  0.00    -0.001 A 
ATOM     30  C   UNL     1      -0.219   7.723  -1.142  0.00  0.00    +0.013 A 
ATOM     31  C   UNL     1      -1.134   8.467  -1.831  0.00  0.00    -0.050 A 
ATOM     32  C   UNL     1      -0.797   9.056  -3.042  0.00  0.00    +0.008 A 
ATOM     33  C   UNL     1       0.465   8.903  -3.572  0.00  0.00    -0.026 A 
ATOM     34  C   UNL     1       1.414   8.149  -2.889  0.00  0.00    +0.052 A 
ATOM     35  N   UNL     1       2.684   7.978  -3.397  0.00  0.00    -0.322 N 
ATOM     36  H   UNL     1       2.920   8.389  -4.243  0.00  0.00    +0.169 HD
ATOM     37  C   UNL     1       3.600   7.249  -2.737  0.00  0.00    +0.251 A 
ATOM     38  O   UNL     1       4.714   7.119  -3.216  0.00  0.00    -0.268 OA
ATOM     39  C   UNL     1       0.817   9.549  -4.888  0.00  0.00    +0.046 C 
ATOM     40  C   UNL     1      -2.521   8.650  -1.271  0.00  0.00    +0.044 C 
ENDBRANCH  26  27
ENDBRANCH   1  26
TORSDOF 10
