REMARK  Name = ZINC39367453
REMARK  4 active torsions:
REMARK  status: ('A' for Active; 'I' for Inactive)
REMARK    1  A    between atoms: C_8  and  C_12
REMARK    2  A    between atoms: C_12  and  S_13
REMARK    3  A    between atoms: S_13  and  C_14
REMARK    4  A    between atoms: C_17  and  N_20
REMARK                            x       y       z     vdW  Elec       q    Type
REMARK                         _______ _______ _______ _____ _____    ______ ____
ROOT
ATOM      1  C   UNL     1      -0.019   1.528   0.010  0.00  0.00    +0.002 C 
ATOM      2  C   UNL     1       1.399   2.094  -0.000  0.00  0.00    +0.004 C 
ATOM      3  C   UNL     1       2.151   1.676   1.271  0.00  0.00    +0.033 C 
ATOM      4  C   UNL     1       2.037   0.156   1.366  0.00  0.00    -0.042 C 
ATOM      5  C   UNL     1       3.070  -0.680   1.479  0.00  0.00    +0.071 C 
ATOM      6  C   UNL     1       2.810  -2.139   1.367  0.00  0.00    +0.111 C 
ATOM      7  N   UNL     1       3.771  -3.031   1.422  0.00  0.00    -0.227 NA
ATOM      8  C   UNL     1       5.017  -2.588   1.587  0.00  0.00    +0.134 C 
ATOM      9  N   UNL     1       5.367  -1.333   1.698  0.00  0.00    -0.160 NA
ATOM     10  C   UNL     1       4.510  -0.296   1.656  0.00  0.00    +0.271 C 
ATOM     11  O   UNL     1       4.875   0.864   1.754  0.00  0.00    -0.268 OA
ATOM     12  S   UNL     1       1.060  -2.271   1.177  0.00  0.00    -0.097 S 
ATOM     13  C   UNL     1       0.651  -0.488   1.301  0.00  0.00    +0.079 C 
ATOM     14  C   UNL     1       0.002  -0.004   0.002  0.00  0.00    +0.019 C 
ENDROOT
BRANCH   8  15
ATOM     15  C   UNL     1       6.114  -3.619   1.651  0.00  0.00    +0.150 C 
BRANCH  15  16
ATOM     16  S   UNL     1       7.712  -2.790   1.877  0.00  0.00    -0.090 S 
BRANCH  16  17
ATOM     17  C   UNL     1       8.875  -4.113   1.932  0.00  0.00    +0.151 C 
ATOM     18  N   UNL     1       8.644  -5.385   1.829  0.00  0.00    -0.171 NA
ATOM     19  N   UNL     1       9.634  -6.340   1.885  0.00  0.00    -0.241 N 
ATOM     20  C   UNL     1      11.005  -5.816   2.076  0.00  0.00    +0.219 C 
ATOM     21  S   UNL     1      10.646  -4.013   2.137  0.00  0.00    -0.058 S 
ATOM     22  H   UNL     1       9.446  -7.289   1.807  0.00  0.00    +0.171 HD
BRANCH  20  23
ATOM     23  N   UNL     1      11.589  -6.293   3.337  0.00  0.00    -0.303 NA
ATOM     24  H   UNL     1      12.524  -5.933   3.462  0.00  0.00    +0.121 HD
ATOM     25  H   UNL     1      11.002  -6.053   4.121  0.00  0.00    +0.121 HD
ENDBRANCH  20  23
ENDBRANCH  16  17
ENDBRANCH  15  16
ENDBRANCH   8  15
TORSDOF 4
