REMARK  Name = ZINC42537687
REMARK  5 active torsions:
REMARK  status: ('A' for Active; 'I' for Inactive)
REMARK    1  A    between atoms: C_1  and  C_2
REMARK    2  A    between atoms: C_2  and  C_4
REMARK    3  A    between atoms: C_2  and  N_12
REMARK    4  A    between atoms: N_15  and  C_18
REMARK    5  A    between atoms: C_18  and  C_19
REMARK                            x       y       z     vdW  Elec       q    Type
REMARK                         _______ _______ _______ _____ _____    ______ ____
ROOT
ATOM      1  N   UNL     1      -1.322  -0.597   0.235  0.00  0.00    -0.289 NA
ATOM      2  C   UNL     1      -1.220  -2.048   0.441  0.00  0.00    +0.100 C 
ATOM      3  C   UNL     1      -2.606  -2.614   0.759  0.00  0.00    +0.100 C 
ATOM      4  N   UNL     1      -3.524  -2.305  -0.346  0.00  0.00    -0.294 NA
ATOM      5  C   UNL     1      -3.625  -0.853  -0.552  0.00  0.00    +0.100 C 
ATOM      6  C   UNL     1      -2.239  -0.288  -0.870  0.00  0.00    +0.100 C 
ENDROOT
BRANCH   1   8
ATOM      7  C   UNL     1       0.458  -0.320  -1.424  0.00  0.00    +0.034 C 
ATOM      8  C   UNL     1       0.002  -0.004   0.002  0.00  0.00    +0.140 C 
BRANCH   8   9
ATOM      9  C   UNL     1      -0.077   1.490   0.185  0.00  0.00    +0.236 C 
ATOM     10  O   UNL     1      -1.157   2.041   0.212  0.00  0.00    -0.274 OA
ATOM     11  N   UNL     1       1.053   2.213   0.319  0.00  0.00    -0.263 N 
ATOM     12  C   UNL     1       0.980   3.591   0.488  0.00  0.00    +0.164 A 
ATOM     13  N   UNL     1      -0.092   4.351   0.547  0.00  0.00    -0.233 NA
ATOM     14  C   UNL     1       0.007   5.657   0.713  0.00  0.00    +0.120 A 
ATOM     15  C   UNL     1       1.257   6.172   0.819  0.00  0.00    +0.068 A 
ATOM     16  S   UNL     1       2.241   4.689   0.674  0.00  0.00    -0.061 S 
ATOM     17  H   UNL     1       1.916   1.772   0.298  0.00  0.00    +0.157 HD
ENDBRANCH   8   9
ENDBRANCH   1   8
BRANCH   4  18
ATOM     18  C   UNL     1      -4.848  -2.897  -0.113  0.00  0.00    +0.139 C 
BRANCH  18  19
ATOM     19  C   UNL     1      -5.681  -2.774  -1.363  0.00  0.00    +0.048 A 
ATOM     20  C   UNL     1      -6.558  -1.781  -1.630  0.00  0.00    +0.115 A 
ATOM     21  N   UNL     1      -7.100  -2.041  -2.860  0.00  0.00    -0.308 N 
ATOM     22  C   UNL     1      -8.025  -1.385  -3.618  0.00  0.00    +0.092 A 
ATOM     23  C   UNL     1      -8.392  -1.867  -4.824  0.00  0.00    +0.018 A 
ATOM     24  C   UNL     1      -7.825  -3.055  -5.315  0.00  0.00    +0.005 A 
ATOM     25  C   UNL     1      -6.902  -3.719  -4.569  0.00  0.00    +0.045 A 
ATOM     26  C   UNL     1      -6.528  -3.202  -3.312  0.00  0.00    +0.115 A 
ATOM     27  N   UNL     1      -5.671  -3.623  -2.393  0.00  0.00    -0.342 N 
ATOM     28  H   UNL     1      -5.125  -4.423  -2.457  0.00  0.00    +0.167 HD
ENDBRANCH  18  19
ENDBRANCH   4  18
TORSDOF 4
