REMARK  Name = ZINC06181465
REMARK  8 active torsions:
REMARK  status: ('A' for Active; 'I' for Inactive)
REMARK    1  A    between atoms: C_1  and  C_2
REMARK    2  A    between atoms: C_7  and  N_8
REMARK    3  A    between atoms: N_8  and  S_9
REMARK    4  A    between atoms: S_9  and  C_12
REMARK    5  A    between atoms: C_19  and  C_22
REMARK    6  A    between atoms: N_24  and  C_25
REMARK    7  A    between atoms: C_30  and  C_35
REMARK    8  A    between atoms: C_32  and  C_34
REMARK                            x       y       z     vdW  Elec       q    Type
REMARK                         _______ _______ _______ _____ _____    ______ ____
ROOT
ATOM      1  C   UNL     1       1.284   2.195  -0.123  0.00  0.00    +0.109 A 
ATOM      2  C   UNL     1       0.130   1.419  -0.185  0.00  0.00    +0.031 A 
ATOM      3  C   UNL     1       0.200   0.061  -0.273  0.00  0.00    +0.028 A 
ATOM      4  C   UNL     1       1.454  -0.572  -0.302  0.00  0.00    +0.050 A 
ATOM      5  C   UNL     1       2.625   0.220  -0.239  0.00  0.00    +0.048 A 
ATOM      6  C   UNL     1       2.517   1.615  -0.149  0.00  0.00    +0.042 A 
ATOM      7  C   UNL     1       3.887  -0.416  -0.268  0.00  0.00    +0.202 A 
ATOM      8  C   UNL     1       3.912  -1.813  -0.358  0.00  0.00    +0.100 A 
ATOM      9  C   UNL     1       2.700  -2.520  -0.416  0.00  0.00    +0.100 A 
ATOM     10  N   UNL     1       1.545  -1.906  -0.389  0.00  0.00    -0.360 N 
ATOM     11  O   UNL     1       5.032   0.301  -0.209  0.00  0.00    -0.286 OA
ATOM     12  H   UNL     1       0.706  -2.448  -0.434  0.00  0.00    +0.165 HD
ENDROOT
BRANCH   8  13
ATOM     13  C   UNL     1       5.197  -2.533  -0.392  0.00  0.00    +0.249 C 
ATOM     14  O   UNL     1       6.242  -1.914  -0.342  0.00  0.00    -0.270 OA
ATOM     15  N   UNL     1       5.213  -3.878  -0.478  0.00  0.00    -0.308 N 
ATOM     16  H   UNL     1       4.379  -4.372  -0.518  0.00  0.00    +0.149 HD
BRANCH  15  17
ATOM     17  C   UNL     1       6.491  -4.595  -0.512  0.00  0.00    +0.076 C 
ATOM     18  C   UNL     1       6.983  -4.827   0.918  0.00  0.00    +0.022 C 
ATOM     19  C   UNL     1       8.317  -5.575   0.883  0.00  0.00    +0.002 C 
ATOM     20  C   UNL     1       8.128  -6.923   0.183  0.00  0.00    +0.003 C 
ATOM     21  C   UNL     1       7.636  -6.690  -1.247  0.00  0.00    -0.009 C 
ATOM     22  C   UNL     1       6.301  -5.942  -1.212  0.00  0.00    +0.009 C 
ATOM     23  C   UNL     1       5.809  -5.709  -2.642  0.00  0.00    +0.009 C 
ATOM     24  C   UNL     1       7.446  -8.037  -1.946  0.00  0.00    +0.008 C 
ENDBRANCH  15  17
ENDBRANCH   8  13
BRANCH   1  25
ATOM     25  S   UNL     1       1.148   3.948  -0.010  0.00  0.00    +0.072 S 
ATOM     26  O   UNL     1       2.364   4.483  -0.515  0.00  0.00    -0.150 OA
ATOM     27  O   UNL     1      -0.119   4.293  -0.552  0.00  0.00    -0.150 OA
BRANCH  25  28
ATOM     28  N   UNL     1       1.095   4.333   1.600  0.00  0.00    -0.216 N 
ATOM     29  H   UNL     1       0.321   4.791   1.964  0.00  0.00    +0.174 HD
BRANCH  28  36
ATOM     30  C   UNL     1       0.517   3.543   4.271  0.00  0.00    +0.046 C 
ATOM     31  C   UNL     1       1.928   3.607   3.745  0.00  0.00    -0.028 A 
ATOM     32  C   UNL     1       2.987   3.275   4.567  0.00  0.00    +0.005 A 
ATOM     33  C   UNL     1       4.282   3.332   4.085  0.00  0.00    +0.000 A 
ATOM     34  C   UNL     1       4.521   3.722   2.780  0.00  0.00    +0.002 A 
ATOM     35  C   UNL     1       3.466   4.050   1.951  0.00  0.00    +0.025 A 
ATOM     36  C   UNL     1       2.164   3.998   2.434  0.00  0.00    +0.051 A 
ENDBRANCH  28  36
ENDBRANCH  25  28
ENDBRANCH   1  25
TORSDOF 5
