REMARK  Name = ZINC06135909
REMARK  8 active torsions:
REMARK  status: ('A' for Active; 'I' for Inactive)
REMARK    1  A    between atoms: C_1  and  N_2
REMARK    2  A    between atoms: N_2  and  C_3
REMARK    3  A    between atoms: N_2  and  C_4
REMARK    4  A    between atoms: C_7  and  C_10
REMARK    5  A    between atoms: C_21  and  C_23
REMARK    6  A    between atoms: C_26  and  N_29
REMARK    7  A    between atoms: N_29  and  C_30
REMARK    8  A    between atoms: N_29  and  C_31
REMARK                            x       y       z     vdW  Elec       q    Type
REMARK                         _______ _______ _______ _____ _____    ______ ____
ROOT
ATOM      1  C   UNL     1      -0.006  -2.813  -4.924  0.00  0.00    +0.159 C 
ATOM      2  C   UNL     1       1.418  -2.882  -5.430  0.00  0.00    +0.027 C 
ATOM      3  C   UNL     1       1.688  -2.353  -6.641  0.00  0.00    +0.083 C 
ATOM      4  C   UNL     1       3.092  -2.420  -7.120  0.00  0.00    +0.042 A 
ATOM      5  C   UNL     1       3.414  -2.203  -8.452  0.00  0.00    +0.013 A 
ATOM      6  C   UNL     1       4.734  -2.277  -8.856  0.00  0.00    +0.001 A 
ATOM      7  C   UNL     1       5.728  -2.567  -7.937  0.00  0.00    +0.004 A 
ATOM      8  C   UNL     1       5.415  -2.783  -6.608  0.00  0.00    +0.046 A 
ATOM      9  C   UNL     1       4.098  -2.710  -6.189  0.00  0.00    +0.131 A 
ATOM     10  O   UNL     1       3.763  -2.912  -4.890  0.00  0.00    -0.479 OA
ATOM     11  C   UNL     1       2.502  -3.528  -4.619  0.00  0.00    +0.234 C 
ATOM     12  N   UNL     1       0.719  -1.779  -7.396  0.00  0.00    -0.213 NA
ATOM     13  C   UNL     1      -0.539  -1.677  -7.034  0.00  0.00    +0.237 C 
ATOM     14  N   UNL     1      -0.972  -2.164  -5.820  0.00  0.00    -0.208 N 
ATOM     15  N   UNL     1      -2.340  -1.893  -5.748  0.00  0.00    -0.251 N 
ATOM     16  C   UNL     1      -2.670  -1.262  -6.909  0.00  0.00    +0.203 C 
ATOM     17  N   UNL     1      -1.615  -1.144  -7.652  0.00  0.00    -0.205 NA
ATOM     18  H   UNL     1      -2.937  -2.112  -5.016  0.00  0.00    +0.171 HD
ENDROOT
BRANCH   1  22
ATOM     19  C   UNL     1       0.000  -0.696  -1.211  0.00  0.00    +0.029 A 
ATOM     20  C   UNL     1       0.013  -2.085  -1.221  0.00  0.00    +0.023 A 
ATOM     21  C   UNL     1       0.010  -2.766  -2.422  0.00  0.00    +0.007 A 
ATOM     22  C   UNL     1      -0.005  -2.066  -3.615  0.00  0.00    -0.021 A 
ATOM     23  C   UNL     1      -0.018  -0.684  -3.609  0.00  0.00    +0.007 A 
ATOM     24  C   UNL     1      -0.021   0.004  -2.411  0.00  0.00    +0.023 A 
BRANCH  19  26
ATOM     25  C   UNL     1      -0.018   1.461   0.010  0.00  0.00    +0.129 C 
ATOM     26  N   UNL     1       0.002  -0.004   0.002  0.00  0.00    -0.336 N 
ATOM     27  C   UNL     1       0.024  -0.743   1.267  0.00  0.00    +0.129 C 
ENDBRANCH  19  26
ENDBRANCH   1  22
BRANCH  11  28
ATOM     28  C   UNL     1       2.580  -4.993  -4.966  0.00  0.00    -0.003 A 
ATOM     29  C   UNL     1       3.331  -5.406  -6.051  0.00  0.00    +0.009 A 
ATOM     30  C   UNL     1       3.404  -6.747  -6.372  0.00  0.00    +0.023 A 
ATOM     31  C   UNL     1       2.721  -7.682  -5.604  0.00  0.00    +0.029 A 
ATOM     32  C   UNL     1       1.967  -7.263  -4.515  0.00  0.00    +0.023 A 
ATOM     33  C   UNL     1       1.903  -5.921  -4.196  0.00  0.00    +0.009 A 
BRANCH  31  34
ATOM     34  N   UNL     1       2.792  -9.039  -5.926  0.00  0.00    -0.336 N 
ATOM     35  C   UNL     1       3.588  -9.478  -7.075  0.00  0.00    +0.129 C 
ATOM     36  C   UNL     1       2.071 -10.023  -5.115  0.00  0.00    +0.129 C 
ENDBRANCH  31  34
ENDBRANCH  11  28
TORSDOF 4
