REMARK  Name = ZINC02950282
REMARK  4 active torsions:
REMARK  status: ('A' for Active; 'I' for Inactive)
REMARK    1  A    between atoms: C_3  and  O_17
REMARK    2  A    between atoms: C_6  and  C_7
REMARK    3  A    between atoms: O_17  and  C_18
REMARK    4  A    between atoms: C_18  and  C_20
REMARK                            x       y       z     vdW  Elec       q    Type
REMARK                         _______ _______ _______ _____ _____    ______ ____
ROOT
ATOM      1  C   UNL     1       1.333   2.382   0.985  0.00  0.00    +0.011 A 
ATOM      2  C   UNL     1       0.080   1.888   1.212  0.00  0.00    +0.047 A 
ATOM      3  C   UNL     1      -0.274   0.632   0.731  0.00  0.00    +0.132 A 
ATOM      4  C   UNL     1       0.645  -0.130   0.015  0.00  0.00    +0.047 A 
ATOM      5  C   UNL     1       1.901   0.352  -0.218  0.00  0.00    +0.011 A 
ATOM      6  C   UNL     1       2.264   1.619   0.265  0.00  0.00    -0.024 A 
ENDROOT
BRANCH   6   7
ATOM      7  C   UNL     1       3.609   2.141   0.019  0.00  0.00    +0.026 C 
ATOM      8  C   UNL     1       3.776   3.441  -0.415  0.00  0.00    +0.100 C 
ATOM      9  C   UNL     1       2.627   4.265  -0.843  0.00  0.00    +0.256 C 
ATOM     10  O   UNL     1       1.496   3.818  -0.826  0.00  0.00    -0.270 OA
ATOM     11  N   UNL     1       2.867   5.529  -1.250  0.00  0.00    -0.236 N 
ATOM     12  C   UNL     1       4.109   6.032  -1.280  0.00  0.00    +0.313 C 
ATOM     13  O   UNL     1       4.255   7.177  -1.663  0.00  0.00    -0.252 OA
ATOM     14  N   UNL     1       5.197   5.342  -0.913  0.00  0.00    -0.236 N 
ATOM     15  C   UNL     1       5.111   4.068  -0.478  0.00  0.00    +0.256 C 
ATOM     16  O   UNL     1       6.107   3.452  -0.147  0.00  0.00    -0.270 OA
ATOM     17  H   UNL     1       2.123   6.085  -1.531  0.00  0.00    +0.159 HD
ATOM     18  H   UNL     1       6.067   5.769  -0.960  0.00  0.00    +0.159 HD
ENDBRANCH   6   7
BRANCH   3  19
ATOM     19  O   UNL     1      -1.521   0.147   0.960  0.00  0.00    -0.422 OA
BRANCH  19  20
ATOM     20  C   UNL     1      -2.542   0.765   0.334  0.00  0.00    +0.344 C 
ATOM     21  O   UNL     1      -2.334   1.763  -0.328  0.00  0.00    -0.245 OA
BRANCH  20  22
ATOM     22  C   UNL     1      -3.913   0.230   0.452  0.00  0.00    +0.059 A 
ATOM     23  C   UNL     1      -4.153  -0.920   1.207  0.00  0.00    +0.016 A 
ATOM     24  C   UNL     1      -5.437  -1.412   1.319  0.00  0.00    +0.021 A 
ATOM     25  C   UNL     1      -6.484  -0.775   0.674  0.00  0.00    +0.041 A 
ATOM     26  C   UNL     1      -6.251   0.362  -0.081  0.00  0.00    +0.021 A 
ATOM     27  C   UNL     1      -4.973   0.868  -0.196  0.00  0.00    +0.016 A 
ATOM     28 CL   UNL     1      -8.096  -1.404   0.814  0.00  0.00    -0.084 Cl
ENDBRANCH  20  22
ENDBRANCH  19  20
ENDBRANCH   3  19
TORSDOF 4
