REMARK  Name = ZINC38565019
REMARK  4 active torsions:
REMARK  status: ('A' for Active; 'I' for Inactive)
REMARK    1  A    between atoms: C_12  and  C_24
REMARK    2  A    between atoms: C_14  and  C_15
REMARK    3  A    between atoms: N_26  and  C_27
REMARK    4  A    between atoms: C_27  and  C_28
REMARK                            x       y       z     vdW  Elec       q    Type
REMARK                         _______ _______ _______ _____ _____    ______ ____
ROOT
ATOM      1  C   UNL     1      -0.018   1.352   0.006  0.00  0.00    +0.001 A 
ATOM      2  C   UNL     1       1.163   2.102  -0.002  0.00  0.00    +0.002 A 
ATOM      3  C   UNL     1       2.381   1.512  -0.009  0.00  0.00    +0.026 A 
ATOM      4  C   UNL     1       2.485   0.098  -0.008  0.00  0.00    +0.044 A 
ATOM      5  N   UNL     1       3.536  -0.705  -0.057  0.00  0.00    -0.372 N 
ATOM      6  C   UNL     1       3.078  -2.062   0.134  0.00  0.00    +0.160 C 
ATOM      7  C   UNL     1       1.575  -2.032  -0.040  0.00  0.00    -0.008 C 
ATOM      8  C   UNL     1       1.233  -0.692  -0.016  0.00  0.00    +0.004 A 
ATOM      9  C   UNL     1       0.001  -0.004  -0.001  0.00  0.00    +0.010 A 
ATOM     10  C   UNL     1       0.845  -3.173  -0.348  0.00  0.00    +0.039 C 
ATOM     11  C   UNL     1       1.591  -4.267  -0.795  0.00  0.00    +0.126 C 
ATOM     12  N   UNL     1       2.895  -4.150  -1.081  0.00  0.00    -0.244 NA
ATOM     13  C   UNL     1       3.627  -3.118  -0.764  0.00  0.00    +0.076 C 
ATOM     14  H   UNL     1       4.456  -0.429  -0.198  0.00  0.00    +0.161 HD
ENDROOT
BRANCH  13  15
ATOM     15  C   UNL     1       4.995  -3.014  -1.279  0.00  0.00    +0.002 A 
ATOM     16  C   UNL     1       5.954  -2.264  -0.583  0.00  0.00    +0.013 A 
ATOM     17  C   UNL     1       7.238  -2.169  -1.069  0.00  0.00    +0.050 A 
ATOM     18  C   UNL     1       7.590  -2.814  -2.250  0.00  0.00    +0.166 A 
ATOM     19  C   UNL     1       6.640  -3.563  -2.949  0.00  0.00    +0.167 A 
ATOM     20  C   UNL     1       5.352  -3.669  -2.466  0.00  0.00    +0.059 A 
ATOM     21  O   UNL     1       7.233  -4.087  -4.062  0.00  0.00    -0.453 OA
ATOM     22  C   UNL     1       8.437  -3.320  -4.252  0.00  0.00    +0.466 C 
ATOM     23  O   UNL     1       8.772  -2.872  -2.926  0.00  0.00    -0.453 OA
ENDBRANCH  13  15
BRANCH  11  24
ATOM     24  C   UNL     1       0.928  -5.581  -0.956  0.00  0.00    +0.262 C 
ATOM     25  O   UNL     1      -0.254  -5.700  -0.699  0.00  0.00    -0.269 OA
ATOM     26  N   UNL     1       1.635  -6.644  -1.386  0.00  0.00    -0.308 N 
ATOM     27  H   UNL     1       2.579  -6.549  -1.590  0.00  0.00    +0.149 HD
BRANCH  26  28
ATOM     28  C   UNL     1       0.979  -7.945  -1.544  0.00  0.00    +0.136 C 
BRANCH  28  29
ATOM     29  C   UNL     1       1.997  -8.973  -2.041  0.00  0.00    +0.135 C 
ATOM     30  C   UNL     1       1.315 -10.348  -2.249  0.00  0.00    +0.035 C 
ATOM     31  C   UNL     1       2.261 -10.990  -3.301  0.00  0.00    +0.031 C 
ATOM     32  C   UNL     1       2.697  -9.769  -4.138  0.00  0.00    +0.160 C 
ATOM     33  O   UNL     1       2.493  -8.598  -3.336  0.00  0.00    -0.375 OA
ENDBRANCH  28  29
ENDBRANCH  26  28
ENDBRANCH  11  24
TORSDOF 4
