REMARK  Name = ZINC63376331
REMARK  8 active torsions:
REMARK  status: ('A' for Active; 'I' for Inactive)
REMARK    1  A    between atoms: C_4  and  N_7
REMARK    2  A    between atoms: C_8  and  C_10
REMARK    3  A    between atoms: C_10  and  C_11
REMARK    4  A    between atoms: C_11  and  C_12
REMARK    5  A    between atoms: N_16  and  C_20
REMARK    6  A    between atoms: C_17  and  O_19
REMARK    7  A    between atoms: C_20  and  C_21
REMARK    8  A    between atoms: C_21  and  C_22
REMARK                            x       y       z     vdW  Elec       q    Type
REMARK                         _______ _______ _______ _____ _____    ______ ____
ROOT
ATOM      1  C   UNL     1       6.045  -4.964   0.346  0.00  0.00    +0.197 C 
ATOM      2  C   UNL     1       5.826  -6.464   0.368  0.00  0.00    +0.248 C 
ATOM      3  O   UNL     1       5.315  -7.148  -0.493  0.00  0.00    -0.273 OA
ATOM      4  N   UNL     1       6.323  -6.873   1.555  0.00  0.00    -0.224 N 
ATOM      5  C   UNL     1       6.820  -5.809   2.264  0.00  0.00    +0.285 C 
ATOM      6  N   UNL     1       6.699  -4.681   1.634  0.00  0.00    -0.224 NA
ENDROOT
BRANCH   5   7
ATOM      7  O   UNL     1       7.380  -5.924   3.488  0.00  0.00    -0.481 OA
ATOM      8  H   UNL     1       7.685  -5.085   3.861  0.00  0.00    +0.295 HD
ENDBRANCH   5   7
BRANCH   1   9
ATOM      9  C   UNL     1       4.708  -4.227   0.249  0.00  0.00    +0.045 C 
BRANCH   9  10
ATOM     10  C   UNL     1       4.962  -2.721   0.153  0.00  0.00    +0.098 C 
BRANCH  10  12
ATOM     11  N   UNL     1       3.622  -0.651  -0.037  0.00  0.00    -0.285 N 
ATOM     12  C   UNL     1       3.645  -1.995   0.057  0.00  0.00    +0.217 C 
ATOM     13  O   UNL     1       2.606  -2.620   0.064  0.00  0.00    -0.275 OA
ATOM     14  H   UNL     1       4.452  -0.156  -0.121  0.00  0.00    +0.155 HD
BRANCH  11  18
ATOM     15  C   UNL     1      -0.015   1.381   0.029  0.00  0.00    +0.000 A 
ATOM     16  C   UNL     1       0.140   0.218   0.763  0.00  0.00    +0.002 A 
ATOM     17  C   UNL     1       1.344  -0.457   0.743  0.00  0.00    +0.023 A 
ATOM     18  C   UNL     1       2.400   0.031  -0.015  0.00  0.00    +0.033 A 
ATOM     19  C   UNL     1       2.241   1.198  -0.751  0.00  0.00    +0.023 A 
ATOM     20  C   UNL     1       1.034   1.870  -0.727  0.00  0.00    +0.002 A 
ENDBRANCH  11  18
ENDBRANCH  10  12
ENDBRANCH   9  10
ENDBRANCH   1   9
BRANCH   4  21
ATOM     21  C   UNL     1       6.329  -8.261   2.022  0.00  0.00    +0.122 C 
BRANCH  21  22
ATOM     22  C   UNL     1       7.624  -8.944   1.574  0.00  0.00    +0.052 C 
BRANCH  22  23
ATOM     23  C   UNL     1       7.630 -10.372   2.054  0.00  0.00    -0.040 C 
ATOM     24  C   UNL     1       7.244 -11.466   1.358  0.00  0.00    +0.002 A 
ATOM     25  C   UNL     1       6.723 -11.645  -0.002  0.00  0.00    +0.048 A 
ATOM     26  C   UNL     1       6.417 -12.893  -0.428  0.00  0.00    +0.124 A 
ATOM     27  C   UNL     1       6.587 -14.017   0.397  0.00  0.00    +0.040 A 
ATOM     28  C   UNL     1       7.060 -13.930   1.657  0.00  0.00    +0.029 A 
ATOM     29  C   UNL     1       7.414 -12.667   2.208  0.00  0.00    +0.043 A 
ATOM     30  N   UNL     1       7.886 -12.329   3.383  0.00  0.00    -0.380 N 
ATOM     31  C   UNL     1       8.076 -10.874   3.410  0.00  0.00    +0.144 C 
ATOM     32  F   UNL     1       5.936 -13.062  -1.680  0.00  0.00    -0.205 F 
ATOM     33  H   UNL     1       8.081 -12.938   4.112  0.00  0.00    +0.160 HD
ENDBRANCH  22  23
ENDBRANCH  21  22
ENDBRANCH   4  21
TORSDOF 8
