REMARK  Name = ZINC35645408
REMARK  6 active torsions:
REMARK  status: ('A' for Active; 'I' for Inactive)
REMARK    1  A    between atoms: C_1  and  C_2
REMARK    2  A    between atoms: C_11  and  O_13
REMARK    3  A    between atoms: O_13  and  C_14
REMARK    4  A    between atoms: C_16  and  O_37
REMARK    5  A    between atoms: C_18  and  O_36
REMARK    6  A    between atoms: C_27  and  C_30
REMARK                            x       y       z     vdW  Elec       q    Type
REMARK                         _______ _______ _______ _____ _____    ______ ____
ROOT
ATOM      1  C   UNL     1       0.087  -2.206   5.972  0.00  0.00    +0.339 C 
ATOM      2  C   UNL     1      -0.020  -3.172   7.153  0.00  0.00    +0.214 C 
ATOM      3  C   UNL     1       1.222  -4.071   7.199  0.00  0.00    +0.180 C 
ATOM      4  C   UNL     1       2.462  -3.181   7.270  0.00  0.00    +0.184 C 
ATOM      5  C   UNL     1       2.473  -2.256   6.046  0.00  0.00    +0.179 C 
ATOM      6  O   UNL     1       1.299  -1.450   6.068  0.00  0.00    -0.331 OA
ATOM      7  C   UNL     1       3.737  -1.397   6.100  0.00  0.00    +0.197 C 
ATOM      8  O   UNL     1       4.871  -2.269   6.182  0.00  0.00    -0.345 OA
ATOM      9  C   UNL     1       4.847  -3.164   7.296  0.00  0.00    +0.282 C 
ATOM     10  O   UNL     1       3.658  -3.960   7.262  0.00  0.00    -0.339 OA
ENDROOT
BRANCH   9  11
ATOM     11  C   UNL     1       6.052  -4.067   7.237  0.00  0.00    +0.008 A 
ATOM     12  C   UNL     1       5.886  -5.436   7.145  0.00  0.00    +0.008 A 
ATOM     13  C   UNL     1       6.991  -6.264   7.091  0.00  0.00    +0.000 A 
ATOM     14  C   UNL     1       8.263  -5.723   7.129  0.00  0.00    +0.000 A 
ATOM     15  C   UNL     1       8.429  -4.354   7.219  0.00  0.00    +0.000 A 
ATOM     16  C   UNL     1       7.324  -3.525   7.269  0.00  0.00    +0.008 A 
ENDBRANCH   9  11
BRANCH   3  17
ATOM     17  O   UNL     1       1.273  -4.879   6.021  0.00  0.00    -0.386 OA
ATOM     18  H   UNL     1       0.507  -5.458   5.908  0.00  0.00    +0.210 HD
ENDBRANCH   3  17
BRANCH   2  19
ATOM     19  O   UNL     1      -1.187  -3.982   7.001  0.00  0.00    -0.383 OA
ATOM     20  H   UNL     1      -2.013  -3.479   6.968  0.00  0.00    +0.210 HD
ENDBRANCH   2  19
BRANCH   1  21
ATOM     21  O   UNL     1       0.086  -2.948   4.751  0.00  0.00    -0.461 OA
BRANCH  21  32
ATOM     22  C   UNL     1      -0.018   1.503   0.010  0.00  0.00    +0.045 C 
ATOM     23  C   UNL     1       0.002  -0.004   0.002  0.00  0.00    -0.033 A 
ATOM     24  C   UNL     1       0.006  -0.695  -1.167  0.00  0.00    +0.096 A 
ATOM     25  C   UNL     1       0.026  -2.105  -1.149  0.00  0.00    +0.337 A 
ATOM     26  O   UNL     1       0.030  -2.712  -2.204  0.00  0.00    -0.245 OA
ATOM     27  O   UNL     1       0.041  -2.795   0.003  0.00  0.00    -0.422 OA
ATOM     28  C   UNL     1       0.038  -2.169   1.199  0.00  0.00    +0.143 A 
ATOM     29  C   UNL     1       0.024  -0.763   1.254  0.00  0.00    +0.021 A 
ATOM     30  C   UNL     1       0.026  -0.111   2.492  0.00  0.00    +0.015 A 
ATOM     31  C   UNL     1       0.046  -0.842   3.644  0.00  0.00    +0.046 A 
ATOM     32  C   UNL     1       0.066  -2.234   3.596  0.00  0.00    +0.128 A 
ATOM     33  C   UNL     1       0.053  -2.897   2.379  0.00  0.00    +0.092 A 
ENDBRANCH  21  32
ENDBRANCH   1  21
TORSDOF 5
