REMARK  Name = ZINC20355316
REMARK  11 active torsions:
REMARK  status: ('A' for Active; 'I' for Inactive)
REMARK    1  A    between atoms: C_1  and  C_2
REMARK    2  A    between atoms: C_6  and  C_8
REMARK    3  A    between atoms: C_8  and  N_9
REMARK    4  A    between atoms: C_18  and  C_19
REMARK    5  A    between atoms: C_22  and  C_25
REMARK    6  A    between atoms: N_27  and  C_28
REMARK    7  A    between atoms: C_28  and  C_29
REMARK    8  A    between atoms: C_29  and  C_30
REMARK    9  A    between atoms: C_30  and  N_31
REMARK   10  A    between atoms: C_32  and  C_40
REMARK   11  A    between atoms: C_37  and  C_39
REMARK                            x       y       z     vdW  Elec       q    Type
REMARK                         _______ _______ _______ _____ _____    ______ ____
ROOT
ATOM      1  C   UNL     1     -10.445  -0.631  -2.948  0.00  0.00    -0.021 A 
ATOM      2  C   UNL     1      -9.809   0.256  -3.826  0.00  0.00    +0.009 A 
ATOM      3  C   UNL     1      -8.608   0.809  -3.486  0.00  0.00    +0.013 A 
ATOM      4  C   UNL     1      -8.013   0.491  -2.261  0.00  0.00    +0.037 A 
ATOM      5  C   UNL     1      -8.644  -0.398  -1.386  0.00  0.00    +0.013 A 
ATOM      6  C   UNL     1      -9.848  -0.949  -1.722  0.00  0.00    +0.009 A 
ENDROOT
BRANCH   1  16
ATOM      7  N   UNL     1     -11.359  -4.451  -1.687  0.00  0.00    -0.257 N 
ATOM      8  C   UNL     1     -12.728  -4.620  -1.444  0.00  0.00    +0.079 A 
ATOM      9  C   UNL     1     -13.155  -5.496  -0.456  0.00  0.00    +0.027 A 
ATOM     10  C   UNL     1     -14.506  -5.659  -0.216  0.00  0.00    +0.002 A 
ATOM     11  C   UNL     1     -15.435  -4.951  -0.957  0.00  0.00    +0.004 A 
ATOM     12  C   UNL     1     -15.018  -4.077  -1.944  0.00  0.00    +0.048 A 
ATOM     13  C   UNL     1     -13.666  -3.908  -2.191  0.00  0.00    +0.150 A 
ATOM     14  O   UNL     1     -13.250  -3.049  -3.162  0.00  0.00    -0.449 OA
ATOM     15  C   UNL     1     -12.003  -2.514  -2.995  0.00  0.00    +0.191 C 
ATOM     16  C   UNL     1     -11.738  -1.227  -3.313  0.00  0.00    +0.059 C 
ATOM     17  C   UNL     1     -10.954  -3.409  -2.457  0.00  0.00    +0.287 C 
ATOM     18  O   UNL     1      -9.776  -3.215  -2.691  0.00  0.00    -0.266 OA
BRANCH   7  19
ATOM     19  C   UNL     1     -10.381  -5.386  -1.125  0.00  0.00    +0.149 C 
BRANCH  19  25
ATOM     20  C   UNL     1     -11.575  -9.934  -2.840  0.00  0.00    +0.044 C 
ATOM     21  C   UNL     1     -10.723  -8.693  -2.915  0.00  0.00    -0.050 A 
ATOM     22  C   UNL     1      -9.732  -8.591  -3.873  0.00  0.00    +0.003 A 
ATOM     23  C   UNL     1      -8.951  -7.453  -3.942  0.00  0.00    +0.001 A 
ATOM     24  C   UNL     1      -9.161  -6.416  -3.052  0.00  0.00    +0.005 A 
ATOM     25  C   UNL     1     -10.152  -6.517  -2.095  0.00  0.00    -0.029 A 
ATOM     26  C   UNL     1     -10.931  -7.657  -2.023  0.00  0.00    +0.008 A 
ENDBRANCH  19  25
ENDBRANCH   7  19
ENDBRANCH   1  16
BRANCH   4  27
ATOM     27  C   UNL     1      -6.714   1.090  -1.895  0.00  0.00    +0.244 C 
ATOM     28  O   UNL     1      -6.162   1.859  -2.657  0.00  0.00    -0.270 OA
ATOM     29  N   UNL     1      -6.140   0.784  -0.714  0.00  0.00    -0.311 N 
ATOM     30  H   UNL     1      -6.639   0.088  -0.024  0.00  0.00    +0.149 HD
BRANCH  29  31
ATOM     31  C   UNL     1      -4.851   1.378  -0.350  0.00  0.00    +0.102 C 
BRANCH  31  32
ATOM     32  C   UNL     1      -4.426   0.868   1.028  0.00  0.00    +0.000 C 
BRANCH  32  33
ATOM     33  C   UNL     1      -3.080   1.489   1.408  0.00  0.00    -0.077 C 
BRANCH  33  34
ATOM     34  N   UNL     1      -2.697   1.043   2.754  0.00  0.00    +0.383 N 
ATOM     35  C   UNL     1      -2.470  -0.408   2.783  0.00  0.00    -0.071 C 
ATOM     36  C   UNL     1      -1.935  -0.815   4.158  0.00  0.00    -0.016 C 
ATOM     37  C   UNL     1      -2.950  -0.416   5.234  0.00  0.00    -0.003 C 
ATOM     38  C   UNL     1      -3.204   1.091   5.150  0.00  0.00    -0.016 C 
ATOM     39  C   UNL     1      -3.703   1.443   3.747  0.00  0.00    -0.071 C 
ATOM     40  C   UNL     1      -3.940   2.951   3.653  0.00  0.00    -0.013 C 
ATOM     41  C   UNL     1      -1.451  -0.786   1.707  0.00  0.00    -0.013 C 
ATOM     42  H   UNL     1      -1.750   1.535   3.019  0.00  0.00    -0.081 HD
ENDBRANCH  33  34
ENDBRANCH  32  33
ENDBRANCH  31  32
ENDBRANCH  29  31
ENDBRANCH   4  27
TORSDOF 8
