REMARK  Name = ZINC01372645
REMARK  9 active torsions:
REMARK  status: ('A' for Active; 'I' for Inactive)
REMARK    1  A    between atoms: C_1  and  C_2
REMARK    2  A    between atoms: C_7  and  C_8
REMARK    3  A    between atoms: C_8  and  C_10
REMARK    4  A    between atoms: C_8  and  N_18
REMARK    5  A    between atoms: N_12  and  C_13
REMARK    6  A    between atoms: N_18  and  C_19
REMARK    7  A    between atoms: C_19  and  C_20
REMARK    8  A    between atoms: C_29  and  C_31
REMARK    9  A    between atoms: C_31  and  N_32
REMARK                            x       y       z     vdW  Elec       q    Type
REMARK                         _______ _______ _______ _____ _____    ______ ____
ROOT
ATOM      1  N   UNL     1      -5.749   3.819  -1.181  0.00  0.00    -0.280 N 
ATOM      2  C   UNL     1      -4.412   3.756  -1.026  0.00  0.00    +0.238 C 
ATOM      3  O   UNL     1      -3.702   3.507  -1.978  0.00  0.00    -0.274 OA
ENDROOT
BRANCH   1   4
ATOM      4  C   UNL     1      -6.354   3.475  -2.470  0.00  0.00    +0.193 C 
BRANCH   4  11
ATOM      5  C   UNL     1      -7.513   1.109  -1.283  0.00  0.00    +0.044 C 
ATOM      6  C   UNL     1      -6.437   0.978  -2.330  0.00  0.00    -0.045 A 
ATOM      7  C   UNL     1      -6.004  -0.276  -2.723  0.00  0.00    +0.004 A 
ATOM      8  C   UNL     1      -5.018  -0.396  -3.683  0.00  0.00    +0.000 A 
ATOM      9  C   UNL     1      -4.464   0.736  -4.252  0.00  0.00    +0.000 A 
ATOM     10  C   UNL     1      -4.899   1.988  -3.862  0.00  0.00    +0.006 A 
ATOM     11  C   UNL     1      -5.883   2.109  -2.898  0.00  0.00    -0.015 A 
ENDBRANCH   4  11
BRANCH   4  12
ATOM     12  C   UNL     1      -5.948   4.494  -3.504  0.00  0.00    +0.238 C 
ATOM     13  O   UNL     1      -5.137   5.351  -3.224  0.00  0.00    -0.273 OA
ATOM     14  N   UNL     1      -6.486   4.452  -4.739  0.00  0.00    -0.311 N 
ATOM     15  H   UNL     1      -7.187   3.813  -4.941  0.00  0.00    +0.149 HD
BRANCH  14  16
ATOM     16  C   UNL     1      -6.011   5.371  -5.776  0.00  0.00    +0.073 C 
ATOM     17  C   UNL     1      -6.802   6.694  -5.712  0.00  0.00    +0.022 C 
ATOM     18  C   UNL     1      -6.970   7.108  -7.196  0.00  0.00    +0.002 C 
ATOM     19  C   UNL     1      -7.206   5.751  -7.904  0.00  0.00    +0.002 C 
ATOM     20  C   UNL     1      -6.268   4.772  -7.170  0.00  0.00    +0.022 C 
ENDBRANCH  14  16
ENDBRANCH   4  12
ENDBRANCH   1   4
BRANCH   1  21
ATOM     21  C   UNL     1      -6.598   4.232  -0.060  0.00  0.00    +0.144 C 
BRANCH  21  22
ATOM     22  C   UNL     1      -6.911   5.701  -0.182  0.00  0.00    -0.026 A 
ATOM     23  C   UNL     1      -6.040   6.638   0.342  0.00  0.00    +0.009 A 
ATOM     24  C   UNL     1      -6.320   7.987   0.228  0.00  0.00    +0.050 A 
ATOM     25  C   UNL     1      -7.482   8.402  -0.402  0.00  0.00    +0.166 A 
ATOM     26  C   UNL     1      -8.362   7.459  -0.925  0.00  0.00    +0.167 A 
ATOM     27  C   UNL     1      -8.072   6.109  -0.812  0.00  0.00    +0.054 A 
ATOM     28  O   UNL     1      -9.419   8.113  -1.488  0.00  0.00    -0.453 OA
ATOM     29  C   UNL     1      -9.379   9.447  -0.946  0.00  0.00    +0.466 C 
ATOM     30  O   UNL     1      -7.987   9.648  -0.637  0.00  0.00    -0.453 OA
ENDBRANCH  21  22
ENDBRANCH   1  21
BRANCH   2  31
ATOM     31  C   UNL     1      -3.798   3.995   0.329  0.00  0.00    +0.241 C 
BRANCH  31  32
ATOM     32  N   UNL     1      -2.357   3.743   0.264  0.00  0.00    -0.235 N 
ATOM     33  C   UNL     1      -1.720   2.546   0.492  0.00  0.00    +0.090 A 
ATOM     34  C   UNL     1      -2.155   1.268   0.827  0.00  0.00    +0.029 A 
ATOM     35  C   UNL     1      -1.244   0.262   0.991  0.00  0.00    +0.002 A 
ATOM     36  C   UNL     1       0.113   0.502   0.817  0.00  0.00    +0.002 A 
ATOM     37  C   UNL     1       0.565   1.745   0.484  0.00  0.00    +0.032 A 
ATOM     38  C   UNL     1      -0.348   2.795   0.314  0.00  0.00    +0.113 A 
ATOM     39  N   UNL     1      -0.206   4.097  -0.006  0.00  0.00    -0.129 NA
ATOM     40  N   UNL     1      -1.355   4.675  -0.043  0.00  0.00    -0.064 NA
ENDBRANCH  31  32
ENDBRANCH   2  31
TORSDOF 8
