REMARK  Name = ZINC02442581
REMARK  5 active torsions:
REMARK  status: ('A' for Active; 'I' for Inactive)
REMARK    1  A    between atoms: C_1  and  C_2
REMARK    2  A    between atoms: C_5  and  N_8
REMARK    3  A    between atoms: C_9  and  C_11
REMARK    4  A    between atoms: C_11  and  C_12
REMARK    5  A    between atoms: C_20  and  C_22
REMARK                            x       y       z     vdW  Elec       q    Type
REMARK                         _______ _______ _______ _____ _____    ______ ____
ROOT
ATOM      1  C   UNL     1      -0.118  -7.269   2.100  0.00  0.00    +0.171 C 
ATOM      2  C   UNL     1      -0.355  -8.530   1.316  0.00  0.00    +0.234 C 
ATOM      3  O   UNL     1       0.511  -8.911   0.557  0.00  0.00    -0.274 OA
ATOM      4  N   UNL     1      -1.474  -9.250   1.417  0.00  0.00    -0.312 N 
ATOM      5  C   UNL     1      -2.631  -8.870   2.215  0.00  0.00    +0.123 C 
ATOM      6  C   UNL     1      -2.234  -7.880   3.311  0.00  0.00    +0.127 C 
ATOM      7  N   UNL     1      -1.386  -6.837   2.707  0.00  0.00    -0.284 N 
ATOM      8  C   UNL     1      -1.758  -5.542   2.708  0.00  0.00    +0.247 C 
ATOM      9  O   UNL     1      -1.099  -4.720   2.102  0.00  0.00    -0.270 OA
ATOM     10  H   UNL     1      -1.519 -10.085   0.925  0.00  0.00    +0.149 HD
ENDROOT
BRANCH   8  11
ATOM     11  C   UNL     1      -2.967  -5.121   3.445  0.00  0.00    +0.037 A 
ATOM     12  C   UNL     1      -3.235  -5.647   4.711  0.00  0.00    +0.016 A 
ATOM     13  C   UNL     1      -4.365  -5.251   5.394  0.00  0.00    +0.039 A 
ATOM     14  C   UNL     1      -5.235  -4.333   4.826  0.00  0.00    +0.123 A 
ATOM     15  C   UNL     1      -4.975  -3.808   3.570  0.00  0.00    +0.039 A 
ATOM     16  C   UNL     1      -3.845  -4.192   2.880  0.00  0.00    +0.016 A 
ATOM     17  F   UNL     1      -6.342  -3.949   5.500  0.00  0.00    -0.205 F 
ENDBRANCH   8  11
BRANCH   1  18
ATOM     18  C   UNL     1       0.401  -6.174   1.165  0.00  0.00    +0.128 C 
BRANCH  18  20
ATOM     19  N   UNL     1       1.512  -3.975   1.378  0.00  0.00    -0.285 N 
ATOM     20  C   UNL     1       1.092  -5.108   1.975  0.00  0.00    +0.219 C 
ATOM     21  O   UNL     1       1.271  -5.269   3.163  0.00  0.00    -0.275 OA
ATOM     22  H   UNL     1       1.301  -3.811   0.446  0.00  0.00    +0.155 HD
BRANCH  19  27
ATOM     23  C   UNL     1       4.517  -0.166   4.318  0.00  0.00    +0.044 C 
ATOM     24  C   UNL     1       3.719  -1.177   3.537  0.00  0.00    -0.050 A 
ATOM     25  C   UNL     1       3.772  -2.515   3.884  0.00  0.00    +0.005 A 
ATOM     26  C   UNL     1       3.042  -3.445   3.171  0.00  0.00    +0.023 A 
ATOM     27  C   UNL     1       2.253  -3.035   2.103  0.00  0.00    +0.033 A 
ATOM     28  C   UNL     1       2.202  -1.691   1.758  0.00  0.00    +0.023 A 
ATOM     29  C   UNL     1       2.931  -0.766   2.478  0.00  0.00    +0.005 A 
ENDBRANCH  19  27
ENDBRANCH  18  20
ENDBRANCH   1  18
TORSDOF 4
