REMARK  Name = ZINC40391766
REMARK  7 active torsions:
REMARK  status: ('A' for Active; 'I' for Inactive)
REMARK    1  A    between atoms: C_1  and  C_2
REMARK    2  A    between atoms: N_5  and  S_20
REMARK    3  A    between atoms: C_12  and  C_15
REMARK    4  A    between atoms: S_20  and  C_23
REMARK    5  A    between atoms: C_23  and  C_24
REMARK    6  A    between atoms: C_29  and  C_30
REMARK    7  A    between atoms: C_29  and  C_31
REMARK                            x       y       z     vdW  Elec       q    Type
REMARK                         _______ _______ _______ _____ _____    ______ ____
ROOT
ATOM      1  C   UNL     1      -0.134   1.515   0.086  0.00  0.00    +0.029 C 
ATOM      2  C   UNL     1      -0.056  -0.013   0.043  0.00  0.00    +0.088 C 
ATOM      3  C   UNL     1       0.526  -0.460  -1.303  0.00  0.00    +0.131 C 
ATOM      4  N   UNL     1       0.835  -1.895  -1.227  0.00  0.00    -0.178 NA
ATOM      5  C   UNL     1       1.714  -2.375  -0.152  0.00  0.00    +0.128 C 
ATOM      6  C   UNL     1       1.132  -1.927   1.194  0.00  0.00    +0.124 C 
ATOM      7  N   UNL     1       0.820  -0.492   1.121  0.00  0.00    -0.308 N 
ATOM      8  C   UNL     1       1.349   0.396   2.052  0.00  0.00    +0.157 A 
ATOM      9  C   UNL     1       0.664   0.640   3.241  0.00  0.00    +0.164 A 
ATOM     10  C   UNL     1       1.203   1.526   4.157  0.00  0.00    +0.055 A 
ATOM     11  C   UNL     1       2.412   2.140   3.854  0.00  0.00    +0.076 A 
ATOM     12  C   UNL     1       3.036   1.851   2.658  0.00  0.00    +0.125 A 
ATOM     13  N   UNL     1       2.502   0.998   1.804  0.00  0.00    -0.237 NA
ATOM     14  F   UNL     1      -0.510   0.021   3.494  0.00  0.00    -0.202 F 
ENDROOT
BRANCH  11  15
ATOM     15  C   UNL     1       3.036   3.112   4.822  0.00  0.00    +0.419 C 
ATOM     16  F   UNL     1       3.878   2.420   5.700  0.00  0.00    -0.166 F 
ATOM     17  F   UNL     1       3.780   4.062   4.114  0.00  0.00    -0.166 F 
ATOM     18  F   UNL     1       2.030   3.755   5.551  0.00  0.00    -0.166 F 
ENDBRANCH  11  15
BRANCH   4  19
ATOM     19  S   UNL     1       0.203  -2.953  -2.334  0.00  0.00    +0.033 S 
ATOM     20  O   UNL     1       0.164  -4.203  -1.660  0.00  0.00    -0.158 OA
ATOM     21  O   UNL     1      -0.995  -2.334  -2.783  0.00  0.00    -0.158 OA
BRANCH  19  22
ATOM     22  C   UNL     1       1.421  -3.005  -3.677  0.00  0.00    +0.198 C 
BRANCH  22  23
ATOM     23  C   UNL     1       0.936  -3.962  -4.769  0.00  0.00    +0.051 C 
ATOM     24  C   UNL     1      -0.401  -3.575  -5.474  0.00  0.00    +0.014 C 
ATOM     25  C   UNL     1      -0.388  -4.371  -6.799  0.00  0.00    +0.005 C 
ATOM     26  C   UNL     1       0.960  -5.155  -6.777  0.00  0.00    +0.001 C 
ATOM     27  C   UNL     1       1.875  -4.130  -6.018  0.00  0.00    -0.020 C 
ATOM     28  C   UNL     1       3.228  -4.738  -5.641  0.00  0.00    +0.012 C 
ATOM     29  C   UNL     1       2.038  -2.821  -6.794  0.00  0.00    +0.012 C 
ATOM     30  C   UNL     1       0.754  -6.254  -5.686  0.00  0.00    +0.069 C 
ATOM     31  C   UNL     1       0.765  -5.442  -4.347  0.00  0.00    +0.178 C 
ATOM     32  O   UNL     1      -0.460  -5.628  -3.632  0.00  0.00    -0.346 OA
ATOM     33  C   UNL     1      -0.252  -6.834  -2.864  0.00  0.00    +0.191 C 
ATOM     34  C   UNL     1       1.280  -6.978  -2.752  0.00  0.00    +0.191 C 
ATOM     35  O   UNL     1       1.817  -5.842  -3.465  0.00  0.00    -0.346 OA
ENDBRANCH  22  23
ENDBRANCH  19  22
ENDBRANCH   4  19
TORSDOF 4
