REMARK  Name = ZINC39670673
REMARK  7 active torsions:
REMARK  status: ('A' for Active; 'I' for Inactive)
REMARK    1  A    between atoms: C_1  and  C_2
REMARK    2  A    between atoms: C_9  and  C_11
REMARK    3  A    between atoms: C_11  and  N_12
REMARK    4  A    between atoms: C_13  and  C_15
REMARK    5  A    between atoms: C_26  and  C_28
REMARK    6  A    between atoms: C_28  and  C_29
REMARK    7  A    between atoms: C_29  and  C_30
REMARK                            x       y       z     vdW  Elec       q    Type
REMARK                         _______ _______ _______ _____ _____    ______ ____
ROOT
ATOM      1  C   UNL     1      -2.943  -1.768   7.103  0.00  0.00    +0.100 C 
ATOM      2  C   UNL     1      -3.584  -3.056   6.540  0.00  0.00    +0.121 C 
ATOM      3  N   UNL     1      -3.357  -4.077   7.589  0.00  0.00    -0.300 N 
ATOM      4  C   UNL     1      -3.570  -3.350   8.863  0.00  0.00    +0.115 C 
ATOM      5  C   UNL     1      -2.939  -1.963   8.628  0.00  0.00    -0.004 C 
ATOM      6  C   UNL     1      -1.509  -1.938   9.160  0.00  0.00    -0.010 C 
ATOM      7  C   UNL     1      -1.534  -2.078  10.684  0.00  0.00    -0.082 C 
ATOM      8  N   UNL     1      -2.313  -0.977  11.265  0.00  0.00    +0.379 N 
ATOM      9  C   UNL     1      -3.709  -1.062  10.821  0.00  0.00    -0.082 C 
ATOM     10  C   UNL     1      -3.776  -0.880   9.302  0.00  0.00    -0.010 C 
ATOM     11  C   UNL     1      -3.031  -5.374   7.423  0.00  0.00    +0.216 C 
ATOM     12  O   UNL     1      -2.878  -6.090   8.390  0.00  0.00    -0.276 OA
ATOM     13  H   UNL     1      -2.277  -1.036  12.272  0.00  0.00    -0.086 HD
ATOM     14  H   UNL     1      -1.920  -0.096  10.969  0.00  0.00    -0.086 HD
ENDROOT
BRANCH   1  16
ATOM     15  N   UNL     1      -0.995  -0.387   6.456  0.00  0.00    -0.309 N 
ATOM     16  C   UNL     1      -1.535  -1.615   6.589  0.00  0.00    +0.219 C 
ATOM     17  O   UNL     1      -0.886  -2.597   6.296  0.00  0.00    -0.275 OA
ATOM     18  H   UNL     1      -1.514   0.399   6.691  0.00  0.00    +0.149 HD
BRANCH  15  19
ATOM     19  C   UNL     1       0.374  -0.239   5.957  0.00  0.00    +0.159 C 
BRANCH  19  28
ATOM     20  C   UNL     1       2.723   4.225   8.339  0.00  0.00    +0.064 C 
ATOM     21  C   UNL     1       2.078   4.313   6.980  0.00  0.00    +0.022 A 
ATOM     22  C   UNL     1       2.070   5.489   6.319  0.00  0.00    +0.021 A 
ATOM     23  C   UNL     1       1.473   5.585   5.051  0.00  0.00    +0.005 A 
ATOM     24  C   UNL     1       0.901   4.486   4.490  0.00  0.00    +0.045 A 
ATOM     25  C   UNL     1       0.918   3.265   5.194  0.00  0.00    +0.116 A 
ATOM     26  N   UNL     1       1.513   3.201   6.427  0.00  0.00    -0.305 N 
ATOM     27  C   UNL     1       1.387   1.911   6.866  0.00  0.00    +0.115 A 
ATOM     28  C   UNL     1       0.733   1.224   5.903  0.00  0.00    +0.051 A 
ATOM     29  N   UNL     1       0.449   2.060   4.901  0.00  0.00    -0.342 N 
ATOM     30  H   UNL     1      -0.017   1.821   4.085  0.00  0.00    +0.167 HD
ENDBRANCH  19  28
ENDBRANCH  15  19
ENDBRANCH   1  16
BRANCH  11  31
ATOM     31  C   UNL     1      -2.856  -5.935   6.035  0.00  0.00    +0.096 C 
BRANCH  31  32
ATOM     32  C   UNL     1      -2.490  -7.418   6.127  0.00  0.00    +0.013 C 
BRANCH  32  33
ATOM     33  C   UNL     1      -2.312  -7.987   4.718  0.00  0.00    -0.011 C 
ATOM     34  C   UNL     1      -3.669  -8.017   3.985  0.00  0.00    +0.003 C 
ATOM     35  C   UNL     1      -3.624  -9.325   3.156  0.00  0.00    +0.000 C 
ATOM     36  C   UNL     1      -2.899 -10.308   4.108  0.00  0.00    +0.000 C 
ATOM     37  C   UNL     1      -1.822  -9.444   4.796  0.00  0.00    +0.003 C 
ENDBRANCH  32  33
ENDBRANCH  31  32
ENDBRANCH  11  31
TORSDOF 6
