REMARK  Name = ZINC36347976
REMARK  9 active torsions:
REMARK  status: ('A' for Active; 'I' for Inactive)
REMARK    1  A    between atoms: C_1  and  O_2
REMARK    2  A    between atoms: O_2  and  C_3
REMARK    3  A    between atoms: C_7  and  C_11
REMARK    4  A    between atoms: C_8  and  O_9
REMARK    5  A    between atoms: O_9  and  C_10
REMARK    6  A    between atoms: N_21  and  C_22
REMARK    7  A    between atoms: C_22  and  C_23
REMARK    8  A    between atoms: C_27  and  O_30
REMARK    9  A    between atoms: C_28  and  O_29
REMARK                            x       y       z     vdW  Elec       q    Type
REMARK                         _______ _______ _______ _____ _____    ______ ____
ROOT
ATOM      1  C   UNL     1       1.350  -4.039  -2.781  0.00  0.00    +0.014 C 
ATOM      2  C   UNL     1       0.068  -4.498  -3.432  0.00  0.00    +0.010 A 
ATOM      3  C   UNL     1      -1.157  -3.973  -3.236  0.00  0.00    +0.021 A 
ATOM      4  C   UNL     1      -2.063  -4.709  -4.026  0.00  0.00    +0.019 A 
ATOM      5  C   UNL     1      -1.355  -5.655  -4.677  0.00  0.00    +0.086 A 
ATOM      6  N   UNL     1      -0.046  -5.525  -4.325  0.00  0.00    -0.352 N 
ATOM      7  C   UNL     1       1.074  -6.334  -4.820  0.00  0.00    +0.119 C 
ATOM      8  C   UNL     1       1.948  -6.753  -3.634  0.00  0.00    +0.003 C 
ATOM      9  C   UNL     1       3.001  -5.684  -3.369  0.00  0.00    -0.075 C 
ATOM     10  N   UNL     1       2.482  -4.347  -3.665  0.00  0.00    +0.391 N 
ATOM     11  H   UNL     1       2.176  -4.313  -4.626  0.00  0.00    -0.080 HD
ENDROOT
BRANCH   1  16
ATOM     12  C   UNL     1       1.264  -0.682  -1.033  0.00  0.00    +0.162 A 
ATOM     13  C   UNL     1       1.174   0.183  -2.111  0.00  0.00    +0.049 A 
ATOM     14  C   UNL     1       1.143  -0.319  -3.399  0.00  0.00    +0.004 A 
ATOM     15  C   UNL     1       1.200  -1.683  -3.614  0.00  0.00    +0.006 A 
ATOM     16  C   UNL     1       1.289  -2.552  -2.542  0.00  0.00    -0.010 A 
ATOM     17  C   UNL     1       1.327  -2.055  -1.249  0.00  0.00    +0.163 A 
BRANCH  12  19
ATOM     18  C   UNL     1       1.226   1.230   0.382  0.00  0.00    +0.277 C 
ATOM     19  O   UNL     1       1.295  -0.190   0.235  0.00  0.00    -0.491 OA
ENDBRANCH  12  19
BRANCH  17  20
ATOM     20  O   UNL     1       1.420  -2.908  -0.194  0.00  0.00    -0.491 OA
ATOM     21  C   UNL     1       0.198  -3.445   0.316  0.00  0.00    +0.277 C 
ENDBRANCH  17  20
ENDBRANCH   1  16
BRANCH  10  22
ATOM     22  C   UNL     1       3.546  -3.355  -3.460  0.00  0.00    -0.038 C 
BRANCH  22  23
ATOM     23  C   UNL     1       4.674  -3.621  -4.423  0.00  0.00    -0.019 A 
ATOM     24  C   UNL     1       5.803  -4.296  -3.995  0.00  0.00    +0.005 A 
ATOM     25  C   UNL     1       6.840  -4.542  -4.875  0.00  0.00    +0.004 A 
ATOM     26  C   UNL     1       6.753  -4.114  -6.188  0.00  0.00    +0.049 A 
ATOM     27  C   UNL     1       5.625  -3.438  -6.622  0.00  0.00    +0.158 A 
ATOM     28  C   UNL     1       4.578  -3.195  -5.737  0.00  0.00    +0.160 A 
BRANCH  28  29
ATOM     29  O   UNL     1       3.466  -2.537  -6.160  0.00  0.00    -0.503 OA
ATOM     30  H   UNL     1       3.516  -1.576  -6.061  0.00  0.00    +0.292 HD
ENDBRANCH  28  29
BRANCH  27  31
ATOM     31  O   UNL     1       5.538  -3.016  -7.912  0.00  0.00    -0.503 OA
ATOM     32  H   UNL     1       5.139  -3.662  -8.511  0.00  0.00    +0.292 HD
ENDBRANCH  27  31
ENDBRANCH  22  23
ENDBRANCH  10  22
TORSDOF 7
