REMARK  Name = ZINC00407988
REMARK  4 active torsions:
REMARK  status: ('A' for Active; 'I' for Inactive)
REMARK    1  A    between atoms: C_1  and  C_2
REMARK    2  A    between atoms: C_7  and  C_8
REMARK    3  A    between atoms: C_21  and  N_25
REMARK    4  A    between atoms: C_22  and  C_23
REMARK                            x       y       z     vdW  Elec       q    Type
REMARK                         _______ _______ _______ _____ _____    ______ ____
ROOT
ATOM      1  C   UNL     1      -0.137   5.314  -0.413  0.00  0.00    +0.098 C 
ATOM      2  C   UNL     1      -0.873   5.962   0.731  0.00  0.00    +0.008 A 
ATOM      3  C   UNL     1      -0.214   6.131   1.950  0.00  0.00    +0.009 A 
ATOM      4  C   UNL     1      -0.831   6.710   3.014  0.00  0.00    +0.009 A 
ATOM      5  C   UNL     1      -2.160   7.150   2.894  0.00  0.00    -0.014 A 
ATOM      6  C   UNL     1      -2.832   7.750   3.973  0.00  0.00    +0.008 A 
ATOM      7  C   UNL     1      -4.119   8.165   3.818  0.00  0.00    +0.001 A 
ATOM      8  C   UNL     1      -4.783   8.003   2.603  0.00  0.00    +0.001 A 
ATOM      9  C   UNL     1      -4.163   7.424   1.538  0.00  0.00    +0.012 A 
ATOM     10  C   UNL     1      -2.836   6.984   1.661  0.00  0.00    +0.025 A 
ATOM     11  C   UNL     1      -2.164   6.378   0.577  0.00  0.00    +0.142 A 
ATOM     12  O   UNL     1      -2.817   6.219  -0.600  0.00  0.00    -0.440 OA
ATOM     13  C   UNL     1      -2.122   6.027  -1.734  0.00  0.00    +0.199 C 
ATOM     14  C   UNL     1      -0.837   5.597  -1.712  0.00  0.00    +0.098 C 
ENDROOT
BRANCH   1  21
ATOM     15  C   UNL     1       2.402   4.015   0.052  0.00  0.00    +0.044 C 
ATOM     16  C   UNL     1       1.133   3.203   0.033  0.00  0.00    -0.046 A 
ATOM     17  C   UNL     1       1.183   1.837   0.238  0.00  0.00    +0.003 A 
ATOM     18  C   UNL     1       0.019   1.092   0.221  0.00  0.00    +0.000 A 
ATOM     19  C   UNL     1      -1.195   1.712  -0.008  0.00  0.00    +0.000 A 
ATOM     20  C   UNL     1      -1.246   3.079  -0.207  0.00  0.00    +0.005 A 
ATOM     21  C   UNL     1      -0.082   3.824  -0.190  0.00  0.00    -0.032 A 
ENDBRANCH   1  21
BRANCH  13  22
ATOM     22  N   UNL     1      -2.727   6.273  -2.941  0.00  0.00    -0.328 N 
ATOM     23  H   UNL     1      -3.646   6.582  -2.969  0.00  0.00    +0.145 HD
ATOM     24  H   UNL     1      -2.235   6.138  -3.766  0.00  0.00    +0.145 HD
ENDBRANCH  13  22
BRANCH  14  25
ATOM     25  C   UNL     1      -0.136   5.407  -2.946  0.00  0.00    +0.101 C 
ATOM     26  N   UNL     1       0.420   5.257  -3.925  0.00  0.00    -0.191 NA
ENDBRANCH  14  25
TORSDOF 3
