REMARK  Name = ZINC33593952
REMARK  10 active torsions:
REMARK  status: ('A' for Active; 'I' for Inactive)
REMARK    1  A    between atoms: C_1  and  C_2
REMARK    2  A    between atoms: C_7  and  N_8
REMARK    3  A    between atoms: C_13  and  C_32
REMARK    4  A    between atoms: C_16  and  C_21
REMARK    5  A    between atoms: C_16  and  C_29
REMARK    6  A    between atoms: C_21  and  C_22
REMARK    7  A    between atoms: C_25  and  O_28
REMARK    8  A    between atoms: C_35  and  N_38
REMARK    9  A    between atoms: N_38  and  C_39
REMARK   10  A    between atoms: N_38  and  C_40
REMARK                            x       y       z     vdW  Elec       q    Type
REMARK                         _______ _______ _______ _____ _____    ______ ____
ROOT
ATOM      1  N   UNL     1      -0.298  -0.083   2.475  0.00  0.00    -0.210 N 
ATOM      2  C   UNL     1      -1.409   0.167   3.243  0.00  0.00    +0.229 C 
ATOM      3  O   UNL     1      -2.512  -0.323   3.132  0.00  0.00    -0.275 OA
ATOM      4  C   UNL     1      -0.969   1.144   4.212  0.00  0.00    +0.077 C 
ATOM      5  C   UNL     1      -1.365   1.697   5.514  0.00  0.00    -0.027 C 
ATOM      6  N   UNL     1      -0.116   2.340   6.039  0.00  0.00    +0.396 N 
ATOM      7  C   UNL     1       0.991   2.027   5.077  0.00  0.00    +0.052 C 
ATOM      8  C   UNL     1       0.522   0.687   4.471  0.00  0.00    +0.086 C 
ATOM      9  C   UNL     1       0.850   0.405   3.031  0.00  0.00    +0.229 C 
ATOM     10  O   UNL     1       1.915   0.577   2.478  0.00  0.00    -0.275 OA
ATOM     11  H   UNL     1      -0.244   3.339   6.101  0.00  0.00    -0.083 HD
ATOM     12  H   UNL     1       0.106   1.965   6.949  0.00  0.00    -0.083 HD
ENDROOT
BRANCH   1  19
ATOM     13  C   UNL     1      -0.672   1.428   0.092  0.00  0.00    +0.045 C 
ATOM     14  C   UNL     1      -0.519  -0.071   0.068  0.00  0.00    -0.029 A 
ATOM     15  C   UNL     1      -0.552  -0.750  -1.135  0.00  0.00    +0.005 A 
ATOM     16  C   UNL     1      -0.410  -2.125  -1.158  0.00  0.00    +0.000 A 
ATOM     17  C   UNL     1      -0.236  -2.825   0.022  0.00  0.00    +0.002 A 
ATOM     18  C   UNL     1      -0.202  -2.151   1.228  0.00  0.00    +0.024 A 
ATOM     19  C   UNL     1      -0.338  -0.770   1.253  0.00  0.00    +0.047 A 
ENDBRANCH   1  19
BRANCH   5  20
ATOM     20  C   UNL     1      -1.823   0.598   6.437  0.00  0.00    -0.060 A 
ATOM     21  C   UNL     1      -0.891  -0.174   7.107  0.00  0.00    +0.004 A 
ATOM     22  C   UNL     1      -1.307  -1.183   7.953  0.00  0.00    +0.023 A 
ATOM     23  C   UNL     1      -2.663  -1.422   8.132  0.00  0.00    +0.029 A 
ATOM     24  C   UNL     1      -3.597  -0.645   7.458  0.00  0.00    +0.023 A 
ATOM     25  C   UNL     1      -3.174   0.366   6.617  0.00  0.00    +0.004 A 
BRANCH  23  26
ATOM     26  N   UNL     1      -3.088  -2.442   8.987  0.00  0.00    -0.336 N 
ATOM     27  C   UNL     1      -2.109  -3.178   9.791  0.00  0.00    +0.129 C 
ATOM     28  C   UNL     1      -4.511  -2.775   9.079  0.00  0.00    +0.129 C 
ENDBRANCH  23  26
ENDBRANCH   5  20
BRANCH   7  29
ATOM     29  C   UNL     1       2.297   1.847   5.806  0.00  0.00    +0.347 C 
ATOM     30  O   UNL     1       2.344   1.987   7.017  0.00  0.00    -0.248 OA
ATOM     31  O   UNL     1       3.307   1.560   5.186  0.00  0.00    -0.248 OA
ENDBRANCH   7  29
BRANCH   7  32
ATOM     32  C   UNL     1       1.109   3.120   4.013  0.00  0.00    +0.035 C 
BRANCH  32  33
ATOM     33  C   UNL     1       1.310   4.455   4.683  0.00  0.00    -0.048 A 
ATOM     34  C   UNL     1       0.215   5.225   5.029  0.00  0.00    +0.007 A 
ATOM     35  C   UNL     1       0.396   6.449   5.644  0.00  0.00    +0.045 A 
ATOM     36  C   UNL     1       1.678   6.905   5.914  0.00  0.00    +0.117 A 
ATOM     37  C   UNL     1       2.775   6.130   5.566  0.00  0.00    +0.045 A 
ATOM     38  C   UNL     1       2.588   4.905   4.956  0.00  0.00    +0.007 A 
BRANCH  36  39
ATOM     39  O   UNL     1       1.859   8.109   6.517  0.00  0.00    -0.507 OA
ATOM     40  H   UNL     1       1.885   8.065   7.483  0.00  0.00    +0.292 HD
ENDBRANCH  36  39
ENDBRANCH  32  33
ENDBRANCH   7  32
TORSDOF 7
