REMARK  Name = ZINC47147006
REMARK  4 active torsions:
REMARK  status: ('A' for Active; 'I' for Inactive)
REMARK    1  A    between atoms: C_4  and  N_11
REMARK    2  A    between atoms: C_5  and  C_7
REMARK    3  A    between atoms: C_16  and  C_30
REMARK    4  A    between atoms: C_33  and  O_36
REMARK                            x       y       z     vdW  Elec       q    Type
REMARK                         _______ _______ _______ _____ _____    ______ ____
ROOT
ATOM      1  N   UNL     1       3.624  -0.652  -0.037  0.00  0.00    -0.209 N 
ATOM      2  C   UNL     1       4.264  -1.004  -1.183  0.00  0.00    +0.232 C 
ATOM      3  O   UNL     1       3.812  -0.980  -2.308  0.00  0.00    -0.274 OA
ATOM      4  C   UNL     1       5.641  -1.427  -0.776  0.00  0.00    +0.110 C 
ATOM      5  C   UNL     1       6.343  -2.505  -1.562  0.00  0.00    +0.072 C 
ATOM      6  C   UNL     1       7.650  -2.813  -0.886  0.00  0.00    +0.033 A 
ATOM      7  C   UNL     1       8.038  -2.569   0.385  0.00  0.00    +0.088 A 
ATOM      8  N   UNL     1       9.319  -2.961   0.686  0.00  0.00    -0.311 N 
ATOM      9  H   UNL     1       9.675  -2.811   1.575  0.00  0.00    +0.170 HD
ATOM     10  C   UNL     1      10.079  -3.555  -0.254  0.00  0.00    +0.289 A 
ATOM     11  O   UNL     1      11.223  -3.963  -0.153  0.00  0.00    -0.260 OA
ATOM     12  S   UNL     1       9.071  -3.597  -1.600  0.00  0.00    -0.030 S 
ATOM     13  S   UNL     1       6.928  -1.805   1.558  0.00  0.00    -0.093 S 
ATOM     14  C   UNL     1       5.357  -1.982   0.652  0.00  0.00    +0.152 C 
ATOM     15  C   UNL     1       4.285  -1.020   1.090  0.00  0.00    +0.240 C 
ATOM     16  O   UNL     1       4.056  -0.650   2.221  0.00  0.00    -0.274 OA
ENDROOT
BRANCH   1  20
ATOM     17  C   UNL     1      -0.017   1.378   0.010  0.00  0.00    +0.001 A 
ATOM     18  C   UNL     1       1.170   2.089   0.002  0.00  0.00    +0.002 A 
ATOM     19  C   UNL     1       2.377   1.419  -0.013  0.00  0.00    +0.024 A 
ATOM     20  C   UNL     1       2.399   0.030  -0.021  0.00  0.00    +0.056 A 
ATOM     21  C   UNL     1       1.207  -0.680  -0.013  0.00  0.00    +0.077 A 
ATOM     22  C   UNL     1       0.002  -0.004   0.002  0.00  0.00    +0.014 A 
BRANCH  21  23
ATOM     23  C   UNL     1       1.226  -2.187  -0.022  0.00  0.00    +0.419 C 
ATOM     24  F   UNL     1      -0.086  -2.670  -0.011  0.00  0.00    -0.166 F 
ATOM     25  F   UNL     1       1.880  -2.638  -1.173  0.00  0.00    -0.166 F 
ATOM     26  F   UNL     1       1.903  -2.651   1.111  0.00  0.00    -0.166 F 
ENDBRANCH  21  23
ENDBRANCH   1  20
BRANCH   5  27
ATOM     27  C   UNL     1       6.595  -2.025  -2.967  0.00  0.00    -0.038 A 
ATOM     28  C   UNL     1       7.373  -0.902  -3.184  0.00  0.00    +0.008 A 
ATOM     29  C   UNL     1       7.606  -0.460  -4.471  0.00  0.00    +0.045 A 
ATOM     30  C   UNL     1       7.059  -1.142  -5.548  0.00  0.00    +0.117 A 
ATOM     31  C   UNL     1       6.279  -2.268  -5.328  0.00  0.00    +0.045 A 
ATOM     32  C   UNL     1       6.053  -2.710  -4.039  0.00  0.00    +0.008 A 
BRANCH  30  33
ATOM     33  O   UNL     1       7.285  -0.708  -6.816  0.00  0.00    -0.507 OA
ATOM     34  H   UNL     1       8.072  -1.091  -7.227  0.00  0.00    +0.292 HD
ENDBRANCH  30  33
ENDBRANCH   5  27
TORSDOF 4
