REMARK  Name = ZINC52565403
REMARK  9 active torsions:
REMARK  status: ('A' for Active; 'I' for Inactive)
REMARK    1  A    between atoms: C_5  and  O_7
REMARK    2  A    between atoms: O_7  and  C_8
REMARK    3  A    between atoms: C_8  and  C_9
REMARK    4  A    between atoms: C_10  and  C_26
REMARK    5  A    between atoms: C_11  and  C_17
REMARK    6  A    between atoms: C_26  and  O_28
REMARK    7  A    between atoms: O_28  and  C_29
REMARK    8  A    between atoms: C_29  and  C_30
REMARK    9  A    between atoms: C_34  and  C_36
REMARK                            x       y       z     vdW  Elec       q    Type
REMARK                         _______ _______ _______ _____ _____    ______ ____
ROOT
ATOM      1  C   UNL     1       0.073  -4.222  -0.062  0.00  0.00    +0.061 C 
ATOM      2  C   UNL     1      -0.103  -4.921   1.079  0.00  0.00    +0.081 C 
ATOM      3  C   UNL     1       0.266  -6.391   1.070  0.00  0.00    +0.142 C 
ATOM      4  N   UNL     1       0.790  -6.939  -0.192  0.00  0.00    -0.288 N 
ATOM      5  C   UNL     1       0.910  -6.112  -1.250  0.00  0.00    +0.304 C 
ATOM      6  O   UNL     1       1.342  -6.555  -2.296  0.00  0.00    -0.252 OA
ATOM      7  N   UNL     1       0.562  -4.821  -1.188  0.00  0.00    -0.269 N 
ATOM      8  H   UNL     1       1.045  -7.873  -0.260  0.00  0.00    +0.151 HD
ATOM      9  H   UNL     1       0.668  -4.279  -1.985  0.00  0.00    +0.156 HD
ENDROOT
BRANCH   3  10
ATOM     10  C   UNL     1      -0.962  -7.181   1.444  0.00  0.00    -0.017 C 
ATOM     11  C   UNL     1      -1.106  -8.007   2.503  0.00  0.00    +0.004 A 
ATOM     12  C   UNL     1      -0.220  -8.421   3.597  0.00  0.00    +0.030 A 
ATOM     13  C   UNL     1      -0.694  -9.289   4.521  0.00  0.00    +0.111 A 
ATOM     14  N   UNL     1      -1.925  -9.788   4.490  0.00  0.00    -0.261 NA
ATOM     15  C   UNL     1      -2.813  -9.506   3.580  0.00  0.00    +0.136 A 
ATOM     16  C   UNL     1      -2.474  -8.577   2.492  0.00  0.00    +0.061 A 
ATOM     17  N   UNL     1      -3.147  -8.123   1.469  0.00  0.00    -0.379 N 
ATOM     18  C   UNL     1      -2.287  -7.205   0.713  0.00  0.00    +0.147 C 
ATOM     19  H   UNL     1      -4.063  -8.352   1.248  0.00  0.00    +0.160 HD
ENDBRANCH   3  10
BRANCH   2  20
ATOM     20  C   UNL     1      -0.615  -4.303   2.244  0.00  0.00    +0.339 C 
ATOM     21  O   UNL     1       0.139  -3.977   3.142  0.00  0.00    -0.245 OA
BRANCH  20  22
ATOM     22  O   UNL     1      -1.940  -4.075   2.360  0.00  0.00    -0.457 OA
BRANCH  22  23
ATOM     23  C   UNL     1      -2.387  -3.447   3.564  0.00  0.00    +0.268 C 
BRANCH  23  24
ATOM     24  C   UNL     1      -3.884  -3.275   3.514  0.00  0.00    -0.009 A 
ATOM     25  C   UNL     1      -4.428  -2.122   2.977  0.00  0.00    +0.007 A 
ATOM     26  C   UNL     1      -5.801  -1.955   2.928  0.00  0.00    +0.002 A 
ATOM     27  C   UNL     1      -6.636  -2.939   3.414  0.00  0.00    +0.019 A 
ATOM     28  C   UNL     1      -6.093  -4.106   3.957  0.00  0.00    +0.052 A 
ATOM     29  C   UNL     1      -4.707  -4.269   3.999  0.00  0.00    +0.025 A 
BRANCH  28  30
ATOM     30  C   UNL     1      -6.954  -5.131   4.464  0.00  0.00    +0.099 C 
ATOM     31  N   UNL     1      -7.638  -5.945   4.866  0.00  0.00    -0.191 NA
ENDBRANCH  28  30
ENDBRANCH  23  24
ENDBRANCH  22  23
ENDBRANCH  20  22
ENDBRANCH   2  20
BRANCH   1  32
ATOM     32  C   UNL     1      -0.282  -2.757  -0.097  0.00  0.00    +0.280 C 
BRANCH  32  33
ATOM     33  O   UNL     1       0.903  -1.985  -0.301  0.00  0.00    -0.485 OA
BRANCH  33  38
ATOM     34  C   UNL     1      -0.645   1.307  -0.278  0.00  0.00    +0.004 A 
ATOM     35  C   UNL     1       0.461   2.114  -0.473  0.00  0.00    +0.002 A 
ATOM     36  C   UNL     1       1.715   1.550  -0.612  0.00  0.00    +0.023 A 
ATOM     37  C   UNL     1       1.867   0.176  -0.555  0.00  0.00    +0.083 A 
ATOM     38  C   UNL     1       0.757  -0.635  -0.358  0.00  0.00    +0.139 A 
ATOM     39  C   UNL     1      -0.500  -0.065  -0.220  0.00  0.00    +0.047 A 
ATOM     40 CL   UNL     1       3.442  -0.532  -0.730  0.00  0.00    -0.080 Cl
ENDBRANCH  33  38
ENDBRANCH  32  33
ENDBRANCH   1  32
TORSDOF 9
