REMARK  Name = ZINC62162439
REMARK  5 active torsions:
REMARK  status: ('A' for Active; 'I' for Inactive)
REMARK    1  A    between atoms: C_1  and  C_2
REMARK    2  A    between atoms: C_6  and  N_8
REMARK    3  A    between atoms: C_11  and  C_14
REMARK    4  A    between atoms: C_18  and  C_25
REMARK    5  A    between atoms: C_21  and  C_24
REMARK                            x       y       z     vdW  Elec       q    Type
REMARK                         _______ _______ _______ _____ _____    ______ ____
ROOT
ATOM      1  N   UNL     1      -0.945  -2.714   2.324  0.00  0.00    -0.279 N 
ATOM      2  C   UNL     1      -0.643  -4.064   2.413  0.00  0.00    +0.164 A 
ATOM      3  N   UNL     1      -0.636  -4.848   3.472  0.00  0.00    -0.220 NA
ATOM      4  C   UNL     1      -0.318  -6.140   3.375  0.00  0.00    +0.135 A 
ATOM      5  C   UNL     1       0.007  -6.654   2.144  0.00  0.00    +0.081 A 
ATOM      6  S   UNL     1      -0.169  -5.201   1.118  0.00  0.00    -0.060 S 
ATOM      7  H   UNL     1      -1.120  -2.203   3.130  0.00  0.00    +0.155 HD
ENDROOT
BRANCH   4   8
ATOM      8  C   UNL     1      -0.315  -7.000   4.569  0.00  0.00    +0.266 C 
ATOM      9  O   UNL     1      -0.198  -8.205   4.449  0.00  0.00    -0.268 OA
ATOM     10  N   UNL     1      -0.441  -6.453   5.794  0.00  0.00    -0.296 N 
ATOM     11  C   UNL     1      -0.652  -7.302   6.974  0.00  0.00    +0.111 C 
ATOM     12  C   UNL     1       0.412  -6.962   8.023  0.00  0.00    +0.004 C 
ATOM     13  C   UNL     1       0.374  -5.460   8.314  0.00  0.00    +0.009 C 
ATOM     14  C   UNL     1       0.692  -4.683   7.034  0.00  0.00    +0.004 C 
ATOM     15  C   UNL     1      -0.363  -4.997   5.975  0.00  0.00    +0.111 C 
ATOM     16  C   UNL     1       0.687  -3.183   7.334  0.00  0.00    +0.009 C 
ATOM     17  C   UNL     1       1.794  -7.346   7.491  0.00  0.00    +0.009 C 
ENDBRANCH   4   8
BRANCH   1  23
ATOM     18  C   UNL     1      -0.307  -3.035  -2.410  0.00  0.00    +0.065 C 
ATOM     19  C   UNL     1      -0.697  -2.220  -1.204  0.00  0.00    +0.040 A 
ATOM     20  C   UNL     1      -1.085  -0.904  -1.368  0.00  0.00    +0.023 A 
ATOM     21  C   UNL     1      -1.443  -0.158  -0.253  0.00  0.00    +0.005 A 
ATOM     22  C   UNL     1      -1.397  -0.764   0.990  0.00  0.00    +0.044 A 
ATOM     23  C   UNL     1      -0.996  -2.092   1.080  0.00  0.00    +0.125 A 
ATOM     24  N   UNL     1      -0.667  -2.773  -0.007  0.00  0.00    -0.237 NA
ENDBRANCH   1  23
TORSDOF 2
