REMARK  Name = ZINC03376500
REMARK  12 active torsions:
REMARK  status: ('A' for Active; 'I' for Inactive)
REMARK    1  A    between atoms: C_1  and  C_2
REMARK    2  A    between atoms: C_2  and  C_4
REMARK    3  A    between atoms: C_2  and  N_11
REMARK    4  A    between atoms: C_12  and  C_14
REMARK    5  A    between atoms: C_14  and  S_15
REMARK    6  A    between atoms: S_15  and  C_16
REMARK    7  A    between atoms: C_19  and  C_28
REMARK    8  A    between atoms: N_20  and  C_21
REMARK    9  A    between atoms: C_28  and  C_30
REMARK   10  A    between atoms: C_28  and  N_56
REMARK   11  A    between atoms: C_31  and  N_56
REMARK   12  A    between atoms: C_32  and  N_56
REMARK                            x       y       z     vdW  Elec       q    Type
REMARK                         _______ _______ _______ _____ _____    ______ ____
ROOT
ATOM      1  C   UNL     1       0.174   0.961   2.735  0.00  0.00    +0.197 A 
ATOM      2  N   UNL     1       1.244   0.226   2.533  0.00  0.00    -0.122 NA
ATOM      3  N   UNL     1       1.755  -0.122   3.659  0.00  0.00    -0.135 NA
ATOM      4  C   UNL     1       1.049   0.363   4.642  0.00  0.00    +0.125 A 
ATOM      5  N   UNL     1       0.018   1.076   4.089  0.00  0.00    -0.275 N 
ENDROOT
BRANCH   5   6
ATOM      6  C   UNL     1      -0.989   1.776   4.770  0.00  0.00    +0.050 A 
ATOM      7  C   UNL     1      -0.664   2.877   5.551  0.00  0.00    +0.028 A 
ATOM      8  C   UNL     1      -1.658   3.567   6.216  0.00  0.00    +0.022 A 
ATOM      9  C   UNL     1      -2.975   3.156   6.114  0.00  0.00    +0.041 A 
ATOM     10  C   UNL     1      -3.301   2.056   5.341  0.00  0.00    +0.022 A 
ATOM     11  C   UNL     1      -2.311   1.365   4.669  0.00  0.00    +0.028 A 
ATOM     12 CL   UNL     1      -4.221   4.022   6.957  0.00  0.00    -0.084 Cl
ENDBRANCH   5   6
BRANCH   4  13
ATOM     13  C   UNL     1       1.321   0.179   6.113  0.00  0.00    -0.003 C 
ATOM     14  C   UNL     1       2.502   1.060   6.527  0.00  0.00    -0.005 C 
BRANCH  13  17
ATOM     15  C   UNL     1       1.914  -1.446   7.806  0.00  0.00    -0.096 C 
ATOM     16  C   UNL     1       0.569  -2.113   5.907  0.00  0.00    -0.096 C 
ATOM     17  N   UNL     1       1.667  -1.235   6.364  0.00  0.00    +0.382 N 
ATOM     18  H   UNL     1       2.519  -1.468   5.842  0.00  0.00    -0.082 HD
ENDBRANCH  13  17
ENDBRANCH   4  13
BRANCH   1  19
ATOM     19  S   UNL     1      -0.860   1.669   1.497  0.00  0.00    -0.076 S 
BRANCH  19  20
ATOM     20  C   UNL     1      -0.013   1.086   0.008  0.00  0.00    +0.173 C 
BRANCH  20  22
ATOM     21  N   UNL     1      -0.288   1.272  -2.443  0.00  0.00    -0.308 N 
ATOM     22  C   UNL     1      -0.742   1.585  -1.213  0.00  0.00    +0.224 C 
ATOM     23  O   UNL     1      -1.736   2.268  -1.088  0.00  0.00    -0.275 OA
ATOM     24  H   UNL     1       0.507   0.726  -2.543  0.00  0.00    +0.149 HD
BRANCH  21  26
ATOM     25  C   UNL     1      -2.141   0.800  -3.968  0.00  0.00    +0.033 C 
ATOM     26  C   UNL     1      -0.997   1.758  -3.630  0.00  0.00    +0.100 C 
BRANCH  26  27
ATOM     27  C   UNL     1      -0.041   1.828  -4.792  0.00  0.00    -0.027 A 
ATOM     28  C   UNL     1       0.900   0.831  -4.974  0.00  0.00    +0.008 A 
ATOM     29  C   UNL     1       1.774   0.891  -6.043  0.00  0.00    +0.038 A 
ATOM     30  C   UNL     1       1.715   1.956  -6.925  0.00  0.00    +0.123 A 
ATOM     31  C   UNL     1       0.776   2.957  -6.739  0.00  0.00    +0.038 A 
ATOM     32  C   UNL     1      -0.101   2.892  -5.673  0.00  0.00    +0.008 A 
ATOM     33  F   UNL     1       2.573   2.020  -7.967  0.00  0.00    -0.205 F 
ENDBRANCH  26  27
ENDBRANCH  21  26
ENDBRANCH  20  22
ENDBRANCH  19  20
ENDBRANCH   1  19
TORSDOF 8
