REMARK  Name = ZINC11105177
REMARK  8 active torsions:
REMARK  status: ('A' for Active; 'I' for Inactive)
REMARK    1  A    between atoms: C_1  and  C_2
REMARK    2  A    between atoms: C_2  and  C_4
REMARK    3  A    between atoms: C_2  and  N_56
REMARK    4  A    between atoms: N_6  and  C_7
REMARK    5  A    between atoms: C_8  and  C_17
REMARK    6  A    between atoms: C_21  and  N_24
REMARK    7  A    between atoms: N_24  and  S_25
REMARK    8  A    between atoms: S_25  and  C_28
REMARK                            x       y       z     vdW  Elec       q    Type
REMARK                         _______ _______ _______ _____ _____    ______ ____
ROOT
ATOM      1  C   UNL     1      -5.925   2.245   2.174  0.00  0.00    +0.204 C 
ATOM      2  O   UNL     1      -5.199   1.799   3.037  0.00  0.00    -0.277 OA
ATOM      3  N   UNL     1      -7.148   2.713   2.498  0.00  0.00    -0.280 N 
ATOM      4  H   UNL     1      -7.728   3.070   1.808  0.00  0.00    +0.155 HD
ENDROOT
BRANCH   3   5
ATOM      5  C   UNL     1      -7.575   2.683   3.818  0.00  0.00    +0.090 A 
ATOM      6  C   UNL     1      -8.784   3.112   4.341  0.00  0.00    +0.084 A 
ATOM      7  C   UNL     1      -8.991   2.967   5.775  0.00  0.00    -0.018 A 
ATOM      8  C   UNL     1      -7.953   2.426   6.449  0.00  0.00    -0.004 A 
ATOM      9  S   UNL     1      -6.731   2.092   5.210  0.00  0.00    -0.077 S 
ATOM     10  C   UNL     1      -7.852   2.163   7.919  0.00  0.00    +0.043 C 
ATOM     11  C   UNL     1      -9.116   1.433   8.390  0.00  0.00    +0.005 C 
ATOM     12  C   UNL     1     -10.155   2.474   8.795  0.00  0.00    +0.001 C 
ATOM     13  C   UNL     1     -10.018   3.720   7.922  0.00  0.00    +0.005 C 
ATOM     14  C   UNL     1     -10.288   3.380   6.460  0.00  0.00    +0.037 C 
BRANCH   6  15
ATOM     15  C   UNL     1      -9.795   3.678   3.501  0.00  0.00    +0.102 C 
ATOM     16  N   UNL     1     -10.597   4.128   2.834  0.00  0.00    -0.191 NA
ENDBRANCH   6  15
ENDBRANCH   3   5
BRANCH   1  18
ATOM     17  C   UNL     1      -5.448   3.725   0.242  0.00  0.00    -0.004 C 
ATOM     18  C   UNL     1      -5.461   2.278   0.741  0.00  0.00    +0.016 C 
BRANCH  18  24
ATOM     19  C   UNL     1      -3.666   1.623  -0.746  0.00  0.00    -0.076 C 
ATOM     20  C   UNL     1      -2.317   0.904  -0.810  0.00  0.00    +0.002 C 
ATOM     21  C   UNL     1      -1.290   1.681   0.017  0.00  0.00    +0.073 C 
ATOM     22  C   UNL     1      -1.795   1.806   1.457  0.00  0.00    +0.002 C 
ATOM     23  C   UNL     1      -3.159   2.500   1.456  0.00  0.00    -0.076 C 
ATOM     24  N   UNL     1      -4.108   1.689   0.663  0.00  0.00    +0.387 N 
ATOM     25  H   UNL     1      -4.136   0.738   1.049  0.00  0.00    -0.081 HD
BRANCH  21  26
ATOM     26  N   UNL     1      -0.011   0.966   0.007  0.00  0.00    -0.192 NA
ATOM     27  H   UNL     1       0.002  -0.004   0.002  0.00  0.00    +0.148 HD
BRANCH  26  28
ATOM     28  S   UNL     1       1.412   1.813  -0.002  0.00  0.00    +0.027 S 
ATOM     29  O   UNL     1       2.426   0.819  -0.041  0.00  0.00    -0.158 OA
ATOM     30  O   UNL     1       1.271   2.747  -1.063  0.00  0.00    -0.158 OA
ATOM     31  C   UNL     1       1.448   2.680   1.591  0.00  0.00    +0.214 C 
ENDBRANCH  26  28
ENDBRANCH  21  26
ENDBRANCH  18  24
ENDBRANCH   1  18
TORSDOF 6
