REMARK  Name = ZINC63526289
REMARK  7 active torsions:
REMARK  status: ('A' for Active; 'I' for Inactive)
REMARK    1  A    between atoms: C_1  and  C_2
REMARK    2  A    between atoms: C_6  and  C_25
REMARK    3  A    between atoms: N_8  and  C_10
REMARK    4  A    between atoms: C_10  and  C_11
REMARK    5  A    between atoms: N_13  and  C_14
REMARK    6  A    between atoms: C_14  and  C_15
REMARK    7  A    between atoms: C_15  and  C_16
REMARK                            x       y       z     vdW  Elec       q    Type
REMARK                         _______ _______ _______ _____ _____    ______ ____
ROOT
ATOM      1  C   UNL     1       1.712  -2.576   3.059  0.00  0.00    +0.229 C 
ATOM      2  O   UNL     1       2.548  -2.330   2.216  0.00  0.00    -0.274 OA
ATOM      3  N   UNL     1       2.090  -3.024   4.272  0.00  0.00    -0.314 N 
ATOM      4  H   UNL     1       1.421  -3.221   4.947  0.00  0.00    +0.149 HD
ENDROOT
BRANCH   1   5
ATOM      5  C   UNL     1       0.250  -2.380   2.750  0.00  0.00    +0.198 C 
BRANCH   5  10
ATOM      6  C   UNL     1      -0.019   1.526   0.010  0.00  0.00    +0.026 C 
ATOM      7  C   UNL     1       0.002  -0.004   0.002  0.00  0.00    +0.081 C 
ATOM      8  C   UNL     1      -1.435  -0.568   0.068  0.00  0.00    +0.088 C 
ATOM      9  C   UNL     1      -1.326  -1.797   0.994  0.00  0.00    +0.084 C 
ATOM     10  N   UNL     1       0.102  -1.888   1.374  0.00  0.00    -0.230 NA
ATOM     11  N   UNL     1       0.640  -0.526   1.240  0.00  0.00    -0.249 NA
ATOM     12  C   UNL     1      -2.194  -1.599   2.238  0.00  0.00    +0.027 C 
ATOM     13  I   UNL     1      -2.784   0.898   0.909  0.00  0.00    -0.078 I 
ATOM     14  H   UNL     1       0.395   0.039   2.039  0.00  0.00    +0.141 HD
ENDBRANCH   5  10
ENDBRANCH   1   5
BRANCH   3  15
ATOM     15  C   UNL     1       3.511  -3.215   4.573  0.00  0.00    +0.108 C 
BRANCH  15  16
ATOM     16  C   UNL     1       3.666  -3.727   6.006  0.00  0.00    +0.052 C 
BRANCH  16  17
ATOM     17  C   UNL     1       5.128  -3.923   6.315  0.00  0.00    -0.040 C 
ATOM     18  C   UNL     1       5.954  -3.045   6.930  0.00  0.00    -0.001 A 
ATOM     19  C   UNL     1       5.746  -1.698   7.472  0.00  0.00    +0.010 A 
ATOM     20  C   UNL     1       6.789  -1.052   8.042  0.00  0.00    +0.001 A 
ATOM     21  C   UNL     1       8.061  -1.637   8.126  0.00  0.00    +0.002 A 
ATOM     22  C   UNL     1       8.329  -2.871   7.650  0.00  0.00    +0.026 A 
ATOM     23  C   UNL     1       7.305  -3.641   7.031  0.00  0.00    +0.043 A 
ATOM     24  N   UNL     1       7.314  -4.839   6.501  0.00  0.00    -0.380 N 
ATOM     25  C   UNL     1       5.967  -5.143   6.007  0.00  0.00    +0.144 C 
ATOM     26  H   UNL     1       8.083  -5.429   6.447  0.00  0.00    +0.160 HD
ENDBRANCH  16  17
ENDBRANCH  15  16
ENDBRANCH   3  15
TORSDOF 5
