REMARK  Name = ZINC39631751
REMARK  14 active torsions:
REMARK  status: ('A' for Active; 'I' for Inactive)
REMARK    1  A    between atoms: C_1  and  C_2
REMARK    2  A    between atoms: C_2  and  C_3
REMARK    3  A    between atoms: C_3  and  C_5
REMARK    4  A    between atoms: C_3  and  C_11
REMARK    5  A    between atoms: C_15  and  C_24
REMARK    6  A    between atoms: N_26  and  C_27
REMARK    7  A    between atoms: C_27  and  C_29
REMARK    8  A    between atoms: C_27  and  C_30
REMARK    9  A    between atoms: C_30  and  C_31
REMARK   10  A    between atoms: C_31  and  C_32
REMARK   11  A    between atoms: C_32  and  C_33
REMARK   12  A    between atoms: C_33  and  C_34
REMARK   13  A    between atoms: C_33  and  C_35
REMARK   14  A    between atoms: C_33  and  O_36
REMARK                            x       y       z     vdW  Elec       q    Type
REMARK                         _______ _______ _______ _____ _____    ______ ____
ROOT
ATOM      1  C   UNL     1       0.010  -1.431  -2.167  0.00  0.00    +0.223 C 
ATOM      2  O   UNL     1       0.894  -1.818  -1.432  0.00  0.00    -0.275 OA
ATOM      3  N   UNL     1      -0.520  -0.204  -1.995  0.00  0.00    -0.300 N 
ATOM      4  C   UNL     1      -0.223   0.771  -0.920  0.00  0.00    +0.121 C 
ATOM      5  C   UNL     1      -0.208   2.143  -1.630  0.00  0.00    +0.100 C 
ATOM      6  C   UNL     1      -1.069   1.943  -2.889  0.00  0.00    -0.004 C 
ATOM      7  C   UNL     1      -1.526   0.478  -2.844  0.00  0.00    +0.115 C 
ATOM      8  C   UNL     1      -0.237   2.192  -4.143  0.00  0.00    -0.010 C 
ATOM      9  C   UNL     1      -1.129   2.043  -5.379  0.00  0.00    -0.082 C 
ATOM     10  N   UNL     1      -2.237   3.003  -5.304  0.00  0.00    +0.379 N 
ATOM     11  C   UNL     1      -3.086   2.699  -4.145  0.00  0.00    -0.082 C 
ATOM     12  C   UNL     1      -2.276   2.875  -2.857  0.00  0.00    -0.010 C 
ATOM     13  H   UNL     1      -1.866   3.936  -5.211  0.00  0.00    -0.086 HD
ATOM     14  H   UNL     1      -2.789   2.945  -6.147  0.00  0.00    -0.086 HD
ENDROOT
BRANCH   5  15
ATOM     15  C   UNL     1       1.200   2.522  -2.010  0.00  0.00    +0.218 C 
ATOM     16  O   UNL     1       2.002   1.660  -2.304  0.00  0.00    -0.275 OA
ATOM     17  N   UNL     1       1.569   3.818  -2.024  0.00  0.00    -0.312 N 
ATOM     18  H   UNL     1       0.951   4.502  -1.722  0.00  0.00    +0.149 HD
BRANCH  17  19
ATOM     19  C   UNL     1       2.904   4.195  -2.495  0.00  0.00    +0.070 C 
ATOM     20  C   UNL     1       2.878   4.370  -4.015  0.00  0.00    +0.028 C 
BRANCH  19  21
ATOM     21  C   UNL     1       3.325   5.511  -1.838  0.00  0.00    +0.022 C 
BRANCH  21  22
ATOM     22  C   UNL     1       3.380   5.327  -0.320  0.00  0.00    +0.005 C 
BRANCH  22  23
ATOM     23  C   UNL     1       3.689   6.670   0.345  0.00  0.00    +0.034 C 
BRANCH  23  24
ATOM     24  C   UNL     1       3.879   6.462   1.849  0.00  0.00    +0.061 C 
ATOM     25  C   UNL     1       4.283   7.787   2.500  0.00  0.00    +0.041 C 
ATOM     26  C   UNL     1       2.567   5.971   2.466  0.00  0.00    +0.041 C 
BRANCH  24  27
ATOM     27  O   UNL     1       4.903   5.491   2.071  0.00  0.00    -0.389 OA
ATOM     28  H   UNL     1       5.077   5.309   3.004  0.00  0.00    +0.210 HD
ENDBRANCH  24  27
ENDBRANCH  23  24
ENDBRANCH  22  23
ENDBRANCH  21  22
ENDBRANCH  19  21
ENDBRANCH  17  19
ENDBRANCH   5  15
BRANCH   1  29
ATOM     29  C   UNL     1      -0.496  -2.323  -3.271  0.00  0.00    +0.105 C 
BRANCH  29  30
ATOM     30  C   UNL     1       0.615  -3.231  -3.732  0.00  0.00    -0.036 A 
ATOM     31  C   UNL     1       1.203  -4.110  -2.842  0.00  0.00    +0.004 A 
ATOM     32  C   UNL     1       2.222  -4.943  -3.265  0.00  0.00    +0.000 A 
ATOM     33  C   UNL     1       2.652  -4.897  -4.578  0.00  0.00    +0.000 A 
ATOM     34  C   UNL     1       2.063  -4.019  -5.468  0.00  0.00    +0.000 A 
ATOM     35  C   UNL     1       1.042  -3.189  -5.046  0.00  0.00    +0.004 A 
ENDBRANCH  29  30
BRANCH  29  37
ATOM     36  C   UNL     1      -2.833  -2.251  -2.392  0.00  0.00    +0.005 C 
ATOM     37  C   UNL     1      -1.662  -3.167  -2.752  0.00  0.00    +0.014 C 
ENDBRANCH  29  37
ENDBRANCH   1  29
TORSDOF 10
