REMARK  Name = ZINC39630244
REMARK  8 active torsions:
REMARK  status: ('A' for Active; 'I' for Inactive)
REMARK    1  A    between atoms: C_1  and  O_2
REMARK    2  A    between atoms: O_2  and  C_3
REMARK    3  A    between atoms: C_7  and  C_9
REMARK    4  A    between atoms: C_13  and  C_22
REMARK    5  A    between atoms: N_24  and  C_25
REMARK    6  A    between atoms: C_25  and  C_26
REMARK    7  A    between atoms: C_26  and  C_27
REMARK    8  A    between atoms: C_27  and  N_28
REMARK                            x       y       z     vdW  Elec       q    Type
REMARK                         _______ _______ _______ _____ _____    ______ ____
ROOT
ATOM      1  C   UNL     1      -2.666  -4.422   0.116  0.00  0.00    +0.248 C 
ATOM      2  O   UNL     1      -3.687  -5.071   0.235  0.00  0.00    -0.270 OA
ATOM      3  N   UNL     1      -1.482  -5.048  -0.032  0.00  0.00    -0.296 N 
ATOM      4  C   UNL     1      -0.133  -4.438  -0.086  0.00  0.00    +0.121 C 
ATOM      5  C   UNL     1       0.767  -5.408   0.713  0.00  0.00    +0.100 C 
ATOM      6  C   UNL     1       0.039  -6.761   0.649  0.00  0.00    -0.004 C 
ATOM      7  C   UNL     1      -1.235  -6.503  -0.169  0.00  0.00    +0.115 C 
ATOM      8  C   UNL     1      -0.330  -7.230   2.053  0.00  0.00    -0.010 C 
ATOM      9  C   UNL     1      -1.001  -8.604   1.968  0.00  0.00    -0.082 C 
ATOM     10  N   UNL     1      -0.084  -9.560   1.335  0.00  0.00    +0.379 N 
ATOM     11  C   UNL     1       0.192  -9.150  -0.047  0.00  0.00    -0.082 C 
ATOM     12  C   UNL     1       0.913  -7.800  -0.047  0.00  0.00    -0.010 C 
ATOM     13  H   UNL     1       0.780  -9.589   1.855  0.00  0.00    -0.086 HD
ATOM     14  H   UNL     1      -0.505 -10.477   1.335  0.00  0.00    -0.086 HD
ENDROOT
BRANCH   1  19
ATOM     15  C   UNL     1      -1.934  -0.818  -0.665  0.00  0.00    +0.121 A 
ATOM     16  C   UNL     1      -2.837  -0.174   0.170  0.00  0.00    +0.047 A 
ATOM     17  C   UNL     1      -3.680  -0.908   0.983  0.00  0.00    +0.019 A 
ATOM     18  C   UNL     1      -3.629  -2.288   0.970  0.00  0.00    +0.030 A 
ATOM     19  C   UNL     1      -2.724  -2.945   0.133  0.00  0.00    +0.054 A 
ATOM     20  C   UNL     1      -1.878  -2.201  -0.691  0.00  0.00    +0.059 A 
ATOM     21 BR   UNL     1      -4.784  -3.288   2.085  0.00  0.00    -0.050 Br
BRANCH  15  23
ATOM     22  C   UNL     1      -1.218   1.332  -1.385  0.00  0.00    +0.277 C 
ATOM     23  O   UNL     1      -1.107  -0.091  -1.462  0.00  0.00    -0.495 OA
ENDBRANCH  15  23
ENDBRANCH   1  19
BRANCH   5  24
ATOM     24  C   UNL     1       0.896  -4.946   2.142  0.00  0.00    +0.218 C 
ATOM     25  O   UNL     1      -0.009  -4.332   2.665  0.00  0.00    -0.275 OA
ATOM     26  N   UNL     1       2.018  -5.217   2.838  0.00  0.00    -0.315 N 
ATOM     27  H   UNL     1       2.742  -5.708   2.419  0.00  0.00    +0.149 HD
BRANCH  26  28
ATOM     28  C   UNL     1       2.144  -4.768   4.227  0.00  0.00    +0.106 C 
BRANCH  28  29
ATOM     29  C   UNL     1       3.503  -5.201   4.781  0.00  0.00    +0.040 C 
BRANCH  29  30
ATOM     30  C   UNL     1       3.635  -4.733   6.231  0.00  0.00    +0.124 C 
BRANCH  30  31
ATOM     31  N   UNL     1       4.936  -5.147   6.762  0.00  0.00    -0.338 N 
ATOM     32  C   UNL     1       5.215  -6.327   7.398  0.00  0.00    +0.104 A 
ATOM     33  C   UNL     1       6.523  -6.298   7.717  0.00  0.00    +0.101 A 
ATOM     34  N   UNL     1       7.029  -5.132   7.288  0.00  0.00    -0.352 N 
ATOM     35  C   UNL     1       6.085  -4.440   6.711  0.00  0.00    +0.173 A 
ATOM     36  H   UNL     1       7.951  -4.849   7.388  0.00  0.00    +0.166 HD
ENDBRANCH  30  31
ENDBRANCH  29  30
ENDBRANCH  28  29
ENDBRANCH  26  28
ENDBRANCH   5  24
TORSDOF 7
