REMARK  Name = ZINC14768202
REMARK  3 active torsions:
REMARK  status: ('A' for Active; 'I' for Inactive)
REMARK    1  A    between atoms: C_7  and  C_11
REMARK    2  A    between atoms: C_15  and  C_17
REMARK    3  A    between atoms: C_17  and  C_19
REMARK                            x       y       z     vdW  Elec       q    Type
REMARK                         _______ _______ _______ _____ _____    ______ ____
ROOT
ATOM      1  C   UNL     1      -1.262   5.305   0.040  0.00  0.00    +0.091 A 
ATOM      2  C   UNL     1      -0.292   6.283   0.036  0.00  0.00    +0.113 A 
ATOM      3  N   UNL     1       0.908   5.646   0.022  0.00  0.00    -0.341 N 
ATOM      4  H   UNL     1       1.810   6.079   0.016  0.00  0.00    +0.167 HD
ATOM      5  C   UNL     1       0.656   4.303   0.018  0.00  0.00    +0.180 A 
ATOM      6  N   UNL     1      -0.647   4.117   0.024  0.00  0.00    -0.225 NA
ENDROOT
BRANCH   1  13
ATOM      7  C   UNL     1      -4.936   2.407   0.058  0.00  0.00    +0.001 A 
ATOM      8  C   UNL     1      -6.149   3.080   0.073  0.00  0.00    +0.002 A 
ATOM      9  C   UNL     1      -6.188   4.457   0.081  0.00  0.00    +0.026 A 
ATOM     10  C   UNL     1      -5.001   5.183   0.074  0.00  0.00    +0.047 A 
ATOM     11  C   UNL     1      -3.775   4.495   0.054  0.00  0.00    +0.009 A 
ATOM     12  C   UNL     1      -3.758   3.101   0.052  0.00  0.00    +0.010 A 
ATOM     13  C   UNL     1      -2.729   5.529   0.055  0.00  0.00    +0.027 A 
ATOM     14  C   UNL     1      -3.363   6.726   0.067  0.00  0.00    +0.093 A 
ATOM     15  N   UNL     1      -4.716   6.531   0.078  0.00  0.00    -0.360 N 
ATOM     16  H   UNL     1      -5.380   7.238   0.087  0.00  0.00    +0.165 HD
ENDBRANCH   1  13
BRANCH   5  17
ATOM     17  C   UNL     1       1.674   3.239   0.003  0.00  0.00    +0.230 C 
ATOM     18  O   UNL     1       2.857   3.528  -0.007  0.00  0.00    -0.283 OA
BRANCH  17  19
ATOM     19  C   UNL     1       1.263   1.829  -0.000  0.00  0.00    +0.050 A 
ATOM     20  C   UNL     1      -0.016   1.350   0.009  0.00  0.00    +0.095 A 
ATOM     21  N   UNL     1       0.002  -0.004   0.002  0.00  0.00    -0.360 N 
ATOM     22  H   UNL     1      -0.787  -0.568   0.007  0.00  0.00    +0.165 HD
ATOM     23  C   UNL     1       1.302  -0.469  -0.013  0.00  0.00    +0.047 A 
ATOM     24  C   UNL     1       2.150   0.651  -0.015  0.00  0.00    +0.011 A 
ATOM     25  C   UNL     1       3.531   0.480  -0.029  0.00  0.00    +0.011 A 
ATOM     26  C   UNL     1       4.061  -0.792  -0.040  0.00  0.00    +0.001 A 
ATOM     27  C   UNL     1       3.225  -1.899  -0.038  0.00  0.00    +0.002 A 
ATOM     28  C   UNL     1       1.856  -1.744  -0.025  0.00  0.00    +0.026 A 
ENDBRANCH  17  19
ENDBRANCH   5  17
TORSDOF 3
