REMARK  Name = ZINC41333747
REMARK  6 active torsions:
REMARK  status: ('A' for Active; 'I' for Inactive)
REMARK    1  A    between atoms: C_1  and  C_2
REMARK    2  A    between atoms: C_9  and  N_23
REMARK    3  A    between atoms: C_10  and  N_22
REMARK    4  A    between atoms: N_14  and  C_15
REMARK    5  A    between atoms: C_15  and  C_16
REMARK    6  A    between atoms: C_16  and  C_17
REMARK                            x       y       z     vdW  Elec       q    Type
REMARK                         _______ _______ _______ _____ _____    ______ ____
ROOT
ATOM      1  C   UNL     1      -0.018   1.503   0.010  0.00  0.00    +0.089 C 
ATOM      2  C   UNL     1       0.002  -0.004   0.002  0.00  0.00    +0.136 A 
ATOM      3  C   UNL     1      -1.076  -0.807   0.003  0.00  0.00    +0.091 A 
ATOM      4  C   UNL     1      -0.625  -2.147  -0.007  0.00  0.00    +0.167 A 
ATOM      5  N   UNL     1       0.683  -2.130  -0.013  0.00  0.00    -0.063 NA
ATOM      6  O   UNL     1       1.100  -0.776  -0.013  0.00  0.00    -0.358 OA
ATOM      7  N   UNL     1      -1.431  -3.283  -0.009  0.00  0.00    -0.280 N 
ATOM      8  C   UNL     1      -2.813  -3.154  -0.001  0.00  0.00    +0.162 A 
ATOM      9  C   UNL     1      -3.626  -4.283   0.003  0.00  0.00    +0.205 A 
ATOM     10  C   UNL     1      -5.006  -4.105   0.011  0.00  0.00    +0.154 A 
ATOM     11  N   UNL     1      -5.500  -2.869   0.014  0.00  0.00    -0.197 NA
ATOM     12  C   UNL     1      -4.695  -1.817   0.011  0.00  0.00    +0.219 A 
ATOM     13  N   UNL     1      -3.377  -1.949   0.008  0.00  0.00    -0.197 NA
ATOM     14  N   UNL     1      -5.246  -0.548   0.015  0.00  0.00    -0.313 N 
ATOM     15  H   UNL     1      -1.026  -4.165  -0.015  0.00  0.00    +0.155 HD
ATOM     16  H   UNL     1      -4.668   0.231   0.012  0.00  0.00    +0.149 HD
ENDROOT
BRANCH  10  17
ATOM     17  N   UNL     1      -5.856  -5.201   0.014  0.00  0.00    -0.341 N 
ATOM     18  H   UNL     1      -5.489  -6.099   0.011  0.00  0.00    +0.144 HD
ATOM     19  H   UNL     1      -6.817  -5.069   0.020  0.00  0.00    +0.144 HD
ENDBRANCH  10  17
BRANCH   9  20
ATOM     20  N   UNL     1      -3.037  -5.641  -0.002  0.00  0.00    +0.063 N 
ATOM     21  O   UNL     1      -2.790  -6.197   1.043  0.00  0.00    -0.126 OA
ATOM     22  O   UNL     1      -2.803  -6.195  -1.051  0.00  0.00    -0.126 OA
ENDBRANCH   9  20
BRANCH  14  23
ATOM     23  C   UNL     1      -6.701  -0.380   0.023  0.00  0.00    +0.109 C 
BRANCH  23  24
ATOM     24  C   UNL     1      -7.043   1.111   0.026  0.00  0.00    +0.061 C 
BRANCH  24  25
ATOM     25  C   UNL     1      -8.540   1.283   0.035  0.00  0.00    -0.009 A 
ATOM     26  C   UNL     1      -9.381   1.386   1.093  0.00  0.00    +0.011 A 
ATOM     27  C   UNL     1     -10.735   1.541   0.860  0.00  0.00    +0.008 A 
ATOM     28  C   UNL     1     -11.181   1.586  -0.419  0.00  0.00    +0.045 A 
ATOM     29  S   UNL     1      -9.665   1.413  -1.346  0.00  0.00    -0.102 S 
ENDBRANCH  24  25
ENDBRANCH  23  24
ENDBRANCH  14  23
TORSDOF 5
