REMARK  Name = ZINC12185085
REMARK  5 active torsions:
REMARK  status: ('A' for Active; 'I' for Inactive)
REMARK    1  A    between atoms: C_1  and  C_2
REMARK    2  A    between atoms: C_5  and  C_11
REMARK    3  A    between atoms: C_16  and  C_19
REMARK    4  A    between atoms: C_20  and  C_25
REMARK    5  A    between atoms: C_25  and  C_26
REMARK                            x       y       z     vdW  Elec       q    Type
REMARK                         _______ _______ _______ _____ _____    ______ ____
ROOT
ATOM      1  C   UNL     1      -2.138   0.985  -1.272  0.00  0.00    +0.236 C 
ATOM      2  O   UNL     1      -3.097   1.622  -0.891  0.00  0.00    -0.274 OA
ATOM      3  N   UNL     1      -2.302  -0.270  -1.734  0.00  0.00    -0.300 N 
ATOM      4  C   UNL     1      -1.150  -1.052  -2.204  0.00  0.00    +0.108 C 
ATOM      5  C   UNL     1      -1.436  -1.559  -3.616  0.00  0.00    +0.028 C 
ATOM      6  C   UNL     1      -2.761  -2.325  -3.623  0.00  0.00    +0.040 C 
ATOM      7  C   UNL     1      -3.896  -1.388  -3.205  0.00  0.00    +0.028 C 
ATOM      8  C   UNL     1      -3.638  -0.881  -1.783  0.00  0.00    +0.108 C 
ENDROOT
BRANCH   1  12
ATOM      9  C   UNL     1       0.059   1.183   2.506  0.00  0.00    +0.028 C 
ATOM     10  C   UNL     1      -0.738   1.584   1.263  0.00  0.00    +0.071 C 
ATOM     11  C   UNL     1      -0.013   1.086   0.008  0.00  0.00    +0.053 C 
ATOM     12  C   UNL     1      -0.761   1.597  -1.228  0.00  0.00    +0.160 C 
ATOM     13  N   UNL     1      -0.875   3.054  -1.151  0.00  0.00    -0.315 N 
ATOM     14  C   UNL     1      -0.921   3.690   0.029  0.00  0.00    +0.131 C 
ATOM     15  S   UNL     1      -1.069   5.395   0.040  0.00  0.00    -0.019 S 
ATOM     16  N   UNL     1      -0.855   3.042   1.202  0.00  0.00    -0.324 N 
ATOM     17  H   UNL     1      -0.917   3.571  -1.971  0.00  0.00    +0.148 HD
ATOM     18  H   UNL     1      -0.885   3.550   2.028  0.00  0.00    +0.148 HD
ENDBRANCH   1  12
BRANCH   6  19
ATOM     19  C   UNL     1      -3.029  -2.852  -5.009  0.00  0.00    +0.043 A 
ATOM     20  C   UNL     1      -3.171  -4.153  -5.354  0.00  0.00    -0.002 A 
ATOM     21  C   UNL     1      -3.409  -4.209  -6.731  0.00  0.00    +0.138 A 
ATOM     22  N   UNL     1      -3.403  -2.987  -7.197  0.00  0.00    -0.182 NA
ATOM     23  N   UNL     1      -3.165  -2.112  -6.129  0.00  0.00    -0.281 N 
ATOM     24  H   UNL     1      -3.106  -1.116  -6.187  0.00  0.00    +0.189 HD
BRANCH  20  25
ATOM     25  C   UNL     1      -3.090  -5.332  -4.419  0.00  0.00    +0.073 C 
BRANCH  25  26
ATOM     26  C   UNL     1      -4.435  -5.559  -3.778  0.00  0.00    -0.043 A 
ATOM     27  C   UNL     1      -4.745  -4.935  -2.584  0.00  0.00    +0.004 A 
ATOM     28  C   UNL     1      -5.981  -5.139  -1.999  0.00  0.00    +0.000 A 
ATOM     29  C   UNL     1      -6.902  -5.975  -2.602  0.00  0.00    +0.000 A 
ATOM     30  C   UNL     1      -6.589  -6.603  -3.793  0.00  0.00    +0.000 A 
ATOM     31  C   UNL     1      -5.356  -6.395  -4.381  0.00  0.00    +0.004 A 
ENDBRANCH  25  26
ENDBRANCH  20  25
ENDBRANCH   6  19
TORSDOF 4
