REMARK  Name = ZINC09015855
REMARK  8 active torsions:
REMARK  status: ('A' for Active; 'I' for Inactive)
REMARK    1  A    between atoms: C_1  and  C_2
REMARK    2  A    between atoms: C_4  and  O_11
REMARK    3  A    between atoms: C_7  and  C_8
REMARK    4  A    between atoms: C_8  and  C_9
REMARK    5  A    between atoms: C_8  and  C_10
REMARK    6  A    between atoms: O_11  and  C_12
REMARK    7  A    between atoms: C_12  and  C_13
REMARK    8  A    between atoms: C_13  and  N_15
REMARK                            x       y       z     vdW  Elec       q    Type
REMARK                         _______ _______ _______ _____ _____    ______ ____
ROOT
ATOM      1  C   UNL     1      -0.252  -4.665  -3.715  0.00  0.00    +0.276 C 
ATOM      2  O   UNL     1      -0.359  -3.946  -4.691  0.00  0.00    -0.270 OA
ENDROOT
BRANCH   1   3
ATOM      3  N   UNL     1      -0.252  -5.985  -3.860  0.00  0.00    -0.154 NA
ATOM      4  C   UNL     1      -0.263  -6.522  -5.078  0.00  0.00    +0.164 A 
ATOM      5  N   UNL     1      -0.373  -5.880  -6.269  0.00  0.00    -0.335 N 
ATOM      6  H   UNL     1      -0.456  -4.914  -6.295  0.00  0.00    +0.168 HD
ATOM      7  C   UNL     1      -0.365  -6.606  -7.445  0.00  0.00    +0.055 A 
ATOM      8  C   UNL     1      -0.465  -6.152  -8.767  0.00  0.00    +0.027 A 
ATOM      9  C   UNL     1      -0.438  -7.040  -9.817  0.00  0.00    +0.002 A 
ATOM     10  C   UNL     1      -0.313  -8.402  -9.601  0.00  0.00    +0.001 A 
ATOM     11  C   UNL     1      -0.212  -8.877  -8.305  0.00  0.00    +0.017 A 
ATOM     12  C   UNL     1      -0.239  -7.990  -7.254  0.00  0.00    +0.039 A 
ATOM     13  S   UNL     1      -0.138  -8.146  -5.490  0.00  0.00    -0.052 S 
ENDBRANCH   1   3
BRANCH   1  14
ATOM     14  C   UNL     1      -0.120  -4.057  -2.343  0.00  0.00    +0.326 C 
BRANCH  14  15
ATOM     15  O   UNL     1      -0.146  -2.632  -2.448  0.00  0.00    -0.483 OA
BRANCH  15  19
ATOM     16  C   UNL     1       0.037   1.683  -0.175  0.00  0.00    +0.044 C 
ATOM     17  C   UNL     1       0.056   0.177  -0.144  0.00  0.00    -0.044 A 
ATOM     18  C   UNL     1      -0.055  -0.539  -1.321  0.00  0.00    +0.049 A 
ATOM     19  C   UNL     1      -0.037  -1.926  -1.292  0.00  0.00    +0.121 A 
ATOM     20  C   UNL     1       0.093  -2.591  -0.081  0.00  0.00    +0.046 A 
ATOM     21  C   UNL     1       0.204  -1.870   1.092  0.00  0.00    +0.008 A 
ATOM     22  C   UNL     1       0.191  -0.488   1.060  0.00  0.00    -0.042 A 
BRANCH  22  23
ATOM     23  C   UNL     1       0.318   0.295   2.342  0.00  0.00    +0.013 C 
ATOM     24  C   UNL     1      -0.768  -0.151   3.322  0.00  0.00    +0.012 C 
ATOM     25  C   UNL     1       1.696   0.045   2.958  0.00  0.00    +0.012 C 
ENDBRANCH  22  23
ENDBRANCH  15  19
ENDBRANCH  14  15
ENDBRANCH   1  14
TORSDOF 5
