REMARK  Name = ZINC49515224
REMARK  7 active torsions:
REMARK  status: ('A' for Active; 'I' for Inactive)
REMARK    1  A    between atoms: C_1  and  C_2
REMARK    2  A    between atoms: C_2  and  C_4
REMARK    3  A    between atoms: C_2  and  N_11
REMARK    4  A    between atoms: N_11  and  C_12
REMARK    5  A    between atoms: C_12  and  C_13
REMARK    6  A    between atoms: C_17  and  O_20
REMARK    7  A    between atoms: C_18  and  O_19
REMARK                            x       y       z     vdW  Elec       q    Type
REMARK                         _______ _______ _______ _____ _____    ______ ____
ROOT
ATOM      1  N   UNL     1       0.690  -0.478  -1.207  0.00  0.00    +0.386 N 
ATOM      2  H   UNL     1       1.608  -0.063  -1.256  0.00  0.00    -0.085 HD
ATOM      3  H   UNL     1       0.776  -1.482  -1.172  0.00  0.00    -0.085 HD
ENDROOT
BRANCH   1   5
ATOM      4  C   UNL     1      -0.019   1.526   0.010  0.00  0.00    -0.009 C 
ATOM      5  C   UNL     1       0.002  -0.004   0.002  0.00  0.00    -0.044 C 
BRANCH   5   6
ATOM      6  C   UNL     1       0.731  -0.503   1.223  0.00  0.00    -0.062 A 
ATOM      7  C   UNL     1       2.113  -0.514   1.246  0.00  0.00    +0.003 A 
ATOM      8  C   UNL     1       2.782  -0.971   2.366  0.00  0.00    +0.015 A 
ATOM      9  C   UNL     1       2.068  -1.418   3.463  0.00  0.00    +0.018 A 
ATOM     10  C   UNL     1       0.685  -1.408   3.439  0.00  0.00    +0.015 A 
ATOM     11  C   UNL     1       0.017  -0.945   2.321  0.00  0.00    +0.003 A 
ATOM     12 BR   UNL     1       2.983  -2.045   4.995  0.00  0.00    -0.050 Br
ENDBRANCH   5   6
ENDBRANCH   1   5
BRANCH   1  13
ATOM     13  C   UNL     1      -0.086  -0.093  -2.394  0.00  0.00    -0.042 C 
BRANCH  13  14
ATOM     14  C   UNL     1       0.620  -0.579  -3.634  0.00  0.00    -0.019 A 
ATOM     15  C   UNL     1       1.393   0.294  -4.377  0.00  0.00    +0.005 A 
ATOM     16  C   UNL     1       2.041  -0.148  -5.514  0.00  0.00    +0.004 A 
ATOM     17  C   UNL     1       1.919  -1.466  -5.915  0.00  0.00    +0.049 A 
ATOM     18  C   UNL     1       1.146  -2.346  -5.175  0.00  0.00    +0.158 A 
ATOM     19  C   UNL     1       0.498  -1.902  -4.026  0.00  0.00    +0.160 A 
BRANCH  19  20
ATOM     20  O   UNL     1      -0.257  -2.764  -3.293  0.00  0.00    -0.503 OA
ATOM     21  H   UNL     1      -1.183  -2.804  -3.566  0.00  0.00    +0.292 HD
ENDBRANCH  19  20
BRANCH  18  22
ATOM     22  O   UNL     1       1.026  -3.643  -5.567  0.00  0.00    -0.503 OA
ATOM     23  H   UNL     1       1.698  -4.230  -5.196  0.00  0.00    +0.292 HD
ENDBRANCH  18  22
ENDBRANCH  13  14
ENDBRANCH   1  13
TORSDOF 6
