REMARK  Name = ZINC35426665
REMARK  11 active torsions:
REMARK  status: ('A' for Active; 'I' for Inactive)
REMARK    1  A    between atoms: C_1  and  C_2
REMARK    2  A    between atoms: N_6  and  N_7
REMARK    3  A    between atoms: C_8  and  C_10
REMARK    4  A    between atoms: C_10  and  O_11
REMARK    5  A    between atoms: O_11  and  C_12
REMARK    6  A    between atoms: C_15  and  C_18
REMARK    7  A    between atoms: C_18  and  C_19
REMARK    8  A    between atoms: C_18  and  C_20
REMARK    9  A    between atoms: C_18  and  C_21
REMARK   10  A    between atoms: C_23  and  C_25
REMARK   11  A    between atoms: C_23  and  C_26
REMARK                            x       y       z     vdW  Elec       q    Type
REMARK                         _______ _______ _______ _____ _____    ______ ____
ROOT
ATOM      1  N   UNL     1      -1.901  -4.181  -0.607  0.00  0.00    -0.204 N 
ATOM      2  C   UNL     1      -2.502  -4.962  -1.527  0.00  0.00    +0.270 C 
ATOM      3  O   UNL     1      -3.161  -4.459  -2.413  0.00  0.00    -0.270 OA
ATOM      4  H   UNL     1      -1.374  -4.583   0.101  0.00  0.00    +0.177 HD
ENDROOT
BRANCH   1   9
ATOM      5  C   UNL     1      -0.020   1.528   0.001  0.00  0.00    +0.008 C 
ATOM      6  C   UNL     1       0.003  -0.002  -0.009  0.00  0.00    -0.008 C 
ATOM      7  C   UNL     1      -1.434  -0.534   0.011  0.00  0.00    +0.055 C 
ATOM      8  C   UNL     1      -1.387  -2.041   0.136  0.00  0.00    +0.038 C 
ATOM      9  N   UNL     1      -2.038  -2.788  -0.674  0.00  0.00    -0.189 NA
ATOM     10  C   UNL     1      -0.550  -2.643   1.244  0.00  0.00    +0.059 C 
ATOM     11  C   UNL     1       0.854  -2.034   1.179  0.00  0.00    -0.029 C 
ATOM     12  C   UNL     1       0.750  -0.509   1.226  0.00  0.00    +0.010 C 
ATOM     13  C   UNL     1       1.679  -2.526   2.370  0.00  0.00    +0.011 C 
ATOM     14  C   UNL     1       1.535  -2.459  -0.123  0.00  0.00    +0.011 C 
ENDBRANCH   1   9
BRANCH   2  15
ATOM     15  C   UNL     1      -2.355  -6.460  -1.455  0.00  0.00    +0.326 C 
BRANCH  15  16
ATOM     16  O   UNL     1      -3.078  -7.061  -2.531  0.00  0.00    -0.483 OA
BRANCH  16  17
ATOM     17  C   UNL     1      -3.048  -8.418  -2.611  0.00  0.00    +0.121 A 
ATOM     18  C   UNL     1      -2.343  -9.155  -1.671  0.00  0.00    +0.046 A 
ATOM     19  C   UNL     1      -2.315 -10.533  -1.755  0.00  0.00    +0.008 A 
ATOM     20  C   UNL     1      -2.989 -11.179  -2.776  0.00  0.00    -0.042 A 
ATOM     21  C   UNL     1      -3.692 -10.447  -3.714  0.00  0.00    +0.008 A 
ATOM     22  C   UNL     1      -3.728  -9.068  -3.631  0.00  0.00    +0.046 A 
BRANCH  20  23
ATOM     23  C   UNL     1      -2.956 -12.683  -2.865  0.00  0.00    -0.013 C 
ATOM     24  C   UNL     1      -3.552 -13.283  -1.590  0.00  0.00    +0.015 C 
ATOM     25  C   UNL     1      -3.774 -13.139  -4.075  0.00  0.00    +0.015 C 
ATOM     26  C   UNL     1      -1.508 -13.153  -3.021  0.00  0.00    +0.015 C 
ENDBRANCH  20  23
ENDBRANCH  16  17
ENDBRANCH  15  16
ENDBRANCH   2  15
TORSDOF 5
