REMARK  Name = ZINC35840278
REMARK  10 active torsions:
REMARK  status: ('A' for Active; 'I' for Inactive)
REMARK    1  A    between atoms: C_2  and  C_3
REMARK    2  A    between atoms: C_3  and  C_4
REMARK    3  A    between atoms: C_4  and  C_5
REMARK    4  A    between atoms: C_5  and  C_7
REMARK    5  A    between atoms: C_5  and  O_34
REMARK    6  A    between atoms: C_7  and  N_8
REMARK    7  A    between atoms: N_11  and  C_14
REMARK    8  A    between atoms: C_14  and  C_15
REMARK    9  A    between atoms: C_17  and  C_20
REMARK   10  A    between atoms: N_25  and  C_28
REMARK                            x       y       z     vdW  Elec       q    Type
REMARK                         _______ _______ _______ _____ _____    ______ ____
ROOT
ATOM      1  C   UNL     1       7.629  -7.401   3.499  0.00  0.00    +0.179 A 
ATOM      2  N   UNL     1       7.443  -8.687   3.533  0.00  0.00    -0.210 NA
ATOM      3  C   UNL     1       7.839  -9.148   4.750  0.00  0.00    +0.164 A 
ATOM      4  C   UNL     1       8.279  -8.074   5.461  0.00  0.00    +0.230 A 
ATOM      5  O   UNL     1       8.146  -6.999   4.668  0.00  0.00    -0.449 OA
ENDROOT
BRANCH   3   6
ATOM      6  C   UNL     1       7.799 -10.547   5.212  0.00  0.00    +0.268 C 
ATOM      7  O   UNL     1       8.067 -10.814   6.367  0.00  0.00    -0.268 OA
ATOM      8  N   UNL     1       7.465 -11.531   4.353  0.00  0.00    -0.300 N 
ATOM      9  C   UNL     1       7.062 -11.225   2.971  0.00  0.00    +0.089 C 
ATOM     10  C   UNL     1       7.882 -12.104   2.021  0.00  0.00    -0.059 C 
ATOM     11  N   UNL     1       7.724 -13.513   2.400  0.00  0.00    +0.384 N 
ATOM     12  C   UNL     1       8.292 -13.739   3.735  0.00  0.00    -0.059 C 
ATOM     13  C   UNL     1       7.498 -12.942   4.769  0.00  0.00    +0.089 C 
ATOM     14  H   UNL     1       6.743 -13.750   2.409  0.00  0.00    -0.081 HD
BRANCH  11  15
ATOM     15  C   UNL     1       8.420 -14.362   1.424  0.00  0.00    -0.068 C 
ATOM     16  C   UNL     1       7.822 -14.136   0.034  0.00  0.00    -0.015 C 
ATOM     17  C   UNL     1       8.548 -15.021  -0.983  0.00  0.00    -0.002 C 
ATOM     18  C   UNL     1       8.384 -16.490  -0.590  0.00  0.00    -0.000 C 
ATOM     19  C   UNL     1       8.982 -16.715   0.800  0.00  0.00    -0.002 C 
ATOM     20  C   UNL     1       8.257 -15.832   1.817  0.00  0.00    -0.015 C 
ENDBRANCH  11  15
ENDBRANCH   3   6
BRANCH   1  21
ATOM     21  C   UNL     1       7.319  -6.505   2.327  0.00  0.00    +0.019 C 
BRANCH  21  25
ATOM     22  N   UNL     1       4.021  -3.897   2.552  0.00  0.00    -0.303 NA
ATOM     23  C   UNL     1       4.156  -4.735   1.351  0.00  0.00    +0.066 C 
ATOM     24  C   UNL     1       5.598  -5.235   1.242  0.00  0.00    -0.063 C 
ATOM     25  N   UNL     1       5.941  -6.010   2.441  0.00  0.00    +0.387 N 
ATOM     26  C   UNL     1       5.825  -5.154   3.629  0.00  0.00    -0.063 C 
ATOM     27  C   UNL     1       4.385  -4.653   3.759  0.00  0.00    +0.066 C 
ATOM     28  H   UNL     1       5.309  -6.792   2.528  0.00  0.00    -0.081 HD
BRANCH  22  29
ATOM     29  C   UNL     1       2.662  -3.351   2.662  0.00  0.00    +0.115 C 
BRANCH  29  30
ATOM     30  C   UNL     1       2.674  -2.141   3.599  0.00  0.00    +0.129 C 
BRANCH  30  31
ATOM     31  O   UNL     1       3.541  -1.136   3.069  0.00  0.00    -0.391 OA
ATOM     32  H   UNL     1       3.283  -0.817   2.194  0.00  0.00    +0.210 HD
ENDBRANCH  30  31
BRANCH  30  33
ATOM     33  C   UNL     1       1.256  -1.579   3.723  0.00  0.00    +0.036 C 
BRANCH  33  34
ATOM     34  C   UNL     1       1.244  -0.449   4.754  0.00  0.00    +0.029 C 
BRANCH  34  36
ATOM     35  C   UNL     1      -0.737   0.156   6.047  0.00  0.00    +0.004 C 
ATOM     36  C   UNL     1      -0.152   0.105   4.876  0.00  0.00    -0.034 C 
ENDBRANCH  34  36
ENDBRANCH  33  34
ENDBRANCH  30  33
ENDBRANCH  29  30
ENDBRANCH  22  29
ENDBRANCH  21  25
ENDBRANCH   1  21
TORSDOF 10
