REMARK  Name = ZINC14360591
REMARK  4 active torsions:
REMARK  status: ('A' for Active; 'I' for Inactive)
REMARK    1  A    between atoms: C_4  and  C_7
REMARK    2  A    between atoms: C_8  and  C_19
REMARK    3  A    between atoms: N_12  and  C_13
REMARK    4  A    between atoms: C_19  and  O_31
REMARK                            x       y       z     vdW  Elec       q    Type
REMARK                         _______ _______ _______ _____ _____    ______ ____
ROOT
ATOM      1  C   UNL     1       3.054   4.046  -0.386  0.00  0.00    +0.087 A 
ATOM      2  C   UNL     1       2.822   5.206  -1.068  0.00  0.00    +0.064 A 
ATOM      3  S   UNL     1       4.458   5.928  -1.065  0.00  0.00    -0.053 S 
ATOM      4  C   UNL     1       5.281   4.619  -0.170  0.00  0.00    +0.159 A 
ATOM      5  N   UNL     1       4.285   3.779   0.046  0.00  0.00    -0.225 NA
ATOM      6  N   UNL     1       6.612   4.512   0.200  0.00  0.00    -0.321 N 
ATOM      7  H   UNL     1       7.237   5.217  -0.031  0.00  0.00    +0.148 HD
ENDROOT
BRANCH   2   8
ATOM      8  C   UNL     1       1.540   5.734  -1.659  0.00  0.00    +0.203 C 
ATOM      9  C   UNL     1       1.780   7.058  -2.348  0.00  0.00    +0.022 A 
ATOM     10  C   UNL     1       2.570   7.430  -3.412  0.00  0.00    +0.029 A 
ATOM     11  C   UNL     1       2.588   8.749  -3.832  0.00  0.00    +0.043 A 
ATOM     12  C   UNL     1       1.809   9.689  -3.179  0.00  0.00    +0.042 A 
ATOM     13  C   UNL     1       1.015   9.318  -2.113  0.00  0.00    +0.064 A 
ATOM     14  C   UNL     1       0.994   7.991  -1.685  0.00  0.00    +0.059 A 
ATOM     15  N   UNL     1       0.286   7.377  -0.649  0.00  0.00    -0.281 N 
ATOM     16  C   UNL     1       0.547   6.061  -0.565  0.00  0.00    +0.259 C 
ATOM     17  O   UNL     1       0.076   5.283   0.237  0.00  0.00    -0.272 OA
ATOM     18 CL   UNL     1       0.042  10.505  -1.302  0.00  0.00    -0.082 Cl
ATOM     19 CL   UNL     1       3.584   9.224  -5.172  0.00  0.00    -0.083 Cl
ATOM     20  H   UNL     1      -0.324   7.846  -0.059  0.00  0.00    +0.155 HD
BRANCH   8  21
ATOM     21  O   UNL     1       0.984   4.785  -2.572  0.00  0.00    -0.371 OA
ATOM     22  H   UNL     1       0.471   4.084  -2.147  0.00  0.00    +0.212 HD
ENDBRANCH   8  21
ENDBRANCH   2   8
BRANCH   1  26
ATOM     23  C   UNL     1      -0.114   1.304   0.337  0.00  0.00    +0.000 A 
ATOM     24  C   UNL     1       0.467   1.981   1.394  0.00  0.00    +0.001 A 
ATOM     25  C   UNL     1       1.496   2.871   1.166  0.00  0.00    +0.010 A 
ATOM     26  C   UNL     1       1.948   3.091  -0.134  0.00  0.00    +0.001 A 
ATOM     27  C   UNL     1       1.356   2.410  -1.197  0.00  0.00    +0.010 A 
ATOM     28  C   UNL     1       0.327   1.523  -0.956  0.00  0.00    +0.001 A 
ENDBRANCH   1  26
BRANCH   6  29
ATOM     29  C   UNL     1       7.075   3.335   0.939  0.00  0.00    +0.072 C 
ATOM     30  C   UNL     1       6.828   3.542   2.434  0.00  0.00    +0.022 C 
ATOM     31  C   UNL     1       7.312   2.313   3.206  0.00  0.00    +0.002 C 
ATOM     32  C   UNL     1       8.809   2.112   2.959  0.00  0.00    +0.000 C 
ATOM     33  C   UNL     1       9.055   1.905   1.464  0.00  0.00    +0.002 C 
ATOM     34  C   UNL     1       8.572   3.134   0.692  0.00  0.00    +0.022 C 
ENDBRANCH   6  29
TORSDOF 4
