REMARK  Name = ZINC60341870
REMARK  12 active torsions:
REMARK  status: ('A' for Active; 'I' for Inactive)
REMARK    1  A    between atoms: C_1  and  C_2
REMARK    2  A    between atoms: C_2  and  N_3
REMARK    3  A    between atoms: C_6  and  C_13
REMARK    4  A    between atoms: C_8  and  C_10
REMARK    5  A    between atoms: C_10  and  C_11
REMARK    6  A    between atoms: C_10  and  C_12
REMARK    7  A    between atoms: N_15  and  C_16
REMARK    8  A    between atoms: C_16  and  C_17
REMARK    9  A    between atoms: C_17  and  C_18
REMARK   10  A    between atoms: C_17  and  C_19
REMARK   11  A    between atoms: C_17  and  N_20
REMARK   12  A    between atoms: C_24  and  C_27
REMARK                            x       y       z     vdW  Elec       q    Type
REMARK                         _______ _______ _______ _____ _____    ______ ____
ROOT
ATOM      1  N   UNL     1       1.097  -2.109   0.288  0.00  0.00    -0.278 N 
ATOM      2  C   UNL     1       2.269  -1.490   0.690  0.00  0.00    +0.151 A 
ATOM      3  C   UNL     1       2.931  -1.984   1.826  0.00  0.00    +0.094 A 
ATOM      4  C   UNL     1       4.121  -1.373   2.252  0.00  0.00    +0.054 A 
ATOM      5  C   UNL     1       4.592  -0.287   1.512  0.00  0.00    +0.037 A 
ATOM      6  C   UNL     1       3.878   0.138   0.404  0.00  0.00    +0.047 A 
ATOM      7  N   UNL     1       2.764  -0.457   0.029  0.00  0.00    -0.233 NA
ATOM      8  C   UNL     1       2.349  -3.136   2.536  0.00  0.00    +0.264 A 
ATOM      9  O   UNL     1       2.887  -3.598   3.524  0.00  0.00    -0.267 OA
ATOM     10  N   UNL     1       1.201  -3.665   2.058  0.00  0.00    -0.274 N 
ATOM     11  H   UNL     1       0.801  -4.424   2.511  0.00  0.00    +0.173 HD
ATOM     12  C   UNL     1       0.603  -3.154   0.971  0.00  0.00    +0.331 A 
ATOM     13  O   UNL     1      -0.431  -3.663   0.584  0.00  0.00    -0.246 OA
ENDROOT
BRANCH   4  14
ATOM     14  C   UNL     1       4.851  -1.863   3.446  0.00  0.00    +0.245 C 
ATOM     15  O   UNL     1       4.265  -1.999   4.502  0.00  0.00    -0.270 OA
ATOM     16  N   UNL     1       6.163  -2.156   3.360  0.00  0.00    -0.313 N 
ATOM     17  H   UNL     1       6.630  -2.047   2.517  0.00  0.00    +0.149 HD
BRANCH  16  18
ATOM     18  C   UNL     1       6.884  -2.640   4.540  0.00  0.00    +0.092 C 
BRANCH  18  19
ATOM     19  C   UNL     1       8.348  -2.897   4.173  0.00  0.00    -0.055 C 
ATOM     20  C   UNL     1       9.101  -3.402   5.405  0.00  0.00    -0.008 C 
ATOM     21  C   UNL     1       8.419  -3.948   3.064  0.00  0.00    -0.008 C 
BRANCH  19  22
ATOM     22  N   UNL     1       8.961  -1.647   3.703  0.00  0.00    +0.384 N 
ATOM     23  C   UNL     1       8.883  -0.636   4.764  0.00  0.00    -0.078 C 
ATOM     24  C   UNL     1       9.447   0.691   4.252  0.00  0.00    -0.018 C 
ATOM     25  C   UNL     1      10.909   0.493   3.839  0.00  0.00    -0.001 C 
ATOM     26  C   UNL     1      10.985  -0.616   2.786  0.00  0.00    -0.031 C 
ATOM     27  C   UNL     1      10.364  -1.894   3.352  0.00  0.00    -0.075 C 
ATOM     28  C   UNL     1      12.449  -0.875   2.422  0.00  0.00    +0.005 C 
ATOM     29  H   UNL     1       8.465  -1.316   2.889  0.00  0.00    -0.081 HD
ENDBRANCH  19  22
ENDBRANCH  18  19
ENDBRANCH  16  18
ENDBRANCH   4  14
BRANCH   6  30
ATOM     30  C   UNL     1       4.389   1.311  -0.394  0.00  0.00    +0.032 C 
ATOM     31  C   UNL     1       3.902   2.613   0.246  0.00  0.00    +0.014 C 
ATOM     32  C   UNL     1       5.919   1.291  -0.408  0.00  0.00    +0.014 C 
ENDBRANCH   6  30
BRANCH   1  34
ATOM     33  C   UNL     1      -0.618  -0.539  -0.471  0.00  0.00    +0.027 C 
ATOM     34  C   UNL     1       0.386  -1.614  -0.893  0.00  0.00    +0.125 C 
ENDBRANCH   1  34
TORSDOF 6
