REMARK  Name = ZINC63785621
REMARK  6 active torsions:
REMARK  status: ('A' for Active; 'I' for Inactive)
REMARK    1  A    between atoms: N_9  and  C_12
REMARK    2  A    between atoms: C_12  and  C_13
REMARK    3  A    between atoms: C_16  and  C_19
REMARK    4  A    between atoms: N_21  and  C_22
REMARK    5  A    between atoms: C_22  and  C_23
REMARK    6  A    between atoms: C_23  and  C_24
REMARK                            x       y       z     vdW  Elec       q    Type
REMARK                         _______ _______ _______ _____ _____    ______ ____
ROOT
ATOM      1  C   UNL     1       2.436  -4.769  -1.526  0.00  0.00    +0.008 C 
ATOM      2  C   UNL     1       0.958  -4.570  -1.871  0.00  0.00    +0.006 C 
ATOM      3  C   UNL     1       0.658  -5.219  -3.224  0.00  0.00    +0.013 C 
ATOM      4  C   UNL     1       0.968  -6.715  -3.151  0.00  0.00    +0.075 C 
ATOM      5  C   UNL     1       2.445  -6.915  -2.806  0.00  0.00    +0.013 C 
ATOM      6  C   UNL     1       2.745  -6.266  -1.454  0.00  0.00    +0.006 C 
ENDROOT
BRANCH   4   7
ATOM      7  C   UNL     1       0.672  -7.355  -4.483  0.00  0.00    +0.216 C 
ATOM      8  O   UNL     1       0.255  -6.680  -5.401  0.00  0.00    -0.276 OA
ATOM      9  N   UNL     1       0.871  -8.677  -4.655  0.00  0.00    -0.315 N 
ATOM     10  H   UNL     1       1.204  -9.216  -3.922  0.00  0.00    +0.149 HD
BRANCH   9  11
ATOM     11  C   UNL     1       0.584  -9.298  -5.950  0.00  0.00    +0.108 C 
BRANCH  11  12
ATOM     12  C   UNL     1       0.893 -10.795  -5.878  0.00  0.00    +0.052 C 
BRANCH  12  13
ATOM     13  C   UNL     1       0.598 -11.434  -7.210  0.00  0.00    -0.040 C 
ATOM     14  C   UNL     1       1.476 -11.674  -8.210  0.00  0.00    +0.000 A 
ATOM     15  C   UNL     1       2.915 -11.421  -8.350  0.00  0.00    +0.030 A 
ATOM     16  C   UNL     1       3.536 -11.780  -9.498  0.00  0.00    +0.042 A 
ATOM     17  C   UNL     1       2.840 -12.387 -10.554  0.00  0.00    +0.022 A 
ATOM     18  C   UNL     1       1.517 -12.652 -10.498  0.00  0.00    +0.027 A 
ATOM     19  C   UNL     1       0.765 -12.316  -9.338  0.00  0.00    +0.043 A 
ATOM     20  N   UNL     1      -0.504 -12.467  -9.047  0.00  0.00    -0.380 N 
ATOM     21  C   UNL     1      -0.741 -11.943  -7.697  0.00  0.00    +0.144 C 
ATOM     22 CL   UNL     1       5.238 -11.483  -9.668  0.00  0.00    -0.084 Cl
ATOM     23  H   UNL     1      -1.174 -12.863  -9.626  0.00  0.00    +0.160 HD
ENDBRANCH  12  13
ENDBRANCH  11  12
ENDBRANCH   9  11
ENDBRANCH   4   7
BRANCH   1  24
ATOM     24  C   UNL     1       2.736  -4.120  -0.174  0.00  0.00    +0.132 C 
BRANCH  24  33
ATOM     25  C   UNL     1      -0.017   1.377   0.010  0.00  0.00    +0.001 A 
ATOM     26  C   UNL     1       1.168   2.097   0.002  0.00  0.00    +0.002 A 
ATOM     27  C   UNL     1       2.389   1.449  -0.015  0.00  0.00    +0.025 A 
ATOM     28  C   UNL     1       2.425   0.067  -0.023  0.00  0.00    +0.055 A 
ATOM     29  C   UNL     1       1.222  -0.666  -0.013  0.00  0.00    +0.060 A 
ATOM     30  C   UNL     1       0.002  -0.004   0.002  0.00  0.00    +0.015 A 
ATOM     31  C   UNL     1       1.338  -2.138  -0.014  0.00  0.00    +0.263 C 
ATOM     32  O   UNL     1       0.376  -2.846   0.212  0.00  0.00    -0.269 OA
ATOM     33  N   UNL     1       2.554  -2.670  -0.277  0.00  0.00    -0.217 N 
ATOM     34  N   UNL     1       3.612  -1.893  -0.635  0.00  0.00    -0.158 NA
ATOM     35  N   UNL     1       3.609  -0.660  -0.045  0.00  0.00    -0.264 N 
ATOM     36  H   UNL     1       3.680  -1.814  -1.639  0.00  0.00    +0.168 HD
ATOM     37  H   UNL     1       4.418  -0.299   0.351  0.00  0.00    +0.168 HD
ENDBRANCH  24  33
ENDBRANCH   1  24
TORSDOF 6
