REMARK  Name = ZINC63795276
REMARK  7 active torsions:
REMARK  status: ('A' for Active; 'I' for Inactive)
REMARK    1  A    between atoms: C_1  and  C_2
REMARK    2  A    between atoms: C_4  and  C_13
REMARK    3  A    between atoms: C_13  and  C_14
REMARK    4  A    between atoms: C_14  and  N_15
REMARK    5  A    between atoms: C_16  and  C_18
REMARK    6  A    between atoms: N_20  and  C_21
REMARK    7  A    between atoms: C_25  and  O_27
REMARK                            x       y       z     vdW  Elec       q    Type
REMARK                         _______ _______ _______ _____ _____    ______ ____
ROOT
ATOM      1  N   UNL     1      -4.818  -0.829  -1.546  0.00  0.00    -0.307 N 
ATOM      2  C   UNL     1      -6.034  -1.384  -1.374  0.00  0.00    +0.299 C 
ATOM      3  O   UNL     1      -6.254  -2.074  -0.400  0.00  0.00    -0.265 OA
ATOM      4  H   UNL     1      -4.642  -0.278  -2.324  0.00  0.00    +0.149 HD
ENDROOT
BRANCH   2   5
ATOM      5  C   UNL     1      -7.111  -1.150  -2.382  0.00  0.00    +0.303 C 
ATOM      6  O   UNL     1      -6.891  -0.460  -3.356  0.00  0.00    -0.265 OA
ATOM      7  N   UNL     1      -8.327  -1.705  -2.210  0.00  0.00    -0.278 N 
ATOM      8  H   UNL     1      -8.484  -2.310  -1.468  0.00  0.00    +0.155 HD
BRANCH   7   9
ATOM      9  C   UNL     1      -9.363  -1.409  -3.100  0.00  0.00    +0.037 A 
ATOM     10  C   UNL     1     -10.670  -1.309  -2.639  0.00  0.00    +0.023 A 
ATOM     11  C   UNL     1     -11.693  -1.016  -3.520  0.00  0.00    +0.005 A 
ATOM     12  C   UNL     1     -11.420  -0.821  -4.861  0.00  0.00    +0.045 A 
ATOM     13  C   UNL     1     -10.116  -0.919  -5.327  0.00  0.00    +0.119 A 
ATOM     14  C   UNL     1      -9.086  -1.207  -4.446  0.00  0.00    +0.068 A 
BRANCH  13  15
ATOM     15  O   UNL     1      -9.850  -0.727  -6.645  0.00  0.00    -0.507 OA
ATOM     16  H   UNL     1      -9.654   0.191  -6.878  0.00  0.00    +0.292 HD
ENDBRANCH  13  15
ENDBRANCH   7   9
ENDBRANCH   2   5
BRANCH   1  17
ATOM     17  C   UNL     1      -3.762  -1.059  -0.557  0.00  0.00    +0.109 C 
BRANCH  17  18
ATOM     18  C   UNL     1      -2.491  -0.323  -0.987  0.00  0.00    +0.052 C 
BRANCH  18  21
ATOM     19  C   UNL     1      -0.014   1.512   0.015  0.00  0.00    +0.035 C 
ATOM     20  C   UNL     1       0.007  -0.018  -0.005  0.00  0.00    +0.103 C 
ATOM     21  C   UNL     1      -1.405  -0.559   0.030  0.00  0.00    -0.037 C 
ATOM     22  C   UNL     1      -1.495  -1.298   1.159  0.00  0.00    +0.002 A 
ATOM     23  C   UNL     1      -2.590  -2.073   1.755  0.00  0.00    +0.048 A 
ATOM     24  C   UNL     1      -2.374  -2.723   2.923  0.00  0.00    +0.124 A 
ATOM     25  C   UNL     1      -1.132  -2.674   3.576  0.00  0.00    +0.040 A 
ATOM     26  C   UNL     1      -0.080  -1.983   3.089  0.00  0.00    +0.029 A 
ATOM     27  C   UNL     1      -0.196  -1.262   1.868  0.00  0.00    +0.043 A 
ATOM     28  N   UNL     1       0.666  -0.530   1.201  0.00  0.00    -0.378 N 
ATOM     29  F   UNL     1      -3.380  -3.437   3.475  0.00  0.00    -0.205 F 
ATOM     30  H   UNL     1       1.584  -0.357   1.462  0.00  0.00    +0.160 HD
ENDBRANCH  18  21
ENDBRANCH  17  18
ENDBRANCH   1  17
TORSDOF 6
