REMARK  Name = ZINC41586400
REMARK  9 active torsions:
REMARK  status: ('A' for Active; 'I' for Inactive)
REMARK    1  A    between atoms: C_1  and  C_2
REMARK    2  A    between atoms: C_2  and  O_3
REMARK    3  A    between atoms: O_3  and  C_4
REMARK    4  A    between atoms: C_4  and  C_6
REMARK    5  A    between atoms: N_11  and  C_13
REMARK    6  A    between atoms: C_13  and  C_14
REMARK    7  A    between atoms: C_15  and  O_33
REMARK    8  A    between atoms: C_17  and  C_32
REMARK    9  A    between atoms: C_22  and  C_23
REMARK                            x       y       z     vdW  Elec       q    Type
REMARK                         _______ _______ _______ _____ _____    ______ ____
ROOT
ATOM      1  C   UNL     1      -5.673  -6.120   0.199  0.00  0.00    +0.020 A 
ATOM      2  C   UNL     1      -6.174  -6.397   1.461  0.00  0.00    +0.122 A 
ATOM      3  C   UNL     1      -7.294  -7.208   1.616  0.00  0.00    +0.050 A 
ATOM      4  C   UNL     1      -7.912  -7.742   0.520  0.00  0.00    -0.033 A 
ATOM      5  C   UNL     1      -7.419  -7.472  -0.756  0.00  0.00    +0.071 A 
ATOM      6  C   UNL     1      -6.293  -6.649  -0.926  0.00  0.00    +0.145 A 
ATOM      7  O   UNL     1      -6.011  -6.529  -2.241  0.00  0.00    -0.451 OA
ATOM      8  C   UNL     1      -6.885  -7.221  -3.010  0.00  0.00    +0.176 C 
ATOM      9  C   UNL     1      -6.872  -7.301  -4.364  0.00  0.00    +0.058 C 
ATOM     10  C   UNL     1      -7.842  -7.881  -2.108  0.00  0.00    +0.232 C 
ATOM     11  O   UNL     1      -8.783  -8.594  -2.411  0.00  0.00    -0.283 OA
ATOM     12  C   UNL     1      -9.124  -8.621   0.691  0.00  0.00    +0.045 C 
ENDROOT
BRANCH   9  13
ATOM     13  C   UNL     1      -5.761  -6.713  -5.124  0.00  0.00    -0.021 A 
ATOM     14  C   UNL     1      -4.633  -6.221  -4.456  0.00  0.00    +0.009 A 
ATOM     15  C   UNL     1      -3.595  -5.671  -5.176  0.00  0.00    +0.016 A 
ATOM     16  C   UNL     1      -3.665  -5.605  -6.559  0.00  0.00    +0.018 A 
ATOM     17  C   UNL     1      -4.778  -6.090  -7.227  0.00  0.00    +0.016 A 
ATOM     18  C   UNL     1      -5.821  -6.648  -6.521  0.00  0.00    +0.009 A 
ATOM     19 BR   UNL     1      -2.235  -4.848  -7.537  0.00  0.00    -0.050 Br
ENDBRANCH   9  13
BRANCH   2  20
ATOM     20  O   UNL     1      -5.566  -5.872   2.555  0.00  0.00    -0.506 OA
ATOM     21  H   UNL     1      -5.912  -5.009   2.822  0.00  0.00    +0.292 HD
ENDBRANCH   2  20
BRANCH   1  22
ATOM     22  C   UNL     1      -4.460  -5.239   0.046  0.00  0.00    -0.036 C 
BRANCH  22  27
ATOM     23  C   UNL     1      -4.138  -1.505  -0.144  0.00  0.00    +0.081 C 
ATOM     24  C   UNL     1      -4.969  -1.266  -1.408  0.00  0.00    +0.011 C 
ATOM     25  C   UNL     1      -6.160  -2.229  -1.413  0.00  0.00    -0.018 C 
ATOM     26  C   UNL     1      -5.647  -3.667  -1.319  0.00  0.00    -0.078 C 
ATOM     27  N   UNL     1      -4.884  -3.838  -0.077  0.00  0.00    +0.383 N 
ATOM     28  C   UNL     1      -3.700  -2.970  -0.096  0.00  0.00    -0.064 C 
ATOM     29  H   UNL     1      -5.465  -3.595   0.710  0.00  0.00    -0.081 HD
BRANCH  23  30
ATOM     30  C   UNL     1      -2.921  -0.617  -0.166  0.00  0.00    +0.308 C 
ATOM     31  O   UNL     1      -1.816  -1.105  -0.145  0.00  0.00    -0.251 OA
BRANCH  30  32
ATOM     32  O   UNL     1      -3.065   0.717  -0.210  0.00  0.00    -0.465 OA
BRANCH  32  34
ATOM     33  C   UNL     1      -2.230   2.984  -0.280  0.00  0.00    +0.048 C 
ATOM     34  C   UNL     1      -1.868   1.498  -0.230  0.00  0.00    +0.229 C 
ENDBRANCH  32  34
ENDBRANCH  30  32
ENDBRANCH  23  30
ENDBRANCH  22  27
ENDBRANCH   1  22
TORSDOF 7
