REMARK  Name = ZINC08584443
REMARK  17 active torsions:
REMARK  status: ('A' for Active; 'I' for Inactive)
REMARK    1  A    between atoms: C_1  and  C_2
REMARK    2  A    between atoms: C_3  and  C_7
REMARK    3  A    between atoms: C_8  and  C_9
REMARK    4  A    between atoms: C_10  and  C_33
REMARK    5  A    between atoms: C_14  and  N_18
REMARK    6  A    between atoms: C_19  and  C_21
REMARK    7  A    between atoms: C_21  and  C_25
REMARK    8  A    between atoms: N_22  and  O_23
REMARK    9  A    between atoms: O_23  and  C_24
REMARK   10  A    between atoms: C_33  and  O_35
REMARK   11  A    between atoms: O_35  and  C_36
REMARK   12  A    between atoms: C_36  and  O_37
REMARK   13  A    between atoms: O_37  and  C_38
REMARK   14  A    between atoms: C_38  and  C_40
REMARK   15  A    between atoms: C_40  and  C_41
REMARK   16  A    between atoms: C_40  and  C_42
REMARK   17  A    between atoms: C_40  and  C_43
REMARK                            x       y       z     vdW  Elec       q    Type
REMARK                         _______ _______ _______ _____ _____    ______ ____
ROOT
ATOM      1  C   UNL     1       0.725   1.471   6.168  0.00  0.00    -0.009 C 
ATOM      2  C   UNL     1       1.185   2.576   5.533  0.00  0.00    +0.126 C 
ATOM      3  N   UNL     1       1.952   3.519   6.228  0.00  0.00    -0.249 N 
ATOM      4  C   UNL     1       2.059   3.684   7.704  0.00  0.00    +0.169 C 
ATOM      5  C   UNL     1       3.345   4.465   7.496  0.00  0.00    +0.191 C 
ATOM      6  C   UNL     1       2.874   4.459   6.061  0.00  0.00    +0.244 C 
ATOM      7  O   UNL     1       3.220   5.096   5.088  0.00  0.00    -0.273 OA
ATOM      8  S   UNL     1       2.265   2.005   8.387  0.00  0.00    -0.131 S 
ATOM      9  C   UNL     1       0.877   1.121   7.612  0.00  0.00    +0.108 C 
ENDROOT
BRANCH   5  10
ATOM     10  N   UNL     1       4.567   3.693   7.736  0.00  0.00    -0.296 N 
ATOM     11  C   UNL     1       5.706   4.325   8.083  0.00  0.00    +0.268 C 
ATOM     12  O   UNL     1       5.699   5.523   8.285  0.00  0.00    -0.268 OA
ATOM     13  H   UNL     1       4.557   2.727   7.646  0.00  0.00    +0.150 HD
BRANCH  11  14
ATOM     14  C   UNL     1       6.968   3.559   8.217  0.00  0.00    +0.190 C 
ATOM     15  N   UNL     1       7.245   2.952   9.336  0.00  0.00    -0.078 NA
BRANCH  14  16
ATOM     16  C   UNL     1       7.911   3.484   7.081  0.00  0.00    +0.107 A 
ATOM     17  C   UNL     1       9.082   2.782   7.198  0.00  0.00    +0.078 A 
ATOM     18  S   UNL     1       9.785   3.034   5.573  0.00  0.00    -0.060 S 
ATOM     19  C   UNL     1       8.468   4.044   4.911  0.00  0.00    +0.156 A 
ATOM     20  N   UNL     1       7.636   4.102   5.933  0.00  0.00    -0.223 NA
ATOM     21  N   UNL     1       8.351   4.616   3.655  0.00  0.00    -0.338 N 
ATOM     22  H   UNL     1       7.569   5.146   3.434  0.00  0.00    +0.144 HD
ATOM     23  H   UNL     1       9.051   4.487   2.996  0.00  0.00    +0.144 HD
ENDBRANCH  14  16
BRANCH  15  24
ATOM     24  O   UNL     1       6.396   3.112  10.458  0.00  0.00    -0.396 OA
ATOM     25  C   UNL     1       6.820   2.390  11.616  0.00  0.00    +0.313 C 
ENDBRANCH  15  24
ENDBRANCH  11  14
ENDBRANCH   5  10
BRANCH   1  27
ATOM     26  C   UNL     1       0.558  -0.687   5.143  0.00  0.00    +0.017 C 
ATOM     27  C   UNL     1       0.028   0.543   5.374  0.00  0.00    +0.007 C 
BRANCH  26  30
ATOM     28  C   UNL     1       1.936  -3.445   5.021  0.00  0.00    +0.067 C 
ATOM     29  C   UNL     1       2.577  -2.182   5.536  0.00  0.00    +0.053 A 
ATOM     30  C   UNL     1       1.883  -0.976   5.555  0.00  0.00    +0.035 A 
ATOM     31  S   UNL     1       3.130   0.106   6.238  0.00  0.00    -0.076 S 
ATOM     32  C   UNL     1       4.381  -1.082   6.432  0.00  0.00    +0.156 A 
ATOM     33  N   UNL     1       3.809  -2.178   5.980  0.00  0.00    -0.252 NA
ENDBRANCH  26  30
ENDBRANCH   1  27
BRANCH   2  34
ATOM     34  C   UNL     1       0.883   2.782   4.162  0.00  0.00    +0.357 C 
ATOM     35  O   UNL     1       1.202   3.823   3.619  0.00  0.00    -0.243 OA
BRANCH  34  36
ATOM     36  O   UNL     1       0.243   1.822   3.461  0.00  0.00    -0.423 OA
BRANCH  36  37
ATOM     37  C   UNL     1      -0.029   2.097   2.085  0.00  0.00    +0.473 C 
BRANCH  37  38
ATOM     38  O   UNL     1       1.197   1.976   1.316  0.00  0.00    -0.427 OA
BRANCH  38  39
ATOM     39  C   UNL     1       1.644   0.734   1.072  0.00  0.00    +0.315 C 
ATOM     40  O   UNL     1       1.030  -0.221   1.488  0.00  0.00    -0.250 OA
BRANCH  39  41
ATOM     41  C   UNL     1       2.910   0.530   0.281  0.00  0.00    +0.059 C 
ATOM     42  C   UNL     1       3.192  -0.968   0.148  0.00  0.00    +0.022 C 
ATOM     43  C   UNL     1       4.077   1.207   1.002  0.00  0.00    +0.022 C 
ATOM     44  C   UNL     1       2.745   1.143  -1.111  0.00  0.00    +0.022 C 
ENDBRANCH  39  41
ENDBRANCH  38  39
ENDBRANCH  37  38
ENDBRANCH  36  37
ENDBRANCH  34  36
ENDBRANCH   2  34
TORSDOF 12
