REMARK  Name = ZINC05126155
REMARK  4 active torsions:
REMARK  status: ('A' for Active; 'I' for Inactive)
REMARK    1  A    between atoms: C_3  and  C_6
REMARK    2  A    between atoms: C_8  and  C_12
REMARK    3  A    between atoms: N_14  and  N_15
REMARK    4  A    between atoms: C_16  and  C_17
REMARK                            x       y       z     vdW  Elec       q    Type
REMARK                         _______ _______ _______ _____ _____    ______ ____
ROOT
ATOM      1  C   UNL     1       3.442   6.304   0.002  0.00  0.00    +0.281 C 
ATOM      2  O   UNL     1       4.501   5.705  -0.011  0.00  0.00    -0.267 OA
ATOM      3  N   UNL     1       2.281   5.621   0.009  0.00  0.00    -0.202 N 
ATOM      4  H   UNL     1       1.437   6.099   0.020  0.00  0.00    +0.178 HD
ENDROOT
BRANCH   1   7
ATOM      5  C   UNL     1       4.004   9.918   0.015  0.00  0.00    +0.100 A 
ATOM      6  C   UNL     1       4.531   8.611   0.009  0.00  0.00    +0.063 A 
ATOM      7  C   UNL     1       3.430   7.776   0.010  0.00  0.00    +0.122 A 
ATOM      8  N   UNL     1       2.329   8.585   0.025  0.00  0.00    -0.272 N 
ATOM      9  H   UNL     1       1.381   8.264   0.032  0.00  0.00    +0.189 HD
ATOM     10  N   UNL     1       2.691   9.817   0.027  0.00  0.00    -0.173 NA
BRANCH   5  13
ATOM     11  C   UNL     1       5.261  13.490   0.020  0.00  0.00    +0.008 A 
ATOM     12  C   UNL     1       4.336  12.468   0.024  0.00  0.00    +0.018 A 
ATOM     13  C   UNL     1       4.785  11.175   0.013  0.00  0.00    +0.039 A 
ATOM     14  S   UNL     1       6.556  11.400   0.006  0.00  0.00    -0.095 S 
ATOM     15  C   UNL     1       6.584  13.185   0.006  0.00  0.00    +0.046 A 
ENDBRANCH   5  13
ENDBRANCH   1   7
BRANCH   3  16
ATOM     16  N   UNL     1       2.292   4.220   0.002  0.00  0.00    -0.187 NA
ATOM     17  C   UNL     1       1.173   3.562   0.009  0.00  0.00    +0.141 C 
BRANCH  17  18
ATOM     18  C   UNL     1       1.185   2.087   0.002  0.00  0.00    +0.031 A 
ATOM     19  C   UNL     1      -0.017   1.376   0.010  0.00  0.00    +0.027 A 
ATOM     20  C   UNL     1       0.002  -0.004   0.002  0.00  0.00    +0.019 A 
ATOM     21  C   UNL     1       1.208  -0.684  -0.013  0.00  0.00    +0.018 A 
ATOM     22  C   UNL     1       2.403   0.012  -0.021  0.00  0.00    +0.040 A 
ATOM     23  C   UNL     1       2.400   1.395  -0.013  0.00  0.00    +0.132 A 
ATOM     24  F   UNL     1       3.568   2.074  -0.020  0.00  0.00    -0.205 F 
ATOM     25 BR   UNL     1      -1.624  -0.969   0.013  0.00  0.00    -0.050 Br
ENDBRANCH  17  18
ENDBRANCH   3  16
TORSDOF 4
