REMARK  Name = ZINC17130512
REMARK  5 active torsions:
REMARK  status: ('A' for Active; 'I' for Inactive)
REMARK    1  A    between atoms: C_1  and  C_2
REMARK    2  A    between atoms: C_3  and  N_11
REMARK    3  A    between atoms: C_4  and  C_10
REMARK    4  A    between atoms: N_5  and  C_7
REMARK    5  A    between atoms: N_12  and  C_13
REMARK                            x       y       z     vdW  Elec       q    Type
REMARK                         _______ _______ _______ _____ _____    ______ ____
ROOT
ATOM      1  C   UNL     1      -3.555  -0.514   0.244  0.00  0.00    +0.070 C 
ATOM      2  C   UNL     1      -4.779   0.358   0.123  0.00  0.00    +0.088 A 
ATOM      3  C   UNL     1      -4.814   1.765   0.270  0.00  0.00    +0.130 A 
ATOM      4  C   UNL     1      -6.120   2.163   0.076  0.00  0.00    +0.070 A 
ATOM      5  N   UNL     1      -6.847   1.050  -0.171  0.00  0.00    -0.220 N 
ATOM      6  N   UNL     1      -5.989  -0.055  -0.132  0.00  0.00    -0.168 NA
ATOM      7  C   UNL     1      -6.641   3.576   0.130  0.00  0.00    +0.068 C 
ENDROOT
BRANCH   5   8
ATOM      8  C   UNL     1      -8.172   1.012  -0.415  0.00  0.00    +0.154 C 
ATOM      9  S   UNL     1      -9.056   2.469  -0.573  0.00  0.00    -0.023 S 
ATOM     10  S   UNL     1      -8.995  -0.539  -0.570  0.00  0.00    -0.023 SA
ENDBRANCH   5   8
BRANCH   3  11
ATOM     11  N   UNL     1      -3.752   2.578   0.546  0.00  0.00    -0.146 NA
ATOM     12  N   UNL     1      -2.576   2.071   0.705  0.00  0.00    -0.148 NA
BRANCH  12  13
ATOM     13  C   UNL     1      -1.512   2.884   0.982  0.00  0.00    +0.106 A 
ATOM     14  C   UNL     1      -1.696   4.265   1.098  0.00  0.00    +0.031 A 
ATOM     15  C   UNL     1      -0.618   5.080   1.371  0.00  0.00    +0.004 A 
ATOM     16  C   UNL     1       0.643   4.535   1.536  0.00  0.00    +0.021 A 
ATOM     17  C   UNL     1       0.834   3.169   1.428  0.00  0.00    +0.061 A 
ATOM     18  C   UNL     1      -0.237   2.339   1.155  0.00  0.00    +0.086 A 
ATOM     19 CL   UNL     1       0.002   0.625   1.019  0.00  0.00    -0.080 Cl
ATOM     20 CL   UNL     1       2.420   2.495   1.638  0.00  0.00    -0.082 Cl
ENDBRANCH  12  13
ENDBRANCH   3  11
TORSDOF 3
