REMARK  Name = ZINC63970582
REMARK  7 active torsions:
REMARK  status: ('A' for Active; 'I' for Inactive)
REMARK    1  A    between atoms: C_1  and  C_2
REMARK    2  A    between atoms: C_2  and  C_3
REMARK    3  A    between atoms: C_2  and  C_4
REMARK    4  A    between atoms: C_2  and  C_5
REMARK    5  A    between atoms: C_8  and  C_11
REMARK    6  A    between atoms: C_11  and  N_12
REMARK    7  A    between atoms: N_20  and  C_21
REMARK                            x       y       z     vdW  Elec       q    Type
REMARK                         _______ _______ _______ _____ _____    ______ ____
ROOT
ATOM      1  N   UNL     1       4.576   0.950  -1.203  0.00  0.00    -0.294 NA
ATOM      2  C   UNL     1       3.956   1.772  -2.250  0.00  0.00    +0.104 C 
ATOM      3  C   UNL     1       3.916   3.233  -1.791  0.00  0.00    +0.124 C 
ATOM      4  N   UNL     1       5.276   3.639  -1.406  0.00  0.00    -0.283 N 
ATOM      5  C   UNL     1       6.015   2.788  -0.462  0.00  0.00    +0.124 C 
ATOM      6  C   UNL     1       5.973   1.344  -0.974  0.00  0.00    +0.104 C 
ATOM      7  C   UNL     1       5.829   4.763  -1.904  0.00  0.00    +0.306 C 
ATOM      8  O   UNL     1       5.243   5.404  -2.754  0.00  0.00    -0.252 OA
ATOM      9  N   UNL     1       7.033   5.175  -1.460  0.00  0.00    -0.270 N 
ATOM     10  H   UNL     1       7.535   4.625  -0.837  0.00  0.00    +0.156 HD
ENDROOT
BRANCH   9  11
ATOM     11  C   UNL     1       7.552   6.376  -1.890  0.00  0.00    +0.055 C 
ATOM     12  C   UNL     1       6.999   7.267  -2.741  0.00  0.00    +0.155 C 
ATOM     13  N   UNL     1       7.807   8.318  -2.915  0.00  0.00    -0.161 NA
ATOM     14  N   UNL     1       8.866   8.270  -2.285  0.00  0.00    -0.182 NA
ATOM     15  C   UNL     1       8.877   7.016  -1.513  0.00  0.00    +0.218 C 
ENDBRANCH   9  11
BRANCH   1  16
ATOM     16  C   UNL     1       4.479  -0.479  -1.529  0.00  0.00    +0.135 C 
BRANCH  16  19
ATOM     17  C   UNL     1       0.709  -0.486  -1.242  0.00  0.00    +0.168 C 
ATOM     18  N   UNL     1       2.126  -0.071  -1.252  0.00  0.00    -0.276 NA
ATOM     19  C   UNL     1       3.032  -0.901  -1.515  0.00  0.00    +0.039 C 
ATOM     20  C   UNL     1       2.640  -2.340  -1.821  0.00  0.00    +0.123 C 
ATOM     21  S   UNL     1       0.889  -2.324  -1.228  0.00  0.00    -0.128 S 
BRANCH  17  23
ATOM     22  C   UNL     1      -0.021   1.539   0.026  0.00  0.00    +0.013 C 
ATOM     23  C   UNL     1      -0.003   0.009   0.018  0.00  0.00    -0.006 C 
ATOM     24  C   UNL     1       0.739  -0.499   1.256  0.00  0.00    +0.013 C 
ATOM     25  C   UNL     1      -1.440  -0.518   0.033  0.00  0.00    +0.013 C 
ENDBRANCH  17  23
ENDBRANCH  16  19
ENDBRANCH   1  16
TORSDOF 4
