REMARK  Name = ZINC05945395
REMARK  12 active torsions:
REMARK  status: ('A' for Active; 'I' for Inactive)
REMARK    1  A    between atoms: C_1  and  C_2
REMARK    2  A    between atoms: C_2  and  C_28
REMARK    3  A    between atoms: C_4  and  N_10
REMARK    4  A    between atoms: C_6  and  C_8
REMARK    5  A    between atoms: C_6  and  C_9
REMARK    6  A    between atoms: N_10  and  C_11
REMARK    7  A    between atoms: N_10  and  C_17
REMARK    8  A    between atoms: C_11  and  C_12
REMARK    9  A    between atoms: C_17  and  N_19
REMARK   10  A    between atoms: N_19  and  C_20
REMARK   11  A    between atoms: C_25  and  O_26
REMARK   12  A    between atoms: O_26  and  C_27
REMARK                            x       y       z     vdW  Elec       q    Type
REMARK                         _______ _______ _______ _____ _____    ______ ____
ROOT
ATOM      1  N   UNL     1       2.454  -0.760  -2.780  0.00  0.00    -0.305 N 
ENDROOT
BRANCH   1   5
ATOM      2  C   UNL     1       1.360  -0.106   1.436  0.00  0.00    -0.010 C 
ATOM      3  C   UNL     1       1.970   0.988   0.553  0.00  0.00    -0.072 C 
ATOM      4  C   UNL     1       2.710   0.352  -0.619  0.00  0.00    +0.009 C 
ATOM      5  C   UNL     1       1.716  -0.182  -1.650  0.00  0.00    +0.073 C 
ATOM      6  C   UNL     1       0.869   0.990  -2.147  0.00  0.00    +0.009 C 
ATOM      7  C   UNL     1       0.115   1.631  -0.987  0.00  0.00    -0.072 C 
ATOM      8  N   UNL     1       0.967   1.955   0.144  0.00  0.00    +0.386 N 
ATOM      9  C   UNL     1      -1.050   0.730  -0.565  0.00  0.00    -0.010 C 
ATOM     10  C   UNL     1      -0.498   2.951  -1.508  0.00  0.00    -0.010 C 
ATOM     11  C   UNL     1       3.018   1.732   1.413  0.00  0.00    -0.010 C 
ATOM     12  H   UNL     1       0.367   2.157   0.950  0.00  0.00    -0.084 HD
ATOM     13  H   UNL     1       1.441   2.842  -0.057  0.00  0.00    -0.084 HD
ENDBRANCH   1   5
BRANCH   1  14
ATOM     14  C   UNL     1       2.360  -2.078  -3.042  0.00  0.00    +0.138 C 
ATOM     15  S   UNL     1       1.286  -3.057  -2.138  0.00  0.00    -0.018 S 
BRANCH  14  16
ATOM     16  N   UNL     1       3.113  -2.627  -4.016  0.00  0.00    -0.294 N 
ATOM     17  H   UNL     1       3.770  -2.087  -4.483  0.00  0.00    +0.154 HD
BRANCH  16  18
ATOM     18  C   UNL     1       2.946  -3.976  -4.355  0.00  0.00    +0.075 A 
ATOM     19  C   UNL     1       2.878  -4.940  -3.359  0.00  0.00    +0.027 A 
ATOM     20  C   UNL     1       2.713  -6.270  -3.696  0.00  0.00    +0.002 A 
ATOM     21  C   UNL     1       2.616  -6.644  -5.023  0.00  0.00    +0.004 A 
ATOM     22  C   UNL     1       2.683  -5.689  -6.021  0.00  0.00    +0.047 A 
ATOM     23  C   UNL     1       2.843  -4.353  -5.692  0.00  0.00    +0.141 A 
BRANCH  23  24
ATOM     24  O   UNL     1       2.904  -3.412  -6.672  0.00  0.00    -0.493 OA
ATOM     25  C   UNL     1       2.790  -3.872  -8.020  0.00  0.00    +0.277 C 
ENDBRANCH  23  24
ENDBRANCH  16  18
ENDBRANCH  14  16
ENDBRANCH   1  14
BRANCH   1  26
ATOM     26  C   UNL     1       3.292   0.097  -3.622  0.00  0.00    +0.149 C 
BRANCH  26  27
ATOM     27  C   UNL     1       4.689   0.143  -3.059  0.00  0.00    +0.007 A 
ATOM     28  C   UNL     1       5.745  -0.662  -3.331  0.00  0.00    +0.013 A 
ATOM     29  C   UNL     1       6.947  -0.430  -2.688  0.00  0.00    +0.008 A 
ATOM     30  C   UNL     1       7.034   0.595  -1.806  0.00  0.00    +0.045 A 
ATOM     31  S   UNL     1       5.384   1.276  -1.868  0.00  0.00    -0.100 S 
ENDBRANCH  26  27
ENDBRANCH   1  26
TORSDOF 7
