REMARK  Name = ZINC04453553
REMARK  7 active torsions:
REMARK  status: ('A' for Active; 'I' for Inactive)
REMARK    1  A    between atoms: C_1  and  C_2
REMARK    2  A    between atoms: C_2  and  C_3
REMARK    3  A    between atoms: C_11  and  C_23
REMARK    4  A    between atoms: C_13  and  C_19
REMARK    5  A    between atoms: C_13  and  C_21
REMARK    6  A    between atoms: C_14  and  N_18
REMARK    7  A    between atoms: C_15  and  C_16
REMARK                            x       y       z     vdW  Elec       q    Type
REMARK                         _______ _______ _______ _____ _____    ______ ____
ROOT
ATOM      1  C   UNL     1       0.718  -0.497  -1.257  0.00  0.00    -0.007 C 
ATOM      2  C   UNL     1      -0.095  -0.110  -2.500  0.00  0.00    +0.031 C 
ATOM      3  C   UNL     1      -1.467  -0.717  -2.357  0.00  0.00    -0.021 C 
ATOM      4  C   UNL     1      -1.636  -1.870  -1.740  0.00  0.00    -0.029 C 
ATOM      5  C   UNL     1      -0.511  -2.693  -1.185  0.00  0.00    +0.031 C 
ATOM      6  C   UNL     1       0.840  -2.019  -1.216  0.00  0.00    +0.012 C 
ATOM      7  C   UNL     1      -0.898  -3.147   0.223  0.00  0.00    +0.073 C 
ATOM      8  C   UNL     1      -2.131  -4.047   0.132  0.00  0.00    +0.189 C 
ATOM      9  C   UNL     1      -3.220  -3.416  -0.681  0.00  0.00    +0.054 C 
ATOM     10  C   UNL     1      -3.010  -2.409  -1.567  0.00  0.00    +0.074 C 
ENDROOT
BRANCH   7  11
ATOM     11  C   UNL     1       0.245  -3.913   0.838  0.00  0.00    -0.004 A 
ATOM     12  C   UNL     1       0.941  -3.644   1.970  0.00  0.00    +0.011 A 
ATOM     13  C   UNL     1       1.962  -4.497   2.347  0.00  0.00    +0.008 A 
ATOM     14  C   UNL     1       2.236  -5.576   1.574  0.00  0.00    +0.045 A 
ATOM     15  S   UNL     1       1.028  -5.413   0.270  0.00  0.00    -0.101 S 
ENDBRANCH   7  11
BRANCH   9  16
ATOM     16  N   UNL     1      -4.496  -3.879  -0.521  0.00  0.00    -0.358 N 
ATOM     17  H   UNL     1      -4.676  -4.598   0.105  0.00  0.00    +0.142 HD
ATOM     18  H   UNL     1      -5.222  -3.489  -1.034  0.00  0.00    +0.142 HD
ENDBRANCH   9  16
BRANCH   1  20
ATOM     19  C   UNL     1      -0.019   1.526   0.010  0.00  0.00    +0.004 C 
ATOM     20  C   UNL     1       0.002  -0.004   0.002  0.00  0.00    +0.000 C 
ENDBRANCH   1  20
BRANCH  10  21
ATOM     21  C   UNL     1      -4.100  -1.873  -2.325  0.00  0.00    +0.101 C 
ATOM     22  N   UNL     1      -4.964  -1.447  -2.926  0.00  0.00    -0.191 NA
ENDBRANCH  10  21
BRANCH   8  23
ATOM     23  C   UNL     1      -1.747  -5.325  -0.491  0.00  0.00    +0.091 C 
ATOM     24  N   UNL     1      -1.451  -6.311  -0.972  0.00  0.00    -0.194 NA
ENDBRANCH   8  23
BRANCH   8  25
ATOM     25  C   UNL     1      -2.635  -4.310   1.489  0.00  0.00    +0.091 C 
ATOM     26  N   UNL     1      -3.024  -4.512   2.537  0.00  0.00    -0.194 NA
ENDBRANCH   8  25
TORSDOF 6
