REMARK  Name = ZINC14743663
REMARK  8 active torsions:
REMARK  status: ('A' for Active; 'I' for Inactive)
REMARK    1  A    between atoms: C_5  and  C_7
REMARK    2  A    between atoms: C_7  and  O_8
REMARK    3  A    between atoms: O_8  and  C_9
REMARK    4  A    between atoms: N_15  and  C_17
REMARK    5  A    between atoms: C_17  and  C_18
REMARK    6  A    between atoms: C_24  and  C_25
REMARK    7  A    between atoms: C_24  and  N_68
REMARK    8  A    between atoms: C_30  and  C_31
REMARK                            x       y       z     vdW  Elec       q    Type
REMARK                         _______ _______ _______ _____ _____    ______ ____
ROOT
ATOM      1  C   UNL     1       3.807   6.363  -0.425  0.00  0.00    +0.120 C 
ATOM      2  C   UNL     1       3.904   5.144  -1.323  0.00  0.00    -0.044 C 
ATOM      3  C   UNL     1       5.304   3.766   0.110  0.00  0.00    +0.019 C 
ATOM      4  C   UNL     1       5.171   4.430   1.464  0.00  0.00    +0.199 C 
ATOM      5  O   UNL     1       5.139   3.751   2.469  0.00  0.00    -0.278 OA
ATOM      6  N   UNL     1       5.090   5.760   1.556  0.00  0.00    -0.300 N 
ATOM      7  C   UNL     1       5.117   6.582   0.335  0.00  0.00    +0.137 C 
ATOM      8  N   UNL     1       3.994   3.874  -0.576  0.00  0.00    +0.390 N 
ATOM      9  H   UNL     1       3.249   3.852   0.130  0.00  0.00    -0.081 HD
ENDROOT
BRANCH   1  10
ATOM     10  O   UNL     1       3.528   7.514  -1.225  0.00  0.00    -0.371 OA
BRANCH  10  11
ATOM     11  C   UNL     1       2.751   8.511  -0.557  0.00  0.00    +0.215 C 
BRANCH  11  16
ATOM     12  C   UNL     1       2.821  10.713  -3.616  0.00  0.00    +0.003 A 
ATOM     13  C   UNL     1       2.081  11.786  -3.144  0.00  0.00    +0.020 A 
ATOM     14  C   UNL     1       1.590  11.749  -1.853  0.00  0.00    +0.111 A 
ATOM     15  N   UNL     1       1.815  10.708  -1.075  0.00  0.00    -0.258 NA
ATOM     16  C   UNL     1       2.519   9.673  -1.488  0.00  0.00    +0.067 A 
ATOM     17  C   UNL     1       3.041   9.639  -2.768  0.00  0.00    +0.025 A 
ENDBRANCH  11  16
ENDBRANCH  10  11
ENDBRANCH   1  10
BRANCH   6  18
ATOM     18  C   UNL     1       4.972   6.399   2.869  0.00  0.00    +0.111 C 
BRANCH  18  19
ATOM     19  C   UNL     1       6.369   6.704   3.415  0.00  0.00    +0.011 C 
ATOM     20  C   UNL     1       7.113   5.392   3.680  0.00  0.00    +0.033 C 
ATOM     21  C   UNL     1       8.478   5.705   4.299  0.00  0.00    +0.160 C 
ATOM     22  O   UNL     1       8.294   6.457   5.500  0.00  0.00    -0.380 OA
ATOM     23  C   UNL     1       7.645   7.715   5.306  0.00  0.00    +0.160 C 
ATOM     24  C   UNL     1       6.247   7.484   4.728  0.00  0.00    +0.033 C 
ENDBRANCH  18  19
ENDBRANCH   6  18
BRANCH   8  25
ATOM     25  C   UNL     1       3.811   2.740  -1.496  0.00  0.00    -0.039 C 
BRANCH  25  26
ATOM     26  C   UNL     1       3.652   1.485  -0.678  0.00  0.00    -0.019 A 
ATOM     27  C   UNL     1       4.608   0.558  -0.450  0.00  0.00    +0.107 A 
ATOM     28  N   UNL     1       4.074  -0.411   0.324  0.00  0.00    -0.284 N 
ATOM     29  H   UNL     1       4.547  -1.229   0.651  0.00  0.00    +0.188 HD
ATOM     30  N   UNL     1       2.741  -0.070   0.591  0.00  0.00    -0.174 NA
ATOM     31  C   UNL     1       2.481   1.069  -0.016  0.00  0.00    +0.094 A 
BRANCH  31  32
ATOM     32  C   UNL     1       1.184   1.790   0.000  0.00  0.00    +0.002 A 
ATOM     33  C   UNL     1      -0.013   1.076   0.008  0.00  0.00    +0.013 A 
ATOM     34  C   UNL     1      -1.216   1.750   0.017  0.00  0.00    +0.039 A 
ATOM     35  C   UNL     1      -1.236   3.136   0.029  0.00  0.00    +0.123 A 
ATOM     36  C   UNL     1      -0.049   3.849   0.022  0.00  0.00    +0.039 A 
ATOM     37  C   UNL     1       1.159   3.183   0.008  0.00  0.00    +0.013 A 
ATOM     38  F   UNL     1      -2.417   3.792   0.043  0.00  0.00    -0.205 F 
ENDBRANCH  31  32
ENDBRANCH  25  26
ENDBRANCH   8  25
TORSDOF 8
