REMARK  Name = ZINC34363710
REMARK  9 active torsions:
REMARK  status: ('A' for Active; 'I' for Inactive)
REMARK    1  A    between atoms: CB_1  and  CA_2
REMARK    2  A    between atoms: CA_2  and  C_4
REMARK    3  A    between atoms: CA_2  and  N_13
REMARK    4  A    between atoms: N_6  and  CA_7
REMARK    5  A    between atoms: CA_7  and  CB_9
REMARK    6  A    between atoms: CA_7  and  C_10
REMARK    7  A    between atoms: C_14  and  O_16
REMARK    8  A    between atoms: O_16  and  C_17
REMARK    9  A    between atoms: C_17  and  C_18
REMARK                            x       y       z     vdW  Elec       q    Type
REMARK                         _______ _______ _______ _____ _____    ______ ____
ROOT
ATOM      1  N   ALA A   1       0.688  -0.476  -1.203  0.00  0.00    -0.270 N 
ATOM      2  C   UNK A   0       0.006  -0.608  -2.358  0.00  0.00    +0.401 C 
ATOM      3  O   UNK A   0      -1.177  -0.335  -2.400  0.00  0.00    -0.226 OA
ATOM      4  H   ALA A   1       1.632  -0.695  -1.170  0.00  0.00    +0.153 HD
ENDROOT
BRANCH   1   6
ATOM      5  CB  ALA A   1      -0.019   1.526   0.010  0.00  0.00    +0.038 C 
ATOM      6  CA  ALA A   1       0.002  -0.004   0.002  0.00  0.00    +0.159 C 
BRANCH   6   7
ATOM      7  C   ALA A   1       0.731  -0.503   1.223  0.00  0.00    +0.234 C 
ATOM      8  O   ALA A   1       1.725  -1.187   1.099  0.00  0.00    -0.274 OA
ATOM      9  N   ALA A   1       0.278  -0.191   2.453  0.00  0.00    -0.301 N 
ATOM     10  H   ALA A   1      -0.517   0.356   2.553  0.00  0.00    +0.150 HD
BRANCH   9  11
ATOM     11  CA  ALA A   1       0.986  -0.676   3.640  0.00  0.00    +0.183 C 
ATOM     12  CB  ALA A   1       0.503  -2.087   3.981  0.00  0.00    +0.040 C 
BRANCH  11  13
ATOM     13  C   ALA A   1       0.710   0.244   4.801  0.00  0.00    +0.376 C 
ATOM     14  O   ALA A   1      -0.149   1.104   4.706  0.00  0.00    -0.244 OA
ATOM     15  OXT ALA A   1       1.345   0.128   5.836  0.00  0.00    -0.244 OA
ENDBRANCH  11  13
ENDBRANCH   9  11
ENDBRANCH   6   7
ENDBRANCH   1   6
BRANCH   2  16
ATOM     16  O   UNK A   0       0.636  -1.042  -3.466  0.00  0.00    -0.449 OA
BRANCH  16  17
ATOM     17  C   UNK A   0      -0.148  -1.158  -4.655  0.00  0.00    +0.246 C 
BRANCH  17  18
ATOM     18  C   UNK A   0       0.734  -1.662  -5.800  0.00  0.00    +0.088 C 
ATOM     19  C   UNK A   0       1.145  -3.092  -5.549  0.00  0.00    -0.029 A 
ATOM     20  C   UNK A   0       1.867  -3.683  -4.534  0.00  0.00    +0.005 A 
ATOM     21  C   UNK A   0       2.102  -5.046  -4.553  0.00  0.00    +0.000 A 
ATOM     22  C   UNK A   0       1.612  -5.819  -5.591  0.00  0.00    +0.001 A 
ATOM     23  C   UNK A   0       0.888  -5.237  -6.610  0.00  0.00    +0.009 A 
ATOM     24  C   UNK A   0       0.647  -3.862  -6.597  0.00  0.00    -0.014 A 
ATOM     25  C   UNK A   0      -0.086  -2.989  -7.546  0.00  0.00    -0.014 A 
ATOM     26  C   UNK A   0      -0.048  -1.673  -7.091  0.00  0.00    -0.029 A 
ATOM     27  C   UNK A   0      -0.664  -0.671  -7.809  0.00  0.00    +0.005 A 
ATOM     28  C   UNK A   0      -1.326  -0.968  -8.987  0.00  0.00    +0.000 A 
ATOM     29  C   UNK A   0      -1.370  -2.272  -9.447  0.00  0.00    +0.001 A 
ATOM     30  C   UNK A   0      -0.756  -3.282  -8.736  0.00  0.00    +0.009 A 
ENDBRANCH  17  18
ENDBRANCH  16  17
ENDBRANCH   2  16
TORSDOF 7
