REMARK  Name = ZINC59334291
REMARK  14 active torsions:
REMARK  status: ('A' for Active; 'I' for Inactive)
REMARK    1  A    between atoms: C_1  and  C_2
REMARK    2  A    between atoms: C_2  and  C_3
REMARK    3  A    between atoms: C_3  and  C_4
REMARK    4  A    between atoms: C_4  and  N_5
REMARK    5  A    between atoms: C_6  and  N_34
REMARK    6  A    between atoms: C_7  and  N_14
REMARK    7  A    between atoms: N_14  and  C_15
REMARK    8  A    between atoms: C_15  and  C_16
REMARK    9  A    between atoms: C_17  and  C_19
REMARK   10  A    between atoms: C_19  and  N_20
REMARK   11  A    between atoms: N_20  and  C_21
REMARK   12  A    between atoms: N_20  and  C_24
REMARK   13  A    between atoms: C_24  and  C_26
REMARK   14  A    between atoms: C_24  and  C_27
REMARK                            x       y       z     vdW  Elec       q    Type
REMARK                         _______ _______ _______ _____ _____    ______ ____
ROOT
ATOM      1  N   UNL     1       5.028  -3.819   3.000  0.00  0.00    -0.266 N 
ATOM      2  C   UNL     1       5.555  -4.166   4.192  0.00  0.00    +0.203 C 
ATOM      3  O   UNL     1       4.840  -4.257   5.168  0.00  0.00    -0.277 OA
ENDROOT
BRANCH   1   6
ATOM      4  N   UNL     1       1.543  -4.370   1.976  0.00  0.00    -0.280 N 
ATOM      5  C   UNL     1       2.902  -4.546   2.090  0.00  0.00    +0.127 A 
ATOM      6  C   UNL     1       3.632  -3.666   2.863  0.00  0.00    +0.140 A 
ATOM      7  C   UNL     1       2.961  -2.614   3.513  0.00  0.00    +0.277 A 
ATOM      8  O   UNL     1       3.582  -1.822   4.202  0.00  0.00    -0.266 OA
ATOM      9  N   UNL     1       1.627  -2.487   3.368  0.00  0.00    -0.273 N 
ATOM     10  H   UNL     1       1.163  -1.762   3.816  0.00  0.00    +0.173 HD
ATOM     11  C   UNL     1       0.933  -3.351   2.606  0.00  0.00    +0.331 A 
ATOM     12  O   UNL     1      -0.270  -3.210   2.489  0.00  0.00    -0.246 OA
BRANCH   5  13
ATOM     13  N   UNL     1       3.526  -5.585   1.442  0.00  0.00    -0.343 N 
ATOM     14  H   UNL     1       3.001  -6.234   0.949  0.00  0.00    +0.144 HD
ATOM     15  H   UNL     1       4.492  -5.668   1.477  0.00  0.00    +0.144 HD
ENDBRANCH   5  13
BRANCH   4  16
ATOM     16  C   UNL     1       0.755  -5.297   1.158  0.00  0.00    +0.128 C 
BRANCH  16  17
ATOM     17  C   UNL     1       0.692  -4.780  -0.280  0.00  0.00    +0.021 C 
BRANCH  17  19
ATOM     18  C   UNL     1      -0.194  -5.230  -2.573  0.00  0.00    +0.004 C 
ATOM     19  C   UNL     1      -0.130  -5.747  -1.134  0.00  0.00    -0.002 C 
ENDBRANCH  17  19
ENDBRANCH  16  17
ENDBRANCH   4  16
ENDBRANCH   1   6
BRANCH   1  20
ATOM     20  C   UNL     1       5.906  -3.602   1.847  0.00  0.00    +0.110 C 
ATOM     21  C   UNL     1       6.415  -2.159   1.859  0.00  0.00    +0.025 C 
ENDBRANCH   1  20
BRANCH   2  22
ATOM     22  C   UNL     1       7.032  -4.441   4.313  0.00  0.00    +0.020 C 
BRANCH  22  23
ATOM     23  N   UNL     1       7.353  -4.795   5.702  0.00  0.00    +0.392 N 
ATOM     24  H   UNL     1       6.996  -4.084   6.322  0.00  0.00    -0.080 HD
BRANCH  23  25
ATOM     25  C   UNL     1       6.736  -6.087   6.032  0.00  0.00    -0.067 C 
ATOM     26  C   UNL     1       5.611  -6.088   7.069  0.00  0.00    -0.017 C 
ATOM     27  C   UNL     1       6.986  -6.652   7.432  0.00  0.00    -0.017 C 
ENDBRANCH  23  25
BRANCH  23  28
ATOM     28  C   UNL     1       8.810  -4.895   5.858  0.00  0.00    -0.038 C 
ATOM     29  C   UNL     1       9.402  -5.638   4.659  0.00  0.00    -0.008 C 
BRANCH  28  30
ATOM     30  C   UNL     1       9.403  -3.511   5.933  0.00  0.00    -0.043 A 
ATOM     31  C   UNL     1       8.654  -2.416   5.544  0.00  0.00    +0.003 A 
ATOM     32  C   UNL     1       9.197  -1.147   5.613  0.00  0.00    +0.000 A 
ATOM     33  C   UNL     1      10.490  -0.972   6.071  0.00  0.00    +0.001 A 
ATOM     34  C   UNL     1      11.240  -2.066   6.460  0.00  0.00    +0.020 A 
ATOM     35  C   UNL     1      10.694  -3.336   6.397  0.00  0.00    +0.043 A 
ATOM     36 CL   UNL     1      11.633  -4.710   6.891  0.00  0.00    -0.083 Cl
ENDBRANCH  28  30
ENDBRANCH  23  28
ENDBRANCH  22  23
ENDBRANCH   2  22
TORSDOF 11
