REMARK  Name = ZINC38484220
REMARK  7 active torsions:
REMARK  status: ('A' for Active; 'I' for Inactive)
REMARK    1  A    between atoms: C_8  and  C_10
REMARK    2  A    between atoms: N_12  and  C_13
REMARK    3  A    between atoms: C_13  and  C_14
REMARK    4  A    between atoms: C_14  and  N_15
REMARK    5  A    between atoms: C_20  and  N_24
REMARK    6  A    between atoms: N_24  and  C_25
REMARK    7  A    between atoms: C_25  and  C_26
REMARK                            x       y       z     vdW  Elec       q    Type
REMARK                         _______ _______ _______ _____ _____    ______ ____
ROOT
ATOM      1  N   UNL     1       8.270  -5.251  -0.104  0.00  0.00    -0.245 N 
ATOM      2  C   UNL     1       8.726  -5.920   0.993  0.00  0.00    +0.163 A 
ATOM      3  C   UNL     1       9.473  -7.014   0.514  0.00  0.00    +0.078 A 
ATOM      4  C   UNL     1       9.433  -6.956  -0.896  0.00  0.00    +0.148 A 
ATOM      5  N   UNL     1       8.721  -5.924  -1.247  0.00  0.00    -0.177 NA
ATOM      6  C   UNL     1      10.064  -7.880   1.454  0.00  0.00    +0.133 A 
ATOM      7  N   UNL     1       9.890  -7.624   2.746  0.00  0.00    -0.220 NA
ATOM      8  C   UNL     1       9.180  -6.584   3.147  0.00  0.00    +0.225 A 
ATOM      9  N   UNL     1       8.609  -5.748   2.308  0.00  0.00    -0.216 NA
ENDROOT
BRANCH   6  10
ATOM     10  N   UNL     1      10.807  -8.970   1.042  0.00  0.00    -0.321 N 
ATOM     11  H   UNL     1      10.926  -9.146   0.096  0.00  0.00    +0.148 HD
BRANCH  10  12
ATOM     12  C   UNL     1      11.414  -9.859   2.035  0.00  0.00    +0.177 C 
BRANCH  12  13
ATOM     13  C   UNL     1      12.165 -10.960   1.331  0.00  0.00    +0.122 A 
ATOM     14  C   UNL     1      13.459 -10.922   0.968  0.00  0.00    +0.046 A 
ATOM     15  C   UNL     1      13.745 -12.157   0.341  0.00  0.00    +0.041 A 
ATOM     16  C   UNL     1      12.608 -12.875   0.359  0.00  0.00    +0.195 A 
ATOM     17  O   UNL     1      11.656 -12.148   0.965  0.00  0.00    -0.466 OA
ENDBRANCH  12  13
ENDBRANCH  10  12
ENDBRANCH   6  10
BRANCH   1  18
ATOM     18  C   UNL     1       7.444  -4.041  -0.090  0.00  0.00    +0.164 C 
BRANCH  18  19
ATOM     19  C   UNL     1       5.965  -4.433  -0.078  0.00  0.00    +0.128 C 
BRANCH  19  22
ATOM     20  C   UNL     1       3.796  -3.324  -0.052  0.00  0.00    +0.279 C 
ATOM     21  O   UNL     1       3.268  -4.420  -0.052  0.00  0.00    -0.267 OA
ATOM     22  N   UNL     1       5.140  -3.223  -0.064  0.00  0.00    -0.307 N 
ATOM     23  H   UNL     1       5.560  -2.349  -0.064  0.00  0.00    +0.149 HD
BRANCH  20  31
ATOM     24  C   UNL     1      -0.017   1.362   0.009  0.00  0.00    +0.001 A 
ATOM     25  C   UNL     1       1.171   2.082   0.002  0.00  0.00    +0.004 A 
ATOM     26  C   UNL     1       2.387   1.434  -0.013  0.00  0.00    +0.047 A 
ATOM     27  C   UNL     1       2.431   0.045  -0.021  0.00  0.00    +0.136 A 
ATOM     28  C   UNL     1       1.225  -0.680  -0.013  0.00  0.00    +0.021 A 
ATOM     29  C   UNL     1       0.002  -0.004   0.002  0.00  0.00    +0.011 A 
ATOM     30  C   UNL     1       1.609  -2.091  -0.025  0.00  0.00    +0.063 A 
ATOM     31  C   UNL     1       2.967  -2.110  -0.038  0.00  0.00    +0.190 A 
ATOM     32  O   UNL     1       3.441  -0.847  -0.035  0.00  0.00    -0.450 OA
ENDBRANCH  20  31
ENDBRANCH  19  22
ENDBRANCH  18  19
ENDBRANCH   1  18
TORSDOF 7
