REMARK  Name = ZINC39362714
REMARK  6 active torsions:
REMARK  status: ('A' for Active; 'I' for Inactive)
REMARK    1  A    between atoms: C_6  and  N_7
REMARK    2  A    between atoms: C_8  and  C_24
REMARK    3  A    between atoms: C_12  and  S_13
REMARK    4  A    between atoms: S_13  and  C_14
REMARK    5  A    between atoms: C_14  and  C_15
REMARK    6  A    between atoms: C_24  and  C_25
REMARK                            x       y       z     vdW  Elec       q    Type
REMARK                         _______ _______ _______ _____ _____    ______ ____
ROOT
ATOM      1  N   UNL     1      -1.199  -0.721   0.010  0.00  0.00    -0.258 N 
ATOM      2  C   UNL     1      -1.353  -2.182  -0.093  0.00  0.00    +0.187 C 
ATOM      3  N   UNL     1      -2.810  -2.389  -0.032  0.00  0.00    -0.246 N 
ATOM      4  N   UNL     1      -3.380  -1.117   0.095  0.00  0.00    -0.162 NA
ATOM      5  C   UNL     1      -2.478  -0.195   0.123  0.00  0.00    +0.180 C 
ATOM      6  H   UNL     1      -3.280  -3.237  -0.072  0.00  0.00    +0.170 HD
ENDROOT
BRANCH   1  12
ATOM      7  C   UNL     1       0.296   0.848  -1.054  0.00  0.00    +0.026 A 
ATOM      8  C   UNL     1       1.483   1.555  -1.060  0.00  0.00    +0.040 A 
ATOM      9  C   UNL     1       2.379   1.415  -0.014  0.00  0.00    +0.124 A 
ATOM     10  C   UNL     1       2.088   0.565   1.040  0.00  0.00    +0.040 A 
ATOM     11  C   UNL     1       0.902  -0.144   1.050  0.00  0.00    +0.026 A 
ATOM     12  C   UNL     1       0.002  -0.004   0.002  0.00  0.00    +0.038 A 
ATOM     13  F   UNL     1       3.539   2.107  -0.022  0.00  0.00    -0.205 F 
ENDBRANCH   1  12
BRANCH   5  14
ATOM     14  S   UNL     1      -2.828   1.524   0.281  0.00  0.00    -0.079 S 
BRANCH  14  15
ATOM     15  C   UNL     1      -4.638   1.596   0.387  0.00  0.00    +0.173 C 
BRANCH  15  16
ATOM     16  C   UNL     1      -5.076   3.031   0.527  0.00  0.00    +0.226 C 
ATOM     17  O   UNL     1      -4.249   3.918   0.553  0.00  0.00    -0.275 OA
ATOM     18  N   UNL     1      -6.387   3.329   0.623  0.00  0.00    -0.301 N 
ATOM     19  C   UNL     1      -7.347   2.248   0.595  0.00  0.00    +0.108 C 
ATOM     20  C   UNL     1      -7.760   1.958  -0.870  0.00  0.00    +0.019 C 
ATOM     21  C   UNL     1      -8.601   3.048  -1.389  0.00  0.00    +0.002 C 
ATOM     22  C   UNL     1      -7.903   4.403  -1.454  0.00  0.00    +0.002 C 
ATOM     23  C   UNL     1      -8.010   5.086  -0.113  0.00  0.00    +0.019 C 
ATOM     24  C   UNL     1      -6.783   4.744   0.759  0.00  0.00    +0.108 C 
ENDBRANCH  15  16
ENDBRANCH  14  15
ENDBRANCH   5  14
BRANCH   2  25
ATOM     25  C   UNL     1      -0.791  -2.688  -1.423  0.00  0.00    +0.097 C 
BRANCH  25  26
ATOM     26  C   UNL     1      -0.961  -4.184  -1.503  0.00  0.00    +0.029 A 
ATOM     27  N   UNL     1      -0.029  -5.012  -0.940  0.00  0.00    -0.311 N 
ATOM     28  C   UNL     1      -0.172  -6.349  -1.005  0.00  0.00    +0.327 A 
ATOM     29  O   UNL     1       0.668  -7.067  -0.497  0.00  0.00    -0.247 OA
ATOM     30  N   UNL     1      -1.231  -6.902  -1.625  0.00  0.00    -0.275 N 
ATOM     31  C   UNL     1      -2.171  -6.119  -2.193  0.00  0.00    +0.254 A 
ATOM     32  O   UNL     1      -3.129  -6.619  -2.754  0.00  0.00    -0.268 OA
ATOM     33  C   UNL     1      -2.035  -4.712  -2.127  0.00  0.00    +0.091 A 
ATOM     34  H   UNL     1      -1.318  -7.867  -1.663  0.00  0.00    +0.173 HD
ATOM     35  H   UNL     1       0.741  -4.633  -0.488  0.00  0.00    +0.170 HD
ENDBRANCH  25  26
ENDBRANCH   2  25
TORSDOF 6
