REMARK  Name = ZINC02405021
REMARK  11 active torsions:
REMARK  status: ('A' for Active; 'I' for Inactive)
REMARK    1  A    between atoms: C_1  and  C_2
REMARK    2  A    between atoms: C_2  and  C_4
REMARK    3  A    between atoms: C_2  and  N_10
REMARK    4  A    between atoms: C_4  and  C_5
REMARK    5  A    between atoms: C_5  and  C_6
REMARK    6  A    between atoms: C_6  and  C_7
REMARK    7  A    between atoms: C_7  and  C_8
REMARK    8  A    between atoms: C_7  and  C_9
REMARK    9  A    between atoms: C_11  and  C_13
REMARK   10  A    between atoms: N_24  and  C_27
REMARK   11  A    between atoms: C_25  and  N_26
REMARK                            x       y       z     vdW  Elec       q    Type
REMARK                         _______ _______ _______ _____ _____    ______ ____
ROOT
ATOM      1  C   UNL     1      -3.422  -1.149  -1.134  0.00  0.00    +0.104 A 
ATOM      2  C   UNL     1      -4.654  -0.351  -1.021  0.00  0.00    +0.123 A 
ATOM      3  C   UNL     1      -5.751  -1.322  -1.061  0.00  0.00    +0.166 A 
ATOM      4  N   UNL     1      -6.994  -0.898  -0.978  0.00  0.00    -0.225 NA
ATOM      5  C   UNL     1      -7.245   0.412  -0.859  0.00  0.00    +0.092 A 
ATOM      6  C   UNL     1      -8.571   0.874  -0.770  0.00  0.00    +0.030 A 
ATOM      7  C   UNL     1      -8.817   2.206  -0.649  0.00  0.00    +0.002 A 
ATOM      8  C   UNL     1      -7.772   3.128  -0.612  0.00  0.00    +0.002 A 
ATOM      9  C   UNL     1      -6.478   2.720  -0.696  0.00  0.00    +0.030 A 
ATOM     10  C   UNL     1      -6.183   1.349  -0.821  0.00  0.00    +0.090 A 
ATOM     11  N   UNL     1      -4.912   0.936  -0.905  0.00  0.00    -0.241 NA
ATOM     12  N   UNL     1      -5.177  -2.573  -1.187  0.00  0.00    -0.280 N 
ATOM     13  C   UNL     1      -3.819  -2.477  -1.235  0.00  0.00    +0.117 A 
ENDROOT
BRANCH  12  14
ATOM     14  C   UNL     1      -5.896  -3.776  -1.259  0.00  0.00    +0.053 A 
ATOM     15  C   UNL     1      -6.650  -4.200  -0.174  0.00  0.00    +0.030 A 
ATOM     16  C   UNL     1      -7.358  -5.384  -0.244  0.00  0.00    +0.051 A 
ATOM     17  C   UNL     1      -7.317  -6.152  -1.397  0.00  0.00    +0.166 A 
ATOM     18  C   UNL     1      -6.561  -5.729  -2.487  0.00  0.00    +0.168 A 
ATOM     19  C   UNL     1      -5.856  -4.538  -2.418  0.00  0.00    +0.075 A 
ATOM     20  O   UNL     1      -6.684  -6.649  -3.488  0.00  0.00    -0.453 OA
ATOM     21  C   UNL     1      -7.192  -7.839  -2.855  0.00  0.00    +0.466 C 
ATOM     22  O   UNL     1      -7.915  -7.338  -1.715  0.00  0.00    -0.453 OA
ENDBRANCH  12  14
BRANCH   1  24
ATOM     23  N   UNL     1      -1.372  -0.511   0.012  0.00  0.00    -0.309 N 
ATOM     24  C   UNL     1      -2.051  -0.643  -1.145  0.00  0.00    +0.250 C 
ATOM     25  O   UNL     1      -1.522  -0.340  -2.199  0.00  0.00    -0.270 OA
ATOM     26  H   UNL     1      -1.794  -0.752   0.852  0.00  0.00    +0.149 HD
BRANCH  23  28
ATOM     27  C   UNL     1      -0.019   1.526   0.010  0.00  0.00    +0.028 C 
ATOM     28  C   UNL     1       0.002  -0.004   0.002  0.00  0.00    +0.070 C 
BRANCH  28  29
ATOM     29  C   UNL     1       0.742  -0.511   1.242  0.00  0.00    +0.022 C 
BRANCH  29  30
ATOM     30  C   UNL     1       0.872  -2.034   1.171  0.00  0.00    +0.002 C 
BRANCH  30  31
ATOM     31  C   UNL     1       1.612  -2.541   2.410  0.00  0.00    +0.003 C 
BRANCH  31  32
ATOM     32  C   UNL     1       1.742  -4.063   2.340  0.00  0.00    -0.017 C 
ATOM     33  C   UNL     1       2.630  -4.445   1.154  0.00  0.00    +0.007 C 
ATOM     34  C   UNL     1       2.370  -4.582   3.635  0.00  0.00    +0.007 C 
ENDBRANCH  31  32
ENDBRANCH  30  31
ENDBRANCH  29  30
ENDBRANCH  28  29
ENDBRANCH  23  28
ENDBRANCH   1  24
BRANCH  13  35
ATOM     35  N   UNL     1      -2.964  -3.542  -1.363  0.00  0.00    -0.343 N 
ATOM     36  H   UNL     1      -2.006  -3.394  -1.387  0.00  0.00    +0.144 HD
ATOM     37  H   UNL     1      -3.318  -4.442  -1.428  0.00  0.00    +0.144 HD
ENDBRANCH  13  35
TORSDOF 8
