REMARK  Name = ZINC46907904
REMARK  6 active torsions:
REMARK  status: ('A' for Active; 'I' for Inactive)
REMARK    1  A    between atoms: C_3  and  C_6
REMARK    2  A    between atoms: C_6  and  N_7
REMARK    3  A    between atoms: N_10  and  C_11
REMARK    4  A    between atoms: C_14  and  N_17
REMARK    5  A    between atoms: N_20  and  C_21
REMARK    6  A    between atoms: C_21  and  C_22
REMARK                            x       y       z     vdW  Elec       q    Type
REMARK                         _______ _______ _______ _____ _____    ______ ____
ROOT
ATOM      1  C   UNL     1       7.274   0.634   3.049  0.00  0.00    +0.035 A 
ATOM      2  C   UNL     1       8.117   0.712   1.948  0.00  0.00    +0.025 A 
ATOM      3  C   UNL     1       9.485   0.762   2.128  0.00  0.00    +0.025 A 
ATOM      4  C   UNL     1      10.018   0.735   3.410  0.00  0.00    +0.035 A 
ATOM      5  C   UNL     1       9.175   0.657   4.511  0.00  0.00    +0.025 A 
ATOM      6  C   UNL     1       7.807   0.612   4.331  0.00  0.00    +0.025 A 
ENDROOT
BRANCH   1  10
ATOM      7  N   UNL     1       3.739   1.223   3.521  0.00  0.00    -0.292 N 
ATOM      8  C   UNL     1       5.067   1.192   3.746  0.00  0.00    +0.304 C 
ATOM      9  O   UNL     1       5.527   1.712   4.744  0.00  0.00    -0.252 OA
ATOM     10  N   UNL     1       5.886   0.583   2.865  0.00  0.00    -0.269 N 
ATOM     11  H   UNL     1       3.372   0.807   2.725  0.00  0.00    +0.151 HD
ATOM     12  H   UNL     1       5.514   0.110   2.105  0.00  0.00    +0.156 HD
BRANCH   7  13
ATOM     13  C   UNL     1       2.849   1.884   4.479  0.00  0.00    +0.180 C 
BRANCH  13  16
ATOM     14  C   UNL     1      -0.648   1.085   3.633  0.00  0.00    +0.041 A 
ATOM     15  C   UNL     1       0.568   0.784   4.289  0.00  0.00    +0.046 A 
ATOM     16  C   UNL     1       1.425   1.778   3.997  0.00  0.00    +0.122 A 
ATOM     17  O   UNL     1       0.796   2.662   3.204  0.00  0.00    -0.466 OA
ATOM     18  C   UNL     1      -0.461   2.246   2.980  0.00  0.00    +0.195 A 
ENDBRANCH  13  16
ENDBRANCH   7  13
ENDBRANCH   1  10
BRANCH   4  19
ATOM     19  N   UNL     1      11.406   0.785   3.594  0.00  0.00    -0.269 N 
ATOM     20  C   UNL     1      11.978   0.098   4.602  0.00  0.00    +0.304 C 
ATOM     21  O   UNL     1      11.284  -0.498   5.403  0.00  0.00    -0.253 OA
ATOM     22  N   UNL     1      13.320   0.070   4.723  0.00  0.00    -0.291 N 
ATOM     23  H   UNL     1      11.955   1.315   2.995  0.00  0.00    +0.156 HD
ATOM     24  H   UNL     1      13.874   0.546   4.084  0.00  0.00    +0.151 HD
BRANCH  22  25
ATOM     25  C   UNL     1      13.942  -0.677   5.819  0.00  0.00    +0.218 C 
BRANCH  25  26
ATOM     26  C   UNL     1      15.464  -0.545   5.726  0.00  0.00    +0.405 C 
ATOM     27  F   UNL     1      15.822   0.804   5.819  0.00  0.00    -0.169 F 
ATOM     28  F   UNL     1      16.058  -1.259   6.773  0.00  0.00    -0.169 F 
ATOM     29  F   UNL     1      15.903  -1.061   4.502  0.00  0.00    -0.169 F 
ENDBRANCH  25  26
ENDBRANCH  22  25
ENDBRANCH   4  19
TORSDOF 6
