REMARK  Name = ZINC18042926
REMARK  11 active torsions:
REMARK  status: ('A' for Active; 'I' for Inactive)
REMARK    1  A    between atoms: C_3  and  C_8
REMARK    2  A    between atoms: C_4  and  O_7
REMARK    3  A    between atoms: N_9  and  C_10
REMARK    4  A    between atoms: C_10  and  C_12
REMARK    5  A    between atoms: C_10  and  C_30
REMARK    6  A    between atoms: C_12  and  N_14
REMARK    7  A    between atoms: C_12  and  C_23
REMARK    8  A    between atoms: C_15  and  C_16
REMARK    9  A    between atoms: C_17  and  O_22
REMARK   10  A    between atoms: C_24  and  O_29
REMARK   11  A    between atoms: C_31  and  O_36
REMARK                            x       y       z     vdW  Elec       q    Type
REMARK                         _______ _______ _______ _____ _____    ______ ____
ROOT
ATOM      1  C   UNL     1       6.032   2.293   0.164  0.00  0.00    +0.141 C 
ENDROOT
BRANCH   1   2
ATOM      2  C   UNL     1       6.921   1.950  -1.004  0.00  0.00    +0.018 A 
ATOM      3  C   UNL     1       7.956   2.803  -1.362  0.00  0.00    +0.122 A 
ATOM      4  C   UNL     1       8.772   2.484  -2.438  0.00  0.00    +0.046 A 
ATOM      5  C   UNL     1       8.554   1.319  -3.148  0.00  0.00    +0.004 A 
ATOM      6  C   UNL     1       7.522   0.472  -2.789  0.00  0.00    +0.001 A 
ATOM      7  C   UNL     1       6.710   0.785  -1.714  0.00  0.00    +0.009 A 
BRANCH   3   8
ATOM      8  O   UNL     1       8.168   3.948  -0.662  0.00  0.00    -0.506 OA
ATOM      9  H   UNL     1       8.775   3.846   0.084  0.00  0.00    +0.292 HD
ENDBRANCH   3   8
ENDBRANCH   1   2
BRANCH   1  11
ATOM     10  C   UNL     1       3.651   2.169  -0.022  0.00  0.00    +0.090 C 
ATOM     11  N   UNL     1       4.780   1.540   0.062  0.00  0.00    -0.380 N 
ATOM     12  H   UNL     1       4.796   0.570   0.057  0.00  0.00    +0.160 HD
BRANCH  10  15
ATOM     13  C   UNL     1       0.019   1.374  -0.524  0.00  0.00    +0.001 A 
ATOM     14  C   UNL     1       1.177   2.079  -0.274  0.00  0.00    +0.013 A 
ATOM     15  C   UNL     1       2.409   1.421  -0.288  0.00  0.00    +0.032 A 
ATOM     16  C   UNL     1       2.458   0.046  -0.556  0.00  0.00    +0.125 A 
ATOM     17  C   UNL     1       1.284  -0.647  -0.806  0.00  0.00    +0.046 A 
ATOM     18  C   UNL     1       0.072   0.016  -0.789  0.00  0.00    +0.004 A 
BRANCH  16  19
ATOM     19  O   UNL     1       3.649  -0.604  -0.573  0.00  0.00    -0.506 OA
ATOM     20  H   UNL     1       3.913  -0.963   0.285  0.00  0.00    +0.292 HD
ENDBRANCH  16  19
ENDBRANCH  10  15
ENDBRANCH   1  11
BRANCH   1  21
ATOM     21  C   UNL     1       6.742   1.929   1.470  0.00  0.00    +0.165 C 
BRANCH  21  22
ATOM     22  C   UNL     1       5.852   2.272   2.637  0.00  0.00    +0.021 A 
ATOM     23  C   UNL     1       4.893   1.368   3.068  0.00  0.00    +0.122 A 
ATOM     24  C   UNL     1       4.076   1.687   4.143  0.00  0.00    +0.046 A 
ATOM     25  C   UNL     1       4.220   2.904   4.781  0.00  0.00    +0.004 A 
ATOM     26  C   UNL     1       5.177   3.803   4.350  0.00  0.00    +0.001 A 
ATOM     27  C   UNL     1       5.996   3.485   3.282  0.00  0.00    +0.009 A 
BRANCH  23  28
ATOM     28  O   UNL     1       4.753   0.172   2.438  0.00  0.00    -0.506 OA
ATOM     29  H   UNL     1       5.300  -0.534   2.809  0.00  0.00    +0.292 HD
ENDBRANCH  23  28
ENDBRANCH  21  22
BRANCH  21  30
ATOM     30  N   UNL     1       7.994   2.683   1.571  0.00  0.00    -0.280 NA
ATOM     31  C   UNL     1       9.122   2.054   1.655  0.00  0.00    +0.117 C 
BRANCH  31  32
ATOM     32  C   UNL     1      10.382   2.812   1.758  0.00  0.00    +0.034 A 
ATOM     33  C   UNL     1      10.363   4.214   1.771  0.00  0.00    +0.125 A 
ATOM     34  C   UNL     1      11.553   4.916   1.868  0.00  0.00    +0.046 A 
ATOM     35  C   UNL     1      12.754   4.237   1.950  0.00  0.00    +0.004 A 
ATOM     36  C   UNL     1      12.777   2.853   1.938  0.00  0.00    +0.001 A 
ATOM     37  C   UNL     1      11.602   2.138   1.848  0.00  0.00    +0.013 A 
BRANCH  33  38
ATOM     38  O   UNL     1       9.183   4.880   1.689  0.00  0.00    -0.506 OA
ATOM     39  H   UNL     1       8.775   5.064   2.546  0.00  0.00    +0.292 HD
ENDBRANCH  33  38
ENDBRANCH  31  32
ENDBRANCH  21  30
ENDBRANCH   1  21
TORSDOF 11
