REMARK  Name = ZINC39631098
REMARK  12 active torsions:
REMARK  status: ('A' for Active; 'I' for Inactive)
REMARK    1  A    between atoms: C_1  and  C_2
REMARK    2  A    between atoms: C_4  and  C_8
REMARK    3  A    between atoms: N_6  and  C_7
REMARK    4  A    between atoms: C_12  and  C_21
REMARK    5  A    between atoms: N_23  and  C_24
REMARK    6  A    between atoms: C_24  and  C_25
REMARK    7  A    between atoms: C_25  and  C_26
REMARK    8  A    between atoms: C_25  and  C_27
REMARK    9  A    between atoms: C_25  and  C_28
REMARK   10  A    between atoms: C_28  and  N_29
REMARK   11  A    between atoms: N_29  and  C_30
REMARK   12  A    between atoms: N_29  and  C_31
REMARK                            x       y       z     vdW  Elec       q    Type
REMARK                         _______ _______ _______ _____ _____    ______ ____
ROOT
ATOM      1  C   UNL     1      -0.752  -2.470  -1.029  0.00  0.00    +0.267 C 
ATOM      2  O   UNL     1      -0.955  -2.348  -2.221  0.00  0.00    -0.268 OA
ATOM      3  N   UNL     1      -0.608  -3.697  -0.492  0.00  0.00    -0.295 N 
ATOM      4  C   UNL     1      -0.363  -4.045   0.928  0.00  0.00    +0.121 C 
ATOM      5  C   UNL     1      -1.225  -5.303   1.176  0.00  0.00    +0.100 C 
ATOM      6  C   UNL     1      -1.414  -5.930  -0.216  0.00  0.00    -0.004 C 
ATOM      7  C   UNL     1      -0.666  -5.006  -1.187  0.00  0.00    +0.115 C 
ATOM      8  C   UNL     1      -2.896  -5.976  -0.578  0.00  0.00    -0.010 C 
ATOM      9  C   UNL     1      -3.063  -6.655  -1.940  0.00  0.00    -0.082 C 
ATOM     10  N   UNL     1      -2.510  -8.013  -1.883  0.00  0.00    +0.379 N 
ATOM     11  C   UNL     1      -1.065  -7.956  -1.627  0.00  0.00    -0.082 C 
ATOM     12  C   UNL     1      -0.814  -7.332  -0.251  0.00  0.00    -0.010 C 
ATOM     13  H   UNL     1      -2.961  -8.528  -1.142  0.00  0.00    -0.086 HD
ATOM     14  H   UNL     1      -2.675  -8.480  -2.763  0.00  0.00    -0.086 HD
ENDROOT
BRANCH   1  18
ATOM     15  C   UNL     1      -0.688   2.318   0.632  0.00  0.00    +0.065 C 
ATOM     16  C   UNL     1      -0.637   0.815   0.539  0.00  0.00    +0.037 A 
ATOM     17  C   UNL     1      -0.790   0.074  -0.584  0.00  0.00    +0.057 A 
ATOM     18  C   UNL     1      -0.661  -1.272  -0.169  0.00  0.00    +0.147 A 
ATOM     19  N   UNL     1      -0.447  -1.255   1.132  0.00  0.00    -0.167 NA
ATOM     20  N   UNL     1      -0.425  -0.044   1.559  0.00  0.00    -0.271 N 
ATOM     21  C   UNL     1      -0.204   0.349   2.953  0.00  0.00    +0.172 C 
ENDBRANCH   1  18
BRANCH   5  22
ATOM     22  C   UNL     1      -0.505  -6.260   2.091  0.00  0.00    +0.218 C 
ATOM     23  O   UNL     1       0.707  -6.299   2.096  0.00  0.00    -0.275 OA
ATOM     24  N   UNL     1      -1.209  -7.073   2.904  0.00  0.00    -0.315 N 
ATOM     25  H   UNL     1      -2.179  -7.043   2.900  0.00  0.00    +0.149 HD
BRANCH  24  26
ATOM     26  C   UNL     1      -0.509  -8.003   3.793  0.00  0.00    +0.108 C 
BRANCH  26  27
ATOM     27  C   UNL     1      -1.533  -8.803   4.602  0.00  0.00    -0.034 C 
ATOM     28  C   UNL     1      -2.386  -7.845   5.435  0.00  0.00    +0.010 C 
ATOM     29  C   UNL     1      -2.434  -9.590   3.648  0.00  0.00    +0.010 C 
BRANCH  27  30
ATOM     30  C   UNL     1      -0.802  -9.775   5.531  0.00  0.00    -0.072 C 
BRANCH  30  31
ATOM     31  N   UNL     1      -1.784 -10.512   6.338  0.00  0.00    +0.376 N 
ATOM     32  C   UNL     1      -2.244 -11.691   5.593  0.00  0.00    -0.097 C 
ATOM     33  C   UNL     1      -1.159 -10.941   7.597  0.00  0.00    -0.097 C 
ATOM     34  H   UNL     1      -2.571  -9.913   6.540  0.00  0.00    -0.083 HD
ENDBRANCH  30  31
ENDBRANCH  27  30
ENDBRANCH  26  27
ENDBRANCH  24  26
ENDBRANCH   5  22
TORSDOF 6
