REMARK  Name = ZINC43254064
REMARK  4 active torsions:
REMARK  status: ('A' for Active; 'I' for Inactive)
REMARK    1  A    between atoms: C_4  and  C_7
REMARK    2  A    between atoms: C_7  and  N_8
REMARK    3  A    between atoms: C_9  and  C_21
REMARK    4  A    between atoms: C_26  and  O_27
REMARK                            x       y       z     vdW  Elec       q    Type
REMARK                         _______ _______ _______ _____ _____    ______ ____
ROOT
ATOM      1  N   UNL     1       4.153  -0.953   1.342  0.00  0.00    -0.174 NA
ATOM      2  C   UNL     1       5.552  -1.485   1.370  0.00  0.00    +0.133 C 
ATOM      3  C   UNL     1       5.386  -2.895   1.916  0.00  0.00    +0.141 C 
ATOM      4  C   UNL     1       4.144  -2.622   2.850  0.00  0.00    +0.243 C 
ATOM      5  O   UNL     1       3.280  -1.968   2.012  0.00  0.00    -0.283 OA
ATOM      6  C   UNL     1       4.194  -3.767   3.739  0.00  0.00    +0.271 C 
ATOM      7  O   UNL     1       3.155  -4.359   4.347  0.00  0.00    -0.271 OA
ATOM      8  N   UNL     1       5.476  -4.114   3.829  0.00  0.00    -0.143 NA
ATOM      9  C   UNL     1       6.299  -3.433   2.972  0.00  0.00    +0.247 C 
ATOM     10  O   UNL     1       7.503  -3.289   3.049  0.00  0.00    -0.273 OA
ENDROOT
BRANCH   2  11
ATOM     11  C   UNL     1       6.417  -0.657   2.285  0.00  0.00    +0.015 A 
ATOM     12  C   UNL     1       5.840   0.078   3.303  0.00  0.00    +0.024 A 
ATOM     13  C   UNL     1       6.633   0.839   4.143  0.00  0.00    +0.018 A 
ATOM     14  C   UNL     1       8.005   0.866   3.966  0.00  0.00    +0.019 A 
ATOM     15  C   UNL     1       8.585   0.132   2.950  0.00  0.00    +0.047 A 
ATOM     16  C   UNL     1       7.792  -0.636   2.109  0.00  0.00    +0.122 A 
ATOM     17 BR   UNL     1       5.840   1.844   5.535  0.00  0.00    -0.050 Br
BRANCH  16  18
ATOM     18  O   UNL     1       8.362  -1.362   1.112  0.00  0.00    -0.506 OA
ATOM     19  H   UNL     1       8.447  -0.883   0.276  0.00  0.00    +0.292 HD
ENDBRANCH  16  18
ENDBRANCH   2  11
BRANCH   1  20
ATOM     20  C   UNL     1       3.711  -0.707  -0.038  0.00  0.00    +0.150 C 
BRANCH  20  24
ATOM     21  C   UNL     1      -0.017   1.378   0.010  0.00  0.00    +0.000 A 
ATOM     22  C   UNL     1       1.171   2.086   0.002  0.00  0.00    +0.000 A 
ATOM     23  C   UNL     1       2.377   1.411  -0.013  0.00  0.00    +0.005 A 
ATOM     24  C   UNL     1       2.396   0.029  -0.020  0.00  0.00    -0.031 A 
ATOM     25  C   UNL     1       1.208  -0.679  -0.012  0.00  0.00    +0.005 A 
ATOM     26  C   UNL     1       0.002  -0.004   0.002  0.00  0.00    +0.000 A 
ENDBRANCH  20  24
ENDBRANCH   1  20
TORSDOF 4
