REMARK  Name = ZINC23158077
REMARK  7 active torsions:
REMARK  status: ('A' for Active; 'I' for Inactive)
REMARK    1  A    between atoms: C_1  and  C_2
REMARK    2  A    between atoms: C_8  and  C_10
REMARK    3  A    between atoms: C_10  and  C_12
REMARK    4  A    between atoms: C_10  and  N_17
REMARK    5  A    between atoms: C_20  and  C_23
REMARK    6  A    between atoms: C_23  and  O_25
REMARK    7  A    between atoms: O_25  and  C_26
REMARK                            x       y       z     vdW  Elec       q    Type
REMARK                         _______ _______ _______ _____ _____    ______ ____
ROOT
ATOM      1  C   UNL     1      -2.533   1.387   0.021  0.00  0.00    +0.042 C 
ENDROOT
BRANCH   1   9
ATOM      2  C   UNL     1      -5.412   0.178  -6.753  0.00  0.00    +0.090 C 
ATOM      3  C   UNL     1      -4.859   0.580  -5.410  0.00  0.00    +0.150 A 
ATOM      4  N   UNL     1      -4.789   1.827  -4.947  0.00  0.00    -0.205 NA
ATOM      5  C   UNL     1      -4.258   1.815  -3.755  0.00  0.00    +0.199 A 
ATOM      6  N   UNL     1      -3.961   0.535  -3.400  0.00  0.00    -0.170 N 
ATOM      7  N   UNL     1      -4.372  -0.239  -4.517  0.00  0.00    -0.147 NA
ATOM      8  C   UNL     1      -3.391   0.340  -2.165  0.00  0.00    +0.282 A 
ATOM      9  C   UNL     1      -3.144   1.378  -1.357  0.00  0.00    +0.053 A 
ATOM     10  S   UNL     1      -3.737   2.749  -2.337  0.00  0.00    -0.050 S 
ATOM     11  O   UNL     1      -3.073  -0.919  -1.760  0.00  0.00    -0.265 OA
ENDBRANCH   1   9
BRANCH   1  12
ATOM     12  N   UNL     1      -3.326   2.255   0.902  0.00  0.00    +0.390 N 
ATOM     13  C   UNL     1      -2.720   2.343   2.237  0.00  0.00    -0.077 C 
ATOM     14  C   UNL     1      -3.486   3.365   3.080  0.00  0.00    -0.004 C 
ATOM     15  C   UNL     1      -4.950   2.932   3.191  0.00  0.00    +0.094 C 
ATOM     16  C   UNL     1      -5.544   2.800   1.786  0.00  0.00    -0.004 C 
ATOM     17  C   UNL     1      -4.718   1.795   0.981  0.00  0.00    -0.077 C 
ATOM     18  H   UNL     1      -3.330   3.266   0.468  0.00  0.00    -0.080 HD
BRANCH  15  19
ATOM     19  C   UNL     1      -5.724   3.964   3.970  0.00  0.00    +0.310 C 
ATOM     20  O   UNL     1      -6.655   4.536   3.456  0.00  0.00    -0.251 OA
BRANCH  19  21
ATOM     21  O   UNL     1      -5.379   4.247   5.236  0.00  0.00    -0.468 OA
ATOM     22  C   UNL     1      -6.169   5.252   5.926  0.00  0.00    +0.280 C 
ENDBRANCH  19  21
ENDBRANCH  15  19
ENDBRANCH   1  12
BRANCH   1  23
ATOM     23  C   UNL     1      -1.121   1.907  -0.059  0.00  0.00    +0.096 A 
ATOM     24  C   UNL     1      -0.003   1.165   0.037  0.00  0.00    +0.043 A 
ATOM     25  C   UNL     1       1.090   2.052  -0.098  0.00  0.00    +0.041 A 
ATOM     26  C   UNL     1       0.574   3.284  -0.263  0.00  0.00    +0.195 A 
ATOM     27  O   UNL     1      -0.766   3.190  -0.236  0.00  0.00    -0.469 OA
ENDBRANCH   1  23
TORSDOF 5
