REMARK  Name = ZINC20762660
REMARK  9 active torsions:
REMARK  status: ('A' for Active; 'I' for Inactive)
REMARK    1  A    between atoms: C_1  and  O_2
REMARK    2  A    between atoms: O_2  and  C_3
REMARK    3  A    between atoms: C_3  and  C_5
REMARK    4  A    between atoms: C_5  and  C_7
REMARK    5  A    between atoms: C_5  and  N_11
REMARK    6  A    between atoms: C_7  and  C_8
REMARK    7  A    between atoms: C_8  and  S_9
REMARK    8  A    between atoms: S_9  and  C_10
REMARK    9  A    between atoms: C_23  and  C_25
REMARK                            x       y       z     vdW  Elec       q    Type
REMARK                         _______ _______ _______ _____ _____    ______ ____
ROOT
ATOM      1  N   UNL     1       3.382  -2.294   1.198  0.00  0.00    -0.286 N 
ATOM      2  C   UNL     1       2.720  -2.620   2.325  0.00  0.00    +0.304 C 
ATOM      3  O   UNL     1       1.513  -2.485   2.381  0.00  0.00    -0.253 OA
ATOM      4  N   UNL     1       3.395  -3.097   3.389  0.00  0.00    -0.273 N 
ATOM      5  C   UNL     1       2.683  -3.562   4.589  0.00  0.00    +0.116 C 
ATOM      6  C   UNL     1       2.929  -5.064   4.770  0.00  0.00    +0.076 C 
ATOM      7  C   UNL     1       4.397  -5.345   4.570  0.00  0.00    +0.066 A 
ATOM      8  C   UNL     1       5.256  -4.507   3.951  0.00  0.00    +0.064 A 
ATOM      9  N   UNL     1       6.478  -5.103   3.960  0.00  0.00    -0.346 N 
ATOM     10  H   UNL     1       7.298  -4.745   3.586  0.00  0.00    +0.167 HD
ATOM     11  C   UNL     1       6.333  -6.293   4.589  0.00  0.00    +0.197 A 
ATOM     12  N   UNL     1       5.083  -6.427   4.950  0.00  0.00    -0.240 NA
ATOM     13  C   UNL     1       4.868  -3.171   3.379  0.00  0.00    +0.156 C 
ATOM     14  H   UNL     1       4.351  -2.327   1.177  0.00  0.00    +0.151 HD
ENDROOT
BRANCH  13  15
ATOM     15  C   UNL     1       5.443  -2.067   4.229  0.00  0.00    -0.017 A 
ATOM     16  C   UNL     1       5.195  -2.043   5.589  0.00  0.00    +0.009 A 
ATOM     17  C   UNL     1       5.720  -1.033   6.373  0.00  0.00    +0.050 A 
ATOM     18  C   UNL     1       6.498  -0.041   5.796  0.00  0.00    +0.166 A 
ATOM     19  C   UNL     1       6.748  -0.066   4.427  0.00  0.00    +0.167 A 
ATOM     20  C   UNL     1       6.222  -1.084   3.648  0.00  0.00    +0.055 A 
ATOM     21  O   UNL     1       7.529   1.007   4.107  0.00  0.00    -0.453 OA
ATOM     22  C   UNL     1       7.416   1.911   5.222  0.00  0.00    +0.466 C 
ATOM     23  O   UNL     1       7.122   1.046   6.335  0.00  0.00    -0.453 OA
ENDBRANCH  13  15
BRANCH   1  24
ATOM     24  C   UNL     1       2.638  -1.888   0.002  0.00  0.00    +0.184 C 
BRANCH  24  25
ATOM     25  C   UNL     1       2.222  -3.114  -0.770  0.00  0.00    +0.327 C 
ATOM     26  O   UNL     1       2.516  -4.213  -0.363  0.00  0.00    -0.249 OA
BRANCH  25  28
ATOM     27  C   UNL     1       1.162  -4.188  -2.589  0.00  0.00    +0.280 C 
ATOM     28  O   UNL     1       1.524  -2.984  -1.909  0.00  0.00    -0.467 OA
ENDBRANCH  25  28
ENDBRANCH  24  25
BRANCH  24  29
ATOM     29  C   UNL     1       3.528  -1.009  -0.878  0.00  0.00    +0.044 C 
BRANCH  29  30
ATOM     30  C   UNL     1       3.849   0.293  -0.141  0.00  0.00    +0.071 C 
BRANCH  30  31
ATOM     31  S   UNL     1       4.904   1.335  -1.185  0.00  0.00    -0.164 S 
ATOM     32  C   UNL     1       5.189   2.818  -0.179  0.00  0.00    +0.084 C 
ENDBRANCH  30  31
ENDBRANCH  29  30
ENDBRANCH  24  29
ENDBRANCH   1  24
TORSDOF 7
