REMARK  Name = ZINC05414667
REMARK  5 active torsions:
REMARK  status: ('A' for Active; 'I' for Inactive)
REMARK    1  A    between atoms: C_3  and  C_6
REMARK    2  A    between atoms: N_11  and  S_26
REMARK    3  A    between atoms: C_13  and  C_15
REMARK    4  A    between atoms: N_17  and  C_18
REMARK    5  A    between atoms: S_26  and  C_29
REMARK                            x       y       z     vdW  Elec       q    Type
REMARK                         _______ _______ _______ _____ _____    ______ ____
ROOT
ATOM      1  C   UNL     1      -3.353   3.028  -0.690  0.00  0.00    +0.254 C 
ATOM      2  O   UNL     1      -2.245   3.471  -0.451  0.00  0.00    -0.269 OA
ATOM      3  N   UNL     1      -3.551   1.695  -0.736  0.00  0.00    -0.283 N 
ATOM      4  C   UNL     1      -4.847   1.145  -1.158  0.00  0.00    +0.126 C 
ATOM      5  C   UNL     1      -5.364   0.210  -0.058  0.00  0.00    +0.128 C 
ATOM      6  N   UNL     1      -4.288  -0.719   0.313  0.00  0.00    -0.173 NA
ATOM      7  C   UNL     1      -2.992  -0.169   0.736  0.00  0.00    +0.141 C 
ATOM      8  C   UNL     1      -2.474   0.766  -0.364  0.00  0.00    +0.178 C 
ENDROOT
BRANCH   1  11
ATOM      9  C   UNL     1      -5.659   5.886  -1.525  0.00  0.00    +0.008 A 
ATOM     10  C   UNL     1      -4.451   5.249  -1.391  0.00  0.00    +0.021 A 
ATOM     11  C   UNL     1      -4.473   3.943  -0.928  0.00  0.00    +0.074 A 
ATOM     12  S   UNL     1      -6.221   3.664  -0.706  0.00  0.00    -0.092 S 
ATOM     13  C   UNL     1      -6.799   5.221  -1.203  0.00  0.00    +0.046 A 
ENDBRANCH   1  11
BRANCH   8  14
ATOM     14  C   UNL     1      -1.290   1.544   0.149  0.00  0.00    +0.235 C 
ATOM     15  O   UNL     1      -1.433   2.339   1.054  0.00  0.00    -0.274 OA
ATOM     16  N   UNL     1      -0.072   1.356  -0.397  0.00  0.00    -0.302 N 
ATOM     17  H   UNL     1       0.042   0.720  -1.120  0.00  0.00    +0.150 HD
BRANCH  16  18
ATOM     18  C   UNL     1       1.078   2.117   0.099  0.00  0.00    +0.159 C 
ATOM     19  C   UNL     1       2.365   1.342  -0.196  0.00  0.00    +0.033 C 
ATOM     20  C   UNL     1       3.559   2.265   0.075  0.00  0.00    +0.021 C 
ATOM     21  C   UNL     1       3.556   3.386  -0.965  0.00  0.00    +0.104 C 
ATOM     22  N   UNL     1       2.243   4.016  -1.032  0.00  0.00    -0.314 N 
ATOM     23  C   UNL     1       1.121   3.455  -0.581  0.00  0.00    +0.233 C 
ATOM     24  O   UNL     1       0.079   4.058  -0.728  0.00  0.00    -0.274 OA
ATOM     25  H   UNL     1       2.183   4.899  -1.429  0.00  0.00    +0.149 HD
ENDBRANCH  16  18
ENDBRANCH   8  14
BRANCH   6  26
ATOM     26  S   UNL     1      -4.530  -2.356   0.258  0.00  0.00    +0.061 S 
ATOM     27  O   UNL     1      -3.596  -2.936   1.157  0.00  0.00    -0.153 OA
ATOM     28  O   UNL     1      -5.931  -2.563   0.376  0.00  0.00    -0.153 OA
BRANCH  26  29
ATOM     29  C   UNL     1      -4.076  -2.895  -1.357  0.00  0.00    +0.106 A 
ATOM     30  C   UNL     1      -5.022  -2.933  -2.365  0.00  0.00    +0.031 A 
ATOM     31  C   UNL     1      -4.666  -3.350  -3.633  0.00  0.00    +0.040 A 
ATOM     32  C   UNL     1      -3.363  -3.742  -3.892  0.00  0.00    +0.124 A 
ATOM     33  C   UNL     1      -2.418  -3.709  -2.881  0.00  0.00    +0.040 A 
ATOM     34  C   UNL     1      -2.775  -3.286  -1.615  0.00  0.00    +0.031 A 
ATOM     35  F   UNL     1      -3.015  -4.156  -5.130  0.00  0.00    -0.205 F 
ENDBRANCH  26  29
ENDBRANCH   6  26
TORSDOF 5
