REMARK  Name = ZINC17186451
REMARK  10 active torsions:
REMARK  status: ('A' for Active; 'I' for Inactive)
REMARK    1  A    between atoms: C_1  and  C_2
REMARK    2  A    between atoms: C_6  and  C_26
REMARK    3  A    between atoms: C_8  and  O_11
REMARK    4  A    between atoms: O_11  and  C_12
REMARK    5  A    between atoms: C_12  and  C_13
REMARK    6  A    between atoms: C_13  and  C_15
REMARK    7  A    between atoms: C_13  and  O_25
REMARK    8  A    between atoms: C_15  and  N_60
REMARK    9  A    between atoms: C_26  and  C_27
REMARK   10  A    between atoms: C_26  and  C_28
REMARK                            x       y       z     vdW  Elec       q    Type
REMARK                         _______ _______ _______ _____ _____    ______ ____
ROOT
ATOM      1  C   UNL     1       4.726   5.136   0.896  0.00  0.00    +0.124 C 
ENDROOT
BRANCH   1   2
ATOM      2  O   UNL     1       3.558   5.950   0.772  0.00  0.00    -0.391 OA
ATOM      3  H   UNL     1       3.469   6.381  -0.089  0.00  0.00    +0.210 HD
ENDBRANCH   1   2
BRANCH   1   4
ATOM      4  C   UNL     1       5.973   6.000   0.692  0.00  0.00    +0.189 C 
BRANCH   4   5
ATOM      5  O   UNL     1       6.066   6.958   1.748  0.00  0.00    -0.374 OA
BRANCH   5  11
ATOM      6  C   UNL     1       4.471   8.881   1.632  0.00  0.00    +0.007 C 
ATOM      7  C   UNL     1       5.687   9.803   1.529  0.00  0.00    -0.012 C 
ATOM      8  C   UNL     1       6.127  10.226   2.932  0.00  0.00    +0.004 C 
ATOM      9  C   UNL     1       6.495   8.984   3.747  0.00  0.00    +0.006 C 
ATOM     10  C   UNL     1       7.641   8.243   3.055  0.00  0.00    +0.020 C 
ATOM     11  C   UNL     1       7.202   7.820   1.652  0.00  0.00    +0.122 C 
ATOM     12  C   UNL     1       6.833   9.062   0.838  0.00  0.00    +0.035 C 
BRANCH  10  13
ATOM     13  C   UNL     1       8.010   7.001   3.870  0.00  0.00    -0.012 C 
ATOM     14  C   UNL     1       9.156   6.259   3.178  0.00  0.00    +0.007 C 
ATOM     15  C   UNL     1       8.450   7.424   5.273  0.00  0.00    +0.007 C 
ENDBRANCH  10  13
ENDBRANCH   5  11
ENDBRANCH   4   5
ENDBRANCH   1   4
BRANCH   1  16
ATOM     16  C   UNL     1       4.693   4.031  -0.162  0.00  0.00    -0.044 C 
BRANCH  16  26
ATOM     17  C   UNL     1       3.707   2.280   1.193  0.00  0.00    -0.074 C 
ATOM     18  C   UNL     1       2.349   1.703   1.593  0.00  0.00    +0.017 C 
ATOM     19  C   UNL     1       1.648   1.147   0.380  0.00  0.00    -0.048 A 
ATOM     20  C   UNL     1       0.584   0.278   0.571  0.00  0.00    +0.004 A 
ATOM     21  C   UNL     1      -0.084  -0.255  -0.512  0.00  0.00    +0.000 A 
ATOM     22  C   UNL     1       0.301   0.089  -1.795  0.00  0.00    +0.000 A 
ATOM     23  C   UNL     1       1.359   0.954  -1.986  0.00  0.00    +0.002 A 
ATOM     24  C   UNL     1       2.037   1.484  -0.898  0.00  0.00    -0.061 A 
ATOM     25  C   UNL     1       3.189   2.419  -1.157  0.00  0.00    -0.043 C 
ATOM     26  N   UNL     1       3.489   3.197   0.056  0.00  0.00    +0.384 N 
ATOM     27  H   UNL     1       2.692   3.810   0.267  0.00  0.00    -0.081 HD
ENDBRANCH  16  26
ENDBRANCH   1  16
TORSDOF 7
