REMARK  Name = ZINC41628626
REMARK  5 active torsions:
REMARK  status: ('A' for Active; 'I' for Inactive)
REMARK    1  A    between atoms: C_1  and  C_2
REMARK    2  A    between atoms: C_2  and  C_4
REMARK    3  A    between atoms: C_2  and  S_12
REMARK    4  A    between atoms: S_12  and  C_13
REMARK    5  A    between atoms: C_18  and  C_20
REMARK                            x       y       z     vdW  Elec       q    Type
REMARK                         _______ _______ _______ _____ _____    ______ ____
ROOT
ATOM      1  C   UNL     1       2.509  -0.029  -1.285  0.00  0.00    +0.193 A 
ATOM      2  N   UNL     1       2.830   0.649  -0.192  0.00  0.00    -0.183 NA
ATOM      3  C   UNL     1       4.069   1.088  -0.002  0.00  0.00    +0.275 A 
ATOM      4  O   UNL     1       4.388   1.779   1.120  0.00  0.00    -0.266 OA
ATOM      5  C   UNL     1       5.037   0.828  -0.968  0.00  0.00    +0.100 A 
ATOM      6  C   UNL     1       4.663   0.113  -2.105  0.00  0.00    +0.079 A 
ATOM      7  N   UNL     1       3.402  -0.300  -2.224  0.00  0.00    -0.222 NA
ENDROOT
BRANCH   6   8
ATOM      8  C   UNL     1       5.657  -0.188  -3.164  0.00  0.00    +0.001 A 
ATOM      9  C   UNL     1       6.977   0.238  -3.026  0.00  0.00    +0.010 A 
ATOM     10  C   UNL     1       7.897  -0.046  -4.015  0.00  0.00    +0.001 A 
ATOM     11  C   UNL     1       7.512  -0.752  -5.141  0.00  0.00    +0.000 A 
ATOM     12  C   UNL     1       6.203  -1.177  -5.282  0.00  0.00    +0.001 A 
ATOM     13  C   UNL     1       5.276  -0.904  -4.298  0.00  0.00    +0.010 A 
ENDBRANCH   6   8
BRANCH   1  14
ATOM     14  S   UNL     1       0.851  -0.589  -1.490  0.00  0.00    -0.073 S 
BRANCH  14  16
ATOM     15  C   UNL     1      -0.019   1.526   0.010  0.00  0.00    +0.029 C 
ATOM     16  C   UNL     1       0.002  -0.004   0.002  0.00  0.00    +0.137 C 
BRANCH  16  17
ATOM     17  C   UNL     1      -1.412  -0.526   0.013  0.00  0.00    +0.232 C 
ATOM     18  O   UNL     1      -1.927  -0.901  -1.019  0.00  0.00    -0.274 OA
ATOM     19  N   UNL     1      -2.103  -0.575   1.169  0.00  0.00    -0.264 N 
ATOM     20  C   UNL     1      -3.407  -1.056   1.179  0.00  0.00    +0.164 A 
ATOM     21  N   UNL     1      -4.120  -1.507   0.169  0.00  0.00    -0.233 NA
ATOM     22  C   UNL     1      -5.357  -1.933   0.343  0.00  0.00    +0.120 A 
ATOM     23  C   UNL     1      -5.854  -1.883   1.604  0.00  0.00    +0.068 A 
ATOM     24  S   UNL     1      -4.455  -1.210   2.486  0.00  0.00    -0.061 S 
ATOM     25  H   UNL     1      -1.691  -0.275   1.994  0.00  0.00    +0.157 HD
ENDBRANCH  16  17
ENDBRANCH  14  16
ENDBRANCH   1  14
TORSDOF 4
