REMARK  Name = ZINC66177435
REMARK  7 active torsions:
REMARK  status: ('A' for Active; 'I' for Inactive)
REMARK    1  A    between atoms: C_1  and  S_2
REMARK    2  A    between atoms: S_2  and  C_3
REMARK    3  A    between atoms: C_3  and  C_4
REMARK    4  A    between atoms: C_4  and  C_5
REMARK    5  A    between atoms: C_5  and  C_7
REMARK    6  A    between atoms: C_5  and  N_16
REMARK    7  A    between atoms: C_22  and  N_25
REMARK                            x       y       z     vdW  Elec       q    Type
REMARK                         _______ _______ _______ _____ _____    ______ ____
ROOT
ATOM      1  N   UNL     1      -3.966  -1.949   1.281  0.00  0.00    -0.289 N 
ATOM      2  C   UNL     1      -4.430  -0.690   1.408  0.00  0.00    +0.303 C 
ATOM      3  O   UNL     1      -4.343   0.086   0.476  0.00  0.00    -0.253 OA
ATOM      4  N   UNL     1      -4.990  -0.291   2.567  0.00  0.00    -0.287 N 
ATOM      5  C   UNL     1      -5.152  -1.121   3.770  0.00  0.00    +0.108 C 
ATOM      6  C   UNL     1      -5.815  -0.239   4.849  0.00  0.00    +0.005 C 
ATOM      7  C   UNL     1      -5.473   1.200   4.379  0.00  0.00    -0.049 C 
ATOM      8  C   UNL     1      -5.536   1.050   2.841  0.00  0.00    +0.094 C 
ATOM      9  H   UNL     1      -4.035  -2.568   2.025  0.00  0.00    +0.151 HD
ENDROOT
BRANCH   7  10
ATOM     10  N   UNL     1      -6.475   2.162   4.859  0.00  0.00    +0.383 N 
ATOM     11  C   UNL     1      -6.462   2.218   6.343  0.00  0.00    -0.078 C 
ATOM     12  C   UNL     1      -7.098   3.596   6.652  0.00  0.00    -0.020 C 
ATOM     13  C   UNL     1      -6.538   4.496   5.526  0.00  0.00    -0.020 C 
ATOM     14  C   UNL     1      -6.132   3.526   4.401  0.00  0.00    -0.078 C 
ATOM     15  H   UNL     1      -7.392   1.904   4.527  0.00  0.00    -0.081 HD
ENDBRANCH   7  10
BRANCH   1  16
ATOM     16  C   UNL     1      -3.356  -2.382   0.021  0.00  0.00    +0.144 C 
BRANCH  16  17
ATOM     17  C   UNL     1      -3.482  -3.878  -0.109  0.00  0.00    +0.158 A 
ATOM     18  N   UNL     1      -3.248  -4.759   0.829  0.00  0.00    -0.132 NA
ATOM     19  N   UNL     1      -3.452  -5.949   0.385  0.00  0.00    -0.129 NA
ATOM     20  C   UNL     1      -3.833  -5.888  -0.881  0.00  0.00    +0.161 A 
ATOM     21  N   UNL     1      -3.866  -4.559  -1.223  0.00  0.00    -0.285 N 
ATOM     22  C   UNL     1      -4.233  -4.178  -2.480  0.00  0.00    +0.094 A 
ATOM     23  C   UNL     1      -4.572  -5.100  -3.405  0.00  0.00    +0.018 A 
ATOM     24  C   UNL     1      -4.551  -6.468  -3.083  0.00  0.00    +0.005 A 
ATOM     25  C   UNL     1      -4.180  -6.864  -1.836  0.00  0.00    +0.048 A 
ENDBRANCH  16  17
BRANCH  16  26
ATOM     26  C   UNL     1      -1.877  -1.992   0.009  0.00  0.00    +0.041 C 
BRANCH  26  27
ATOM     27  C   UNL     1      -1.752  -0.467   0.016  0.00  0.00    +0.071 C 
BRANCH  27  29
ATOM     28  C   UNL     1      -0.022   1.810   0.012  0.00  0.00    +0.084 C 
ATOM     29  S   UNL     1       0.002  -0.004   0.002  0.00  0.00    -0.164 S 
ENDBRANCH  27  29
ENDBRANCH  26  27
ENDBRANCH  16  26
ENDBRANCH   1  16
TORSDOF 6
