REMARK  Name = ZINC59502856
REMARK  7 active torsions:
REMARK  status: ('A' for Active; 'I' for Inactive)
REMARK    1  A    between atoms: C_4  and  O_7
REMARK    2  A    between atoms: O_7  and  C_8
REMARK    3  A    between atoms: C_8  and  C_10
REMARK    4  A    between atoms: C_13  and  N_16
REMARK    5  A    between atoms: N_17  and  C_18
REMARK    6  A    between atoms: C_21  and  N_25
REMARK    7  A    between atoms: C_23  and  N_24
REMARK                            x       y       z     vdW  Elec       q    Type
REMARK                         _______ _______ _______ _____ _____    ______ ____
ROOT
ATOM      1  C   UNL     1       4.825  -2.731   0.159  0.00  0.00    +0.060 A 
ATOM      2  C   UNL     1       6.047  -2.052   0.157  0.00  0.00    +0.017 A 
ATOM      3  C   UNL     1       7.218  -2.751   0.248  0.00  0.00    +0.030 A 
ATOM      4  C   UNL     1       7.193  -4.146   0.343  0.00  0.00    +0.086 A 
ATOM      5  C   UNL     1       5.970  -4.826   0.345  0.00  0.00    +0.030 A 
ATOM      6  C   UNL     1       4.800  -4.125   0.259  0.00  0.00    +0.017 A 
ENDROOT
BRANCH   1   7
ATOM      7  C   UNL     1       3.562  -1.976   0.060  0.00  0.00    +0.344 C 
ATOM      8  O   UNL     1       2.499  -2.565   0.066  0.00  0.00    -0.245 OA
BRANCH   7   9
ATOM      9  O   UNL     1       3.586  -0.632  -0.037  0.00  0.00    -0.422 OA
BRANCH   9  13
ATOM     10  C   UNL     1      -0.013   1.383   0.059  0.00  0.00    +0.000 A 
ATOM     11  C   UNL     1       0.457   0.756   1.198  0.00  0.00    +0.004 A 
ATOM     12  C   UNL     1       1.662   0.081   1.168  0.00  0.00    +0.046 A 
ATOM     13  C   UNL     1       2.400   0.032  -0.005  0.00  0.00    +0.132 A 
ATOM     14  C   UNL     1       1.925   0.661  -1.147  0.00  0.00    +0.046 A 
ATOM     15  C   UNL     1       0.720   1.336  -1.112  0.00  0.00    +0.004 A 
ENDBRANCH   9  13
ENDBRANCH   7   9
ENDBRANCH   1   7
BRANCH   4  16
ATOM     16  N   UNL     1       8.363  -4.846   0.433  0.00  0.00    -0.149 NA
ATOM     17  N   UNL     1       8.340  -6.133   0.521  0.00  0.00    -0.147 NA
BRANCH  17  18
ATOM     18  C   UNL     1       9.504  -6.829   0.611  0.00  0.00    +0.107 A 
ATOM     19  C   UNL     1      10.730  -6.151   0.615  0.00  0.00    +0.033 A 
ATOM     20  C   UNL     1      11.898  -6.851   0.705  0.00  0.00    +0.025 A 
ATOM     21  C   UNL     1      11.882  -8.242   0.794  0.00  0.00    +0.026 A 
ATOM     22  C   UNL     1      10.676  -8.931   0.791  0.00  0.00    +0.047 A 
ATOM     23  C   UNL     1       9.482  -8.233   0.706  0.00  0.00    +0.054 A 
BRANCH  23  24
ATOM     24  N   UNL     1       8.271  -8.916   0.709  0.00  0.00    -0.356 N 
ATOM     25  H   UNL     1       7.438  -8.424   0.646  0.00  0.00    +0.142 HD
ATOM     26  H   UNL     1       8.260  -9.883   0.775  0.00  0.00    +0.142 HD
ENDBRANCH  23  24
BRANCH  21  27
ATOM     27  N   UNL     1      13.080  -8.944   0.885  0.00  0.00    -0.358 N 
ATOM     28  H   UNL     1      13.924  -8.465   0.886  0.00  0.00    +0.142 HD
ATOM     29  H   UNL     1      13.072  -9.912   0.947  0.00  0.00    +0.142 HD
ENDBRANCH  21  27
ENDBRANCH  17  18
ENDBRANCH   4  16
TORSDOF 7
