REMARK  Name = ZINC33162395
REMARK  4 active torsions:
REMARK  status: ('A' for Active; 'I' for Inactive)
REMARK    1  A    between atoms: C_3  and  N_10
REMARK    2  A    between atoms: C_5  and  N_7
REMARK    3  A    between atoms: C_13  and  C_15
REMARK    4  A    between atoms: N_17  and  C_18
REMARK                            x       y       z     vdW  Elec       q    Type
REMARK                         _______ _______ _______ _____ _____    ______ ____
ROOT
ATOM      1  C   UNL     1      -4.090   2.489  -0.169  0.00  0.00    +0.265 C 
ATOM      2  O   UNL     1      -3.812   2.169   0.971  0.00  0.00    -0.268 OA
ATOM      3  N   UNL     1      -3.551   3.602  -0.707  0.00  0.00    -0.303 N 
ATOM      4  H   UNL     1      -3.803   3.892  -1.737  0.00  0.00    +0.150 HD
ENDROOT
BRANCH   3   5
ATOM      5  C   UNL     1      -2.631   4.425   0.082  0.00  0.00    +0.105 C 
ATOM      6  C   UNL     1      -2.667   5.844  -0.457  0.00  0.00    +0.038 C 
ATOM      7  C   UNL     1      -1.748   6.729   0.399  0.00  0.00    +0.076 C 
ATOM      8  S   UNL     1      -0.036   6.265   0.003  0.00  0.00    -0.125 S 
ATOM      9  C   UNL     1      -0.079   4.500   0.020  0.00  0.00    +0.013 A 
ATOM     10  C   UNL     1      -1.269   3.796   0.038  0.00  0.00    -0.012 A 
ATOM     11  C   UNL     1      -1.225   2.405   0.021  0.00  0.00    +0.026 A 
ATOM     12  C   UNL     1      -0.021   1.732   0.012  0.00  0.00    +0.041 A 
ATOM     13  C   UNL     1       1.168   2.440   0.004  0.00  0.00    +0.021 A 
ATOM     14  C   UNL     1       1.137   3.817   0.005  0.00  0.00    +0.016 A 
ATOM     15 CL   UNL     1       0.002  -0.004   0.002  0.00  0.00    -0.084 Cl
ENDBRANCH   3   5
BRANCH   1  19
ATOM     16  N   UNL     1      -6.215   0.966  -2.589  0.00  0.00    -0.239 N 
ATOM     17  C   UNL     1      -6.404   0.064  -1.591  0.00  0.00    +0.115 A 
ATOM     18  C   UNL     1      -5.654   0.468  -0.540  0.00  0.00    +0.054 A 
ATOM     19  C   UNL     1      -5.018   1.660  -0.964  0.00  0.00    +0.147 A 
ATOM     20  N   UNL     1      -5.405   1.886  -2.203  0.00  0.00    -0.162 NA
BRANCH  16  23
ATOM     21  C   UNL     1      -8.346  -0.140  -5.375  0.00  0.00    +0.004 A 
ATOM     22  C   UNL     1      -7.756  -0.080  -4.128  0.00  0.00    +0.028 A 
ATOM     23  C   UNL     1      -6.815   0.903  -3.853  0.00  0.00    +0.068 A 
ATOM     24  C   UNL     1      -6.473   1.826  -4.833  0.00  0.00    +0.060 A 
ATOM     25  C   UNL     1      -7.062   1.758  -6.080  0.00  0.00    +0.128 A 
ATOM     26  C   UNL     1      -8.000   0.778  -6.350  0.00  0.00    +0.033 A 
BRANCH  25  27
ATOM     27  N   UNL     1      -6.694   2.738  -7.126  0.00  0.00    +0.056 N 
ATOM     28  O   UNL     1      -7.217   2.681  -8.225  0.00  0.00    -0.126 OA
ATOM     29  O   UNL     1      -5.869   3.601  -6.888  0.00  0.00    -0.126 OA
ENDBRANCH  25  27
ENDBRANCH  16  23
ENDBRANCH   1  19
TORSDOF 4
