REMARK  Name = ZINC21226371
REMARK  7 active torsions:
REMARK  status: ('A' for Active; 'I' for Inactive)
REMARK    1  A    between atoms: C_1  and  O_2
REMARK    2  A    between atoms: O_2  and  C_3
REMARK    3  A    between atoms: C_7  and  C_9
REMARK    4  A    between atoms: C_14  and  C_24
REMARK    5  A    between atoms: C_27  and  O_31
REMARK    6  A    between atoms: C_28  and  O_30
REMARK    7  A    between atoms: O_31  and  C_32
REMARK                            x       y       z     vdW  Elec       q    Type
REMARK                         _______ _______ _______ _____ _____    ______ ____
ROOT
ATOM      1  C   UNL     1       2.414   4.150   0.526  0.00  0.00    +0.032 C 
ATOM      2  C   UNL     1       3.091   3.607  -0.731  0.00  0.00    +0.059 C 
ATOM      3  C   UNL     1       4.429   4.299  -0.936  0.00  0.00    +0.017 C 
ATOM      4  C   UNL     1       5.163   4.684   0.121  0.00  0.00    +0.036 C 
ATOM      5  C   UNL     1       6.520   5.345   0.064  0.00  0.00    +0.136 C 
ATOM      6  N   UNL     1       6.909   5.800  -1.254  0.00  0.00    -0.331 N 
ATOM      7  C   UNL     1       7.119   4.897  -2.295  0.00  0.00    +0.049 A 
ATOM      8  C   UNL     1       8.383   4.683  -2.822  0.00  0.00    +0.025 A 
ATOM      9  C   UNL     1       8.563   3.699  -3.779  0.00  0.00    +0.002 A 
ATOM     10  C   UNL     1       7.492   2.936  -4.208  0.00  0.00    +0.002 A 
ATOM     11  C   UNL     1       6.225   3.162  -3.699  0.00  0.00    +0.025 A 
ATOM     12  C   UNL     1       6.040   4.156  -2.754  0.00  0.00    +0.052 A 
ATOM     13  N   UNL     1       4.788   4.464  -2.234  0.00  0.00    -0.316 N 
ATOM     14  C   UNL     1       4.679   4.484   1.435  0.00  0.00    +0.163 C 
ATOM     15  O   UNL     1       5.373   4.825   2.373  0.00  0.00    -0.292 OA
ATOM     16  C   UNL     1       3.341   3.868   1.714  0.00  0.00    +0.088 C 
ATOM     17  H   UNL     1       7.045   6.874  -1.447  0.00  0.00    +0.147 HD
ATOM     18  H   UNL     1       4.066   4.868  -2.958  0.00  0.00    +0.152 HD
ENDROOT
BRANCH   1  23
ATOM     19  C   UNL     1      -1.290   3.557   0.983  0.00  0.00    +0.120 A 
ATOM     20  C   UNL     1      -1.333   2.176   1.112  0.00  0.00    +0.045 A 
ATOM     21  C   UNL     1      -0.164   1.442   1.059  0.00  0.00    +0.004 A 
ATOM     22  C   UNL     1       1.047   2.081   0.868  0.00  0.00    +0.004 A 
ATOM     23  C   UNL     1       1.092   3.456   0.734  0.00  0.00    -0.040 A 
ATOM     24  C   UNL     1      -0.074   4.196   0.791  0.00  0.00    +0.049 A 
BRANCH  19  26
ATOM     25  C   UNL     1      -3.654   3.557   1.239  0.00  0.00    +0.277 C 
ATOM     26  O   UNL     1      -2.438   4.282   1.039  0.00  0.00    -0.495 OA
ENDBRANCH  19  26
ENDBRANCH   1  23
BRANCH   5  27
ATOM     27  C   UNL     1       7.551   4.362   0.555  0.00  0.00    -0.019 A 
ATOM     28  C   UNL     1       7.768   3.186  -0.139  0.00  0.00    +0.009 A 
ATOM     29  C   UNL     1       8.717   2.283   0.305  0.00  0.00    +0.050 A 
ATOM     30  C   UNL     1       9.445   2.552   1.453  0.00  0.00    +0.161 A 
ATOM     31  C   UNL     1       9.223   3.733   2.154  0.00  0.00    +0.159 A 
ATOM     32  C   UNL     1       8.274   4.636   1.701  0.00  0.00    +0.055 A 
BRANCH  31  33
ATOM     33  O   UNL     1       9.935   4.001   3.281  0.00  0.00    -0.503 OA
ATOM     34  H   UNL     1       9.758   4.935   3.834  0.00  0.00    +0.292 HD
ENDBRANCH  31  33
BRANCH  30  35
ATOM     35  O   UNL     1      10.375   1.663   1.893  0.00  0.00    -0.491 OA
ATOM     36  C   UNL     1      10.550   0.471   1.123  0.00  0.00    +0.277 C 
ENDBRANCH  30  35
ENDBRANCH   5  27
TORSDOF 5
