REMARK  Name = ZINC13571067
REMARK  5 active torsions:
REMARK  status: ('A' for Active; 'I' for Inactive)
REMARK    1  A    between atoms: C_1  and  C_2
REMARK    2  A    between atoms: C_2  and  C_28
REMARK    3  A    between atoms: C_6  and  C_17
REMARK    4  A    between atoms: C_11  and  O_16
REMARK    5  A    between atoms: C_12  and  O_15
REMARK                            x       y       z     vdW  Elec       q    Type
REMARK                         _______ _______ _______ _____ _____    ______ ____
ROOT
ATOM      1  C   UNL     1      -0.019   1.526   0.010  0.00  0.00    +0.031 C 
ATOM      2  C   UNL     1       0.002  -0.004   0.002  0.00  0.00    +0.033 C 
ATOM      3  C   UNL     1       0.614  -0.501  -1.313  0.00  0.00    +0.094 C 
ATOM      4  C   UNL     1       2.078  -0.058  -1.367  0.00  0.00    +0.180 C 
ATOM      5  C   UNL     1       2.743  -0.640  -2.619  0.00  0.00    +0.082 C 
ATOM      6  C   UNL     1       4.229  -0.273  -2.591  0.00  0.00    +0.061 C 
ATOM      7  C   UNL     1       4.385   1.194  -2.280  0.00  0.00    +0.006 A 
ATOM      8  C   UNL     1       5.593   1.810  -2.567  0.00  0.00    +0.011 A 
ATOM      9  C   UNL     1       5.779   3.150  -2.293  0.00  0.00    +0.050 A 
ATOM     10  C   UNL     1       4.753   3.890  -1.727  0.00  0.00    +0.162 A 
ATOM     11  C   UNL     1       3.540   3.280  -1.439  0.00  0.00    +0.201 A 
ATOM     12  C   UNL     1       3.355   1.927  -1.718  0.00  0.00    +0.172 A 
ATOM     13  O   UNL     1       2.150   1.365  -1.432  0.00  0.00    -0.464 OA
ATOM     14  N   UNL     1       2.775  -0.537  -0.173  0.00  0.00    -0.289 N 
ATOM     15  C   UNL     1       2.125  -0.719   0.987  0.00  0.00    +0.133 C 
ATOM     16  S   UNL     1       3.009  -1.266   2.348  0.00  0.00    -0.019 S 
ATOM     17  N   UNL     1       0.811  -0.488   1.122  0.00  0.00    -0.321 N 
ATOM     18  C   UNL     1      -1.427  -0.535   0.136  0.00  0.00    +0.031 C 
ATOM     19  H   UNL     1       3.725  -0.727  -0.221  0.00  0.00    +0.151 HD
ATOM     20  H   UNL     1       0.387  -0.646   1.980  0.00  0.00    +0.148 HD
ENDROOT
BRANCH   6  21
ATOM     21  C   UNL     1       4.844  -0.568  -3.934  0.00  0.00    -0.004 A 
ATOM     22  C   UNL     1       4.369   0.068  -5.066  0.00  0.00    +0.007 A 
ATOM     23  C   UNL     1       4.933  -0.203  -6.299  0.00  0.00    +0.000 A 
ATOM     24  C   UNL     1       5.972  -1.109  -6.401  0.00  0.00    +0.003 A 
ATOM     25  C   UNL     1       6.449  -1.745  -5.271  0.00  0.00    +0.038 A 
ATOM     26  C   UNL     1       5.888  -1.471  -4.035  0.00  0.00    +0.127 A 
ATOM     27  F   UNL     1       6.356  -2.088  -2.928  0.00  0.00    -0.205 F 
ENDBRANCH   6  21
BRANCH  11  28
ATOM     28  O   UNL     1       2.530   4.003  -0.882  0.00  0.00    -0.501 OA
ATOM     29  H   UNL     1       1.942   4.419  -1.528  0.00  0.00    +0.292 HD
ENDBRANCH  11  28
BRANCH  10  30
ATOM     30  O   UNL     1       4.934   5.210  -1.453  0.00  0.00    -0.503 OA
ATOM     31  H   UNL     1       4.690   5.799  -2.181  0.00  0.00    +0.292 HD
ENDBRANCH  10  30
TORSDOF 3
