REMARK  Name = ZINC42084908
REMARK  9 active torsions:
REMARK  status: ('A' for Active; 'I' for Inactive)
REMARK    1  A    between atoms: C_1  and  C_2
REMARK    2  A    between atoms: C_8  and  N_10
REMARK    3  A    between atoms: N_10  and  C_11
REMARK    4  A    between atoms: C_11  and  N_13
REMARK    5  A    between atoms: N_13  and  N_14
REMARK    6  A    between atoms: C_15  and  C_17
REMARK    7  A    between atoms: C_21  and  S_23
REMARK    8  A    between atoms: S_23  and  N_26
REMARK    9  A    between atoms: N_26  and  C_27
REMARK                            x       y       z     vdW  Elec       q    Type
REMARK                         _______ _______ _______ _____ _____    ______ ____
ROOT
ATOM      1  N   UNL     1       4.668   0.942   1.166  0.00  0.00    -0.231 N 
ATOM      2  C   UNL     1       5.933   1.409   1.156  0.00  0.00    +0.260 C 
ATOM      3  O   UNL     1       6.545   1.528   2.200  0.00  0.00    -0.269 OA
ATOM      4  H   UNL     1       4.180   0.848   0.333  0.00  0.00    +0.173 HD
ENDROOT
BRANCH   2   5
ATOM      5  C   UNL     1       6.576   1.776  -0.123  0.00  0.00    +0.040 A 
ATOM      6  C   UNL     1       5.874   1.647  -1.323  0.00  0.00    +0.013 A 
ATOM      7  C   UNL     1       6.479   1.992  -2.514  0.00  0.00    +0.003 A 
ATOM      8  C   UNL     1       7.779   2.465  -2.520  0.00  0.00    +0.028 A 
ATOM      9  C   UNL     1       8.481   2.595  -1.335  0.00  0.00    +0.106 A 
ATOM     10  C   UNL     1       7.885   2.260  -0.137  0.00  0.00    +0.041 A 
BRANCH   9  11
ATOM     11  S   UNL     1      10.136   3.198  -1.355  0.00  0.00    +0.058 S 
ATOM     12  O   UNL     1      10.760   2.712  -0.174  0.00  0.00    -0.153 OA
ATOM     13  O   UNL     1      10.650   2.932  -2.653  0.00  0.00    -0.153 OA
BRANCH  11  14
ATOM     14  N   UNL     1      10.059   4.846  -1.206  0.00  0.00    -0.193 NA
ATOM     15  C   UNL     1       9.540   5.446   0.026  0.00  0.00    +0.127 C 
ATOM     16  H   UNL     1      10.357   5.413  -1.934  0.00  0.00    +0.148 HD
ENDBRANCH  11  14
ENDBRANCH   9  11
ENDBRANCH   2   5
BRANCH   1  17
ATOM     17  N   UNL     1       4.059   0.594   2.379  0.00  0.00    -0.246 N 
ATOM     18  H   UNL     1       4.548   0.689   3.211  0.00  0.00    +0.172 HD
BRANCH  17  19
ATOM     19  C   UNL     1       2.795   0.128   2.388  0.00  0.00    +0.147 C 
ATOM     20  S   UNL     1       2.051  -0.298   3.870  0.00  0.00    -0.017 S 
BRANCH  19  21
ATOM     21  N   UNL     1       2.116  -0.004   1.231  0.00  0.00    -0.322 N 
ATOM     22  H   UNL     1       2.538   0.237   0.392  0.00  0.00    +0.148 HD
BRANCH  21  29
ATOM     23  C   UNL     1      -0.019   1.526   0.010  0.00  0.00    +0.009 C 
ATOM     24  C   UNL     1       0.002  -0.004   0.002  0.00  0.00    +0.006 C 
ATOM     25  C   UNL     1       0.718  -0.497  -1.257  0.00  0.00    +0.005 C 
ATOM     26  C   UNL     1       0.739  -2.027  -1.265  0.00  0.00    +0.000 C 
ATOM     27  C   UNL     1       1.479  -2.534  -0.026  0.00  0.00    +0.002 C 
ATOM     28  C   UNL     1       0.763  -2.041   1.233  0.00  0.00    +0.022 C 
ATOM     29  C   UNL     1       0.742  -0.511   1.242  0.00  0.00    +0.075 C 
ENDBRANCH  21  29
ENDBRANCH  19  21
ENDBRANCH  17  19
ENDBRANCH   1  17
TORSDOF 7
