REMARK  Name = ZINC09224242
REMARK  7 active torsions:
REMARK  status: ('A' for Active; 'I' for Inactive)
REMARK    1  A    between atoms: C_1  and  C_2
REMARK    2  A    between atoms: C_2  and  CA_3
REMARK    3  A    between atoms: CA_3  and  C_5
REMARK    4  A    between atoms: CA_3  and  N_7
REMARK    5  A    between atoms: C_5  and  O_6
REMARK    6  A    between atoms: C_8  and  C_10
REMARK    7  A    between atoms: C_28  and  N_50
REMARK                            x       y       z     vdW  Elec       q    Type
REMARK                         _______ _______ _______ _____ _____    ______ ____
ROOT
ATOM      1  C   UNL     1      -2.198   0.324   3.478  0.00  0.00    +0.081 C 
ATOM      2  C   UNL     1      -0.916   1.144   3.661  0.00  0.00    -0.061 C 
ATOM      3  C   UNL     1      -0.732   1.581   1.270  0.00  0.00    -0.033 C 
ATOM      4  C   UNL     1      -0.013   1.086   0.008  0.00  0.00    +0.026 C 
ATOM      5  C   UNL     1      -0.742   1.585  -1.212  0.00  0.00    -0.023 A 
ATOM      6  C   UNL     1      -0.406   1.835  -2.473  0.00  0.00    +0.087 A 
ATOM      7  N   UNL     1      -1.509   2.280  -3.185  0.00  0.00    -0.360 N 
ATOM      8  H   UNL     1      -1.501   2.522  -4.125  0.00  0.00    +0.165 HD
ATOM      9  C   UNL     1      -2.607   2.329  -2.380  0.00  0.00    +0.047 A 
ATOM     10  C   UNL     1      -2.162   1.904  -1.125  0.00  0.00    +0.010 A 
ATOM     11  C   UNL     1      -2.956   1.808   0.037  0.00  0.00    -0.014 A 
ATOM     12  C   UNL     1      -4.279   2.153  -0.116  0.00  0.00    +0.009 A 
ATOM     13  C   UNL     1      -4.745   2.571  -1.361  0.00  0.00    +0.003 A 
ATOM     14  C   UNL     1      -3.953   2.674  -2.499  0.00  0.00    +0.026 A 
ATOM     15  C   UNL     1      -2.221   1.362   1.237  0.00  0.00    -0.056 C 
ATOM     16  C   UNL     1      -2.889   0.796   2.227  0.00  0.00    -0.014 C 
ATOM     17  C   UNL     1       1.243   1.565   2.654  0.00  0.00    -0.095 C 
ATOM     18  N   UNL     1      -0.083   0.966   2.447  0.00  0.00    +0.383 N 
ATOM     19  H   UNL     1       0.031  -0.040   2.272  0.00  0.00    -0.081 HD
ENDROOT
BRANCH   1  21
ATOM     20  N   UNL     1      -2.828  -2.046   3.153  0.00  0.00    -0.310 N 
ATOM     21  C   UNL     1      -1.852  -1.137   3.346  0.00  0.00    +0.218 C 
ATOM     22  O   UNL     1      -0.695  -1.494   3.413  0.00  0.00    -0.275 OA
ATOM     23  H   UNL     1      -3.753  -1.761   3.100  0.00  0.00    +0.149 HD
BRANCH  20  24
ATOM     24  CA  UNL     1      -2.491  -3.466   3.025  0.00  0.00    +0.098 C 
BRANCH  24  26
ATOM     25  C   UNL     1      -1.209  -3.465   5.169  0.00  0.00    +0.006 C 
ATOM     26  C   UNL     1      -2.383  -4.093   4.417  0.00  0.00    +0.021 C 
ENDBRANCH  24  26
BRANCH  24  27
ATOM     27  C   UNL     1      -3.584  -4.180   2.228  0.00  0.00    +0.178 C 
BRANCH  27  28
ATOM     28  O   UNL     1      -4.809  -4.147   2.963  0.00  0.00    -0.393 OA
ATOM     29  H   UNL     1      -5.548  -4.582   2.517  0.00  0.00    +0.209 HD
ENDBRANCH  27  28
ENDBRANCH  24  27
ENDBRANCH  20  24
ENDBRANCH   1  21
TORSDOF 5
