REMARK  Name = ZINC17078666
REMARK  7 active torsions:
REMARK  status: ('A' for Active; 'I' for Inactive)
REMARK    1  A    between atoms: C_1  and  C_2
REMARK    2  A    between atoms: C_2  and  C_31
REMARK    3  A    between atoms: C_10  and  C_29
REMARK    4  A    between atoms: C_12  and  C_14
REMARK    5  A    between atoms: N_16  and  C_17
REMARK    6  A    between atoms: C_22  and  C_23
REMARK    7  A    between atoms: C_23  and  C_25
REMARK                            x       y       z     vdW  Elec       q    Type
REMARK                         _______ _______ _______ _____ _____    ______ ____
ROOT
ATOM      1  C   UNL     1       3.567   5.724   0.819  0.00  0.00    +0.222 C 
ATOM      2  O   UNL     1       2.375   5.828   1.021  0.00  0.00    -0.275 OA
ATOM      3  N   UNL     1       4.141   4.505   0.790  0.00  0.00    -0.285 N 
ATOM      4  H   UNL     1       5.104   4.425   0.700  0.00  0.00    +0.155 HD
ENDROOT
BRANCH   1  13
ATOM      5  C   UNL     1       1.727   8.308  -2.942  0.00  0.00    +0.039 C 
ATOM      6  C   UNL     1       1.867   8.302  -1.442  0.00  0.00    -0.076 C 
ATOM      7  C   UNL     1       3.057   8.251  -0.895  0.00  0.00    -0.063 C 
ATOM      8  C   UNL     1       3.506   8.231   0.584  0.00  0.00    +0.028 C 
ATOM      9  C   UNL     1       4.510   9.424   0.600  0.00  0.00    +0.009 C 
ATOM     10  C   UNL     1       5.155   9.397  -0.805  0.00  0.00    +0.009 C 
ATOM     11  C   UNL     1       4.470   8.191  -1.518  0.00  0.00    +0.030 C 
ATOM     12  C   UNL     1       5.049   6.931  -0.807  0.00  0.00    +0.122 C 
ATOM     13  C   UNL     1       4.404   6.957   0.599  0.00  0.00    +0.097 C 
ATOM     14  C   UNL     1       0.639   8.354  -0.570  0.00  0.00    +0.039 C 
BRANCH  12  15
ATOM     15  C   UNL     1       6.549   7.027  -0.701  0.00  0.00    +0.360 C 
ATOM     16  O   UNL     1       7.056   7.497   0.291  0.00  0.00    -0.246 OA
ATOM     17  O   UNL     1       7.323   6.592  -1.708  0.00  0.00    -0.246 OA
ENDBRANCH  12  15
ENDBRANCH   1  13
BRANCH   3  18
ATOM     18  C   UNL     1       3.353   3.361   0.890  0.00  0.00    +0.048 A 
ATOM     19  C   UNL     1       2.029   3.391   0.482  0.00  0.00    +0.073 A 
ATOM     20  C   UNL     1       1.243   2.254   0.582  0.00  0.00    +0.168 A 
ATOM     21  C   UNL     1       1.781   1.069   1.095  0.00  0.00    +0.167 A 
ATOM     22  C   UNL     1       3.096   1.026   1.504  0.00  0.00    +0.062 A 
ATOM     23  C   UNL     1       3.898   2.172   1.407  0.00  0.00    +0.042 A 
ATOM     24  O   UNL     1       0.808   0.110   1.085  0.00  0.00    -0.453 OA
ATOM     25  C   UNL     1      -0.434   0.826   0.948  0.00  0.00    +0.466 C 
ATOM     26  O   UNL     1      -0.061   2.031   0.254  0.00  0.00    -0.453 OA
BRANCH  23  27
ATOM     27  C   UNL     1       5.297   2.131   1.841  0.00  0.00    +0.162 C 
ATOM     28  O   UNL     1       5.958   3.148   1.852  0.00  0.00    -0.292 OA
ATOM     29  C   UNL     1       5.913   0.825   2.273  0.00  0.00    +0.091 C 
ENDBRANCH  23  27
ENDBRANCH   3  18
TORSDOF 4
