REMARK  Name = ZINC08845159
REMARK  12 active torsions:
REMARK  status: ('A' for Active; 'I' for Inactive)
REMARK    1  A    between atoms: C_1  and  C_2
REMARK    2  A    between atoms: C_4  and  C_34
REMARK    3  A    between atoms: C_5  and  O_33
REMARK    4  A    between atoms: C_6  and  C_8
REMARK    5  A    between atoms: N_16  and  C_29
REMARK    6  A    between atoms: C_17  and  C_19
REMARK    7  A    between atoms: C_21  and  O_27
REMARK    8  A    between atoms: C_22  and  O_26
REMARK    9  A    between atoms: O_27  and  C_28
REMARK   10  A    between atoms: C_29  and  C_30
REMARK   11  A    between atoms: C_30  and  C_31
REMARK   12  A    between atoms: C_31  and  O_32
REMARK                            x       y       z     vdW  Elec       q    Type
REMARK                         _______ _______ _______ _____ _____    ______ ____
ROOT
ATOM      1  C   UNL     1       0.052  -2.841   2.463  0.00  0.00    +0.075 A 
ATOM      2  C   UNL     1       1.054  -3.632   2.928  0.00  0.00    +0.035 A 
ATOM      3  C   UNL     1       0.613  -4.128   4.175  0.00  0.00    +0.153 A 
ATOM      4  N   UNL     1      -0.588  -3.625   4.385  0.00  0.00    -0.168 NA
ATOM      5  N   UNL     1      -0.936  -2.868   3.406  0.00  0.00    -0.276 N 
ATOM      6  H   UNL     1      -1.777  -2.389   3.345  0.00  0.00    +0.189 HD
ATOM      7  C   UNL     1       1.674  -4.994   4.719  0.00  0.00    +0.268 C 
ATOM      8  O   UNL     1       1.613  -5.581   5.782  0.00  0.00    -0.268 OA
ATOM      9  N   UNL     1       2.717  -5.045   3.874  0.00  0.00    -0.285 N 
ATOM     10  C   UNL     1       2.424  -4.212   2.702  0.00  0.00    +0.141 C 
ENDROOT
BRANCH   1  16
ATOM     11  C   UNL     1      -0.018   1.503   0.010  0.00  0.00    +0.044 C 
ATOM     12  C   UNL     1       0.002  -0.004   0.002  0.00  0.00    -0.049 A 
ATOM     13  C   UNL     1       0.006  -0.687  -1.202  0.00  0.00    +0.010 A 
ATOM     14  C   UNL     1       0.024  -2.069  -1.221  0.00  0.00    -0.008 A 
ATOM     15  C   UNL     1       0.040  -2.779  -0.031  0.00  0.00    +0.129 A 
ATOM     16  C   UNL     1       0.036  -2.092   1.188  0.00  0.00    +0.042 A 
ATOM     17  C   UNL     1       0.023  -0.698   1.195  0.00  0.00    +0.017 A 
ATOM     18  C   UNL     1       0.028  -2.804  -2.536  0.00  0.00    +0.047 C 
BRANCH  15  19
ATOM     19  O   UNL     1       0.058  -4.137  -0.049  0.00  0.00    -0.506 OA
ATOM     20  H   UNL     1       0.946  -4.519  -0.058  0.00  0.00    +0.292 HD
ENDBRANCH  15  19
ENDBRANCH   1  16
BRANCH  10  21
ATOM     21  C   UNL     1       3.441  -3.107   2.585  0.00  0.00    -0.018 A 
ATOM     22  C   UNL     1       3.877  -2.699   1.338  0.00  0.00    +0.055 A 
ATOM     23  C   UNL     1       4.812  -1.683   1.228  0.00  0.00    +0.163 A 
ATOM     24  C   UNL     1       5.311  -1.074   2.375  0.00  0.00    +0.173 A 
ATOM     25  C   UNL     1       4.870  -1.486   3.623  0.00  0.00    +0.063 A 
ATOM     26  C   UNL     1       3.932  -2.498   3.725  0.00  0.00    +0.025 A 
ATOM     27 BR   UNL     1       5.545  -0.661   5.185  0.00  0.00    -0.046 Br
BRANCH  24  28
ATOM     28  O   UNL     1       6.230  -0.076   2.273  0.00  0.00    -0.503 OA
ATOM     29  H   UNL     1       5.845   0.808   2.210  0.00  0.00    +0.292 HD
ENDBRANCH  24  28
BRANCH  23  30
ATOM     30  O   UNL     1       5.242  -1.282   0.002  0.00  0.00    -0.491 OA
ATOM     31  C   UNL     1       4.688  -1.953  -1.132  0.00  0.00    +0.277 C 
ENDBRANCH  23  30
ENDBRANCH  10  21
BRANCH   9  32
ATOM     32  C   UNL     1       3.950  -5.808   4.088  0.00  0.00    +0.111 C 
BRANCH  32  33
ATOM     33  C   UNL     1       3.788  -7.212   3.502  0.00  0.00    +0.047 C 
BRANCH  33  34
ATOM     34  C   UNL     1       5.075  -8.009   3.725  0.00  0.00    +0.157 C 
BRANCH  34  35
ATOM     35  O   UNL     1       4.925  -9.320   3.178  0.00  0.00    -0.395 OA
ATOM     36  H   UNL     1       5.704  -9.883   3.284  0.00  0.00    +0.209 HD
ENDBRANCH  34  35
ENDBRANCH  33  34
ENDBRANCH  32  33
ENDBRANCH   9  32
TORSDOF 9
