REMARK  Name = ZINC36879977
REMARK  5 active torsions:
REMARK  status: ('A' for Active; 'I' for Inactive)
REMARK    1  A    between atoms: C_1  and  C_2
REMARK    2  A    between atoms: C_3  and  C_12
REMARK    3  A    between atoms: C_12  and  N_13
REMARK    4  A    between atoms: C_16  and  C_20
REMARK    5  A    between atoms: C_16  and  C_21
REMARK                            x       y       z     vdW  Elec       q    Type
REMARK                         _______ _______ _______ _____ _____    ______ ____
ROOT
ATOM      1  N   UNL     1       1.363   0.360  -2.933  0.00  0.00    -0.218 N 
ATOM      2  C   UNL     1       2.065   1.453  -2.573  0.00  0.00    +0.251 C 
ATOM      3  O   UNL     1       1.692   2.362  -1.864  0.00  0.00    -0.272 OA
ATOM      4  C   UNL     1       3.419   1.308  -3.240  0.00  0.00    +0.135 C 
ATOM      5  N   UNL     1       3.313   0.030  -3.965  0.00  0.00    -0.281 N 
ATOM      6  C   UNL     1       2.080  -0.450  -3.721  0.00  0.00    +0.310 C 
ATOM      7  O   UNL     1       1.662  -1.500  -4.169  0.00  0.00    -0.252 OA
ATOM      8  C   UNL     1       4.531   1.240  -2.191  0.00  0.00    +0.047 C 
ATOM      9  H   UNL     1       3.999  -0.386  -4.510  0.00  0.00    +0.152 HD
ENDROOT
BRANCH   4  10
ATOM     10  C   UNL     1       3.662   2.444  -4.200  0.00  0.00    -0.014 A 
ATOM     11  C   UNL     1       3.102   3.685  -3.958  0.00  0.00    +0.006 A 
ATOM     12  C   UNL     1       3.325   4.727  -4.838  0.00  0.00    +0.001 A 
ATOM     13  C   UNL     1       4.106   4.529  -5.961  0.00  0.00    +0.015 A 
ATOM     14  C   UNL     1       4.667   3.288  -6.203  0.00  0.00    +0.018 A 
ATOM     15  C   UNL     1       4.448   2.246  -5.319  0.00  0.00    +0.021 A 
ATOM     16 BR   UNL     1       5.736   3.016  -7.739  0.00  0.00    -0.050 Br
ENDBRANCH   4  10
BRANCH   1  17
ATOM     17  C   UNL     1      -0.012   0.088  -2.507  0.00  0.00    +0.175 C 
BRANCH  17  20
ATOM     18  C   UNL     1      -0.018   1.503   0.010  0.00  0.00    +0.067 C 
ATOM     19  C   UNL     1       0.002  -0.004   0.002  0.00  0.00    +0.062 A 
ATOM     20  C   UNL     1       0.006  -0.688  -1.216  0.00  0.00    +0.081 A 
ATOM     21  N   UNL     1       0.024  -2.001  -1.247  0.00  0.00    -0.247 NA
ATOM     22  C   UNL     1       0.039  -2.692  -0.102  0.00  0.00    +0.090 A 
ATOM     23  C   UNL     1       0.059  -4.097  -0.102  0.00  0.00    +0.030 A 
ATOM     24  C   UNL     1       0.075  -4.771   1.080  0.00  0.00    +0.002 A 
ATOM     25  C   UNL     1       0.071  -4.088   2.296  0.00  0.00    +0.002 A 
ATOM     26  C   UNL     1       0.051  -2.728   2.334  0.00  0.00    +0.030 A 
ATOM     27  C   UNL     1       0.035  -1.997   1.134  0.00  0.00    +0.089 A 
ATOM     28  N   UNL     1       0.022  -0.660   1.140  0.00  0.00    -0.249 NA
ENDBRANCH  17  20
ENDBRANCH   1  17
TORSDOF 3
