REMARK  Name = ZINC10360074
REMARK  5 active torsions:
REMARK  status: ('A' for Active; 'I' for Inactive)
REMARK    1  A    between atoms: C_4  and  N_7
REMARK    2  A    between atoms: C_8  and  C_10
REMARK    3  A    between atoms: N_18  and  C_19
REMARK    4  A    between atoms: C_19  and  C_20
REMARK    5  A    between atoms: C_20  and  C_21
REMARK                            x       y       z     vdW  Elec       q    Type
REMARK                         _______ _______ _______ _____ _____    ______ ____
ROOT
ATOM      1  C   UNL     1       4.959  -2.722   0.150  0.00  0.00    +0.078 C 
ATOM      2  C   UNL     1       5.799  -2.422  -1.094  0.00  0.00    +0.032 C 
ATOM      3  C   UNL     1       7.151  -3.133  -0.976  0.00  0.00    +0.110 C 
ATOM      4  N   UNL     1       6.914  -4.563  -0.737  0.00  0.00    -0.286 N 
ATOM      5  C   UNL     1       6.046  -4.959   0.380  0.00  0.00    +0.110 C 
ATOM      6  C   UNL     1       4.707  -4.228   0.247  0.00  0.00    +0.032 C 
ATOM      7  C   UNL     1       7.481  -5.495  -1.529  0.00  0.00    +0.302 C 
ATOM      8  O   UNL     1       8.269  -5.160  -2.393  0.00  0.00    -0.253 OA
ATOM      9  N   UNL     1       7.176  -6.797  -1.363  0.00  0.00    -0.299 N 
ATOM     10  H   UNL     1       6.605  -7.072  -0.629  0.00  0.00    +0.150 HD
ENDROOT
BRANCH   1  12
ATOM     11  N   UNL     1       3.618  -0.652  -0.042  0.00  0.00    -0.285 N 
ATOM     12  C   UNL     1       3.642  -1.996   0.053  0.00  0.00    +0.220 C 
ATOM     13  O   UNL     1       2.603  -2.623   0.061  0.00  0.00    -0.275 OA
ATOM     14  H   UNL     1       4.448  -0.157  -0.123  0.00  0.00    +0.155 HD
BRANCH  11  18
ATOM     15  C   UNL     1      -0.021   1.376   0.013  0.00  0.00    +0.000 A 
ATOM     16  C   UNL     1       0.132   0.212   0.745  0.00  0.00    +0.002 A 
ATOM     17  C   UNL     1       1.337  -0.462   0.729  0.00  0.00    +0.023 A 
ATOM     18  C   UNL     1       2.396   0.029  -0.024  0.00  0.00    +0.033 A 
ATOM     19  C   UNL     1       2.239   1.197  -0.757  0.00  0.00    +0.023 A 
ATOM     20  C   UNL     1       1.032   1.867  -0.737  0.00  0.00    +0.002 A 
ENDBRANCH  11  18
ENDBRANCH   1  12
BRANCH   9  21
ATOM     21  C   UNL     1       7.706  -7.798  -2.293  0.00  0.00    +0.111 C 
BRANCH  21  22
ATOM     22  C   UNL     1       7.211  -9.187  -1.883  0.00  0.00    +0.061 C 
BRANCH  22  23
ATOM     23  C   UNL     1       7.756 -10.216  -2.840  0.00  0.00    -0.008 A 
ATOM     24  C   UNL     1       8.909 -10.924  -2.765  0.00  0.00    +0.012 A 
ATOM     25  C   UNL     1       9.209 -11.825  -3.769  0.00  0.00    +0.023 A 
ATOM     26  C   UNL     1       8.339 -11.974  -4.800  0.00  0.00    +0.055 A 
ATOM     27  S   UNL     1       7.046 -10.825  -4.360  0.00  0.00    -0.086 S 
ATOM     28 BR   UNL     1       8.462 -13.111  -6.306  0.00  0.00    -0.043 Br
ENDBRANCH  22  23
ENDBRANCH  21  22
ENDBRANCH   9  21
TORSDOF 5
