REMARK  Name = ZINC36949877
REMARK  3 active torsions:
REMARK  status: ('A' for Active; 'I' for Inactive)
REMARK    1  A    between atoms: C_6  and  C_7
REMARK    2  A    between atoms: C_7  and  C_9
REMARK    3  A    between atoms: C_7  and  N_20
REMARK                            x       y       z     vdW  Elec       q    Type
REMARK                         _______ _______ _______ _____ _____    ______ ____
ROOT
ATOM      1  C   UNL     1      -1.293  -0.775   0.010  0.00  0.00    -0.013 C 
ENDROOT
BRANCH   1   2
ATOM      2  C   UNL     1      -1.612  -1.236  -1.389  0.00  0.00    -0.056 A 
ATOM      3  C   UNL     1      -0.991  -2.361  -1.902  0.00  0.00    +0.006 A 
ATOM      4  C   UNL     1      -1.279  -2.791  -3.184  0.00  0.00    +0.048 A 
ATOM      5  C   UNL     1      -2.191  -2.095  -3.957  0.00  0.00    +0.142 A 
ATOM      6  C   UNL     1      -2.816  -0.961  -3.440  0.00  0.00    +0.076 A 
ATOM      7  C   UNL     1      -2.528  -0.538  -2.153  0.00  0.00    +0.029 A 
ATOM      8  N   UNL     1      -3.737  -0.263  -4.234  0.00  0.00    -0.280 N 
ATOM      9  C   UNL     1      -4.234  -0.861  -5.339  0.00  0.00    +0.255 C 
ATOM     10  O   UNL     1      -5.007  -0.264  -6.058  0.00  0.00    -0.272 OA
ATOM     11  C   UNL     1      -3.823  -2.272  -5.675  0.00  0.00    +0.325 C 
ATOM     12  O   UNL     1      -2.487  -2.504  -5.219  0.00  0.00    -0.481 OA
ATOM     13  H   UNL     1      -4.013   0.636  -3.994  0.00  0.00    +0.155 HD
ENDBRANCH   1   2
BRANCH   1  19
ATOM     14  C   UNL     1      -0.017   1.378   0.010  0.00  0.00    +0.003 A 
ATOM     15  C   UNL     1       1.171   2.086   0.002  0.00  0.00    +0.015 A 
ATOM     16  C   UNL     1       2.378   1.411  -0.013  0.00  0.00    +0.018 A 
ATOM     17  C   UNL     1       2.396   0.027  -0.021  0.00  0.00    +0.015 A 
ATOM     18  C   UNL     1       1.208  -0.679  -0.013  0.00  0.00    +0.003 A 
ATOM     19  C   UNL     1       0.002  -0.004   0.002  0.00  0.00    -0.058 A 
ATOM     20 BR   UNL     1       4.003   2.378  -0.024  0.00  0.00    -0.050 Br
ENDBRANCH   1  19
BRANCH   1  21
ATOM     21  N   UNL     1      -1.162  -1.942   0.893  0.00  0.00    +0.385 N 
ATOM     22  H   UNL     1      -0.949  -1.633   1.830  0.00  0.00    -0.089 HD
ATOM     23  H   UNL     1      -2.029  -2.458   0.899  0.00  0.00    -0.089 HD
ATOM     24  H   UNL     1      -0.419  -2.536   0.557  0.00  0.00    -0.089 HD
ENDBRANCH   1  21
TORSDOF 3
