REMARK  Name = ZINC39591564
REMARK  8 active torsions:
REMARK  status: ('A' for Active; 'I' for Inactive)
REMARK    1  A    between atoms: C_1  and  C_2
REMARK    2  A    between atoms: C_4  and  C_8
REMARK    3  A    between atoms: C_12  and  S_27
REMARK    4  A    between atoms: N_14  and  N_15
REMARK    5  A    between atoms: C_16  and  C_17
REMARK    6  A    between atoms: C_19  and  O_25
REMARK    7  A    between atoms: C_20  and  O_24
REMARK    8  A    between atoms: O_25  and  C_26
REMARK                            x       y       z     vdW  Elec       q    Type
REMARK                         _______ _______ _______ _____ _____    ______ ____
ROOT
ATOM      1  C   UNL     1      -0.976  -2.937  -1.266  0.00  0.00    +0.263 C 
ATOM      2  N   UNL     1      -2.437  -2.953  -1.351  0.00  0.00    -0.163 NA
ATOM      3  N   UNL     1      -2.883  -4.099  -1.341  0.00  0.00    -0.155 NA
ATOM      4  C   UNL     1      -1.816  -5.097  -1.246  0.00  0.00    +0.288 C 
ATOM      5  N   UNL     1      -0.548  -4.345  -1.197  0.00  0.00    -0.192 N 
ENDROOT
BRANCH   1   9
ATOM      6  C   UNL     1      -0.018   1.503   0.010  0.00  0.00    +0.067 C 
ATOM      7  C   UNL     1       0.002  -0.004   0.002  0.00  0.00    +0.058 C 
ATOM      8  C   UNL     1      -1.086  -0.777   0.003  0.00  0.00    +0.030 C 
ATOM      9  C   UNL     1      -0.531  -2.190  -0.007  0.00  0.00    +0.198 C 
ATOM     10  N   UNL     1       0.926  -1.973  -0.013  0.00  0.00    -0.176 NA
ATOM     11  N   UNL     1       1.125  -0.756  -0.013  0.00  0.00    -0.159 NA
ENDBRANCH   1   9
BRANCH   5  12
ATOM     12  N   UNL     1       0.756  -4.850  -1.105  0.00  0.00    -0.187 NA
ATOM     13  C   UNL     1       0.953  -6.131  -1.053  0.00  0.00    +0.138 C 
BRANCH  13  14
ATOM     14  C   UNL     1       2.325  -6.663  -0.957  0.00  0.00    -0.001 A 
ATOM     15  C   UNL     1       2.540  -8.043  -0.907  0.00  0.00    +0.059 A 
ATOM     16  C   UNL     1       3.829  -8.536  -0.817  0.00  0.00    +0.163 A 
ATOM     17  C   UNL     1       4.909  -7.658  -0.776  0.00  0.00    +0.173 A 
ATOM     18  C   UNL     1       4.697  -6.288  -0.825  0.00  0.00    +0.063 A 
ATOM     19  C   UNL     1       3.414  -5.789  -0.921  0.00  0.00    +0.028 A 
ATOM     20 BR   UNL     1       6.169  -5.103  -0.768  0.00  0.00    -0.046 Br
BRANCH  17  21
ATOM     21  O   UNL     1       6.176  -8.146  -0.687  0.00  0.00    -0.503 OA
ATOM     22  H   UNL     1       6.595  -8.310  -1.542  0.00  0.00    +0.292 HD
ENDBRANCH  17  21
BRANCH  16  23
ATOM     23  O   UNL     1       4.040  -9.878  -0.767  0.00  0.00    -0.491 OA
ATOM     24  C   UNL     1       2.886 -10.720  -0.813  0.00  0.00    +0.277 C 
ENDBRANCH  16  23
ENDBRANCH  13  14
ENDBRANCH   5  12
BRANCH   4  25
ATOM     25  S   UNL     1      -2.017  -6.083   0.263  0.00  0.00    -0.130 S 
ATOM     26  H   UNL     1      -3.212  -6.680   0.104  0.00  0.00    +0.105 HD
ENDBRANCH   4  25
TORSDOF 6
