REMARK  Name = ZINC49425005
REMARK  4 active torsions:
REMARK  status: ('A' for Active; 'I' for Inactive)
REMARK    1  A    between atoms: C_3  and  C_6
REMARK    2  A    between atoms: C_6  and  N_7
REMARK    3  A    between atoms: C_14  and  C_17
REMARK    4  A    between atoms: N_19  and  C_20
REMARK                            x       y       z     vdW  Elec       q    Type
REMARK                         _______ _______ _______ _____ _____    ______ ____
ROOT
ATOM      1  N   UNL     1       4.232   2.008   1.353  0.00  0.00    -0.295 N 
ATOM      2  C   UNL     1       5.483   2.450   1.589  0.00  0.00    +0.302 C 
ATOM      3  O   UNL     1       6.249   2.632   0.663  0.00  0.00    -0.253 OA
ATOM      4  N   UNL     1       5.885   2.692   2.853  0.00  0.00    -0.285 N 
ATOM      5  C   UNL     1       5.014   2.365   3.991  0.00  0.00    +0.109 C 
ATOM      6  C   UNL     1       5.793   1.481   4.970  0.00  0.00    +0.020 C 
ATOM      7  C   UNL     1       7.097   2.183   5.357  0.00  0.00    +0.016 C 
ATOM      8  C   UNL     1       7.956   2.393   4.108  0.00  0.00    +0.093 C 
ATOM      9  C   UNL     1       7.204   3.282   3.120  0.00  0.00    +0.122 C 
ATOM     10  H   UNL     1       3.645   1.795   2.095  0.00  0.00    +0.151 HD
ENDROOT
BRANCH   8  11
ATOM     11  C   UNL     1       9.253   3.054   4.496  0.00  0.00    +0.224 C 
ATOM     12  O   UNL     1       9.471   3.330   5.657  0.00  0.00    -0.275 OA
ATOM     13  N   UNL     1      10.173   3.339   3.552  0.00  0.00    -0.254 N 
ATOM     14  H   UNL     1       9.999   3.119   2.624  0.00  0.00    +0.158 HD
BRANCH  13  15
ATOM     15  C   UNL     1      11.367   3.948   3.909  0.00  0.00    +0.227 A 
ATOM     16  C   UNL     1      12.368   4.292   3.070  0.00  0.00    +0.037 A 
ATOM     17  C   UNL     1      13.396   4.881   3.832  0.00  0.00    +0.089 A 
ATOM     18  N   UNL     1      13.025   4.891   5.075  0.00  0.00    -0.081 NA
ATOM     19  O   UNL     1      11.735   4.307   5.153  0.00  0.00    -0.339 OA
ATOM     20  C   UNL     1      14.687   5.388   3.236  0.00  0.00    +0.059 C 
ATOM     21  C   UNL     1      14.836   4.786   1.833  0.00  0.00    +0.007 C 
ATOM     22  C   UNL     1      13.552   5.015   1.033  0.00  0.00    +0.005 C 
ATOM     23  C   UNL     1      12.437   4.111   1.573  0.00  0.00    +0.042 C 
ENDBRANCH  13  15
ENDBRANCH   8  11
BRANCH   1  24
ATOM     24  C   UNL     1       3.760   1.850  -0.025  0.00  0.00    +0.148 C 
BRANCH  24  27
ATOM     25  C   UNL     1      -0.019   1.370   0.006  0.00  0.00    +0.008 A 
ATOM     26  C   UNL     1       1.183   2.052  -0.001  0.00  0.00    +0.013 A 
ATOM     27  C   UNL     1       2.340   1.346  -0.014  0.00  0.00    +0.007 A 
ATOM     28  S   UNL     1       1.744  -0.337  -0.015  0.00  0.00    -0.100 S 
ATOM     29  C   UNL     1      -0.006   0.015   0.001  0.00  0.00    +0.045 A 
ENDBRANCH  24  27
ENDBRANCH   1  24
TORSDOF 4
