REMARK  Name = ZINC39630006
REMARK  6 active torsions:
REMARK  status: ('A' for Active; 'I' for Inactive)
REMARK    1  A    between atoms: N_3  and  C_6
REMARK    2  A    between atoms: C_6  and  C_7
REMARK    3  A    between atoms: C_7  and  C_8
REMARK    4  A    between atoms: C_8  and  N_9
REMARK    5  A    between atoms: C_10  and  C_12
REMARK    6  A    between atoms: C_23  and  C_25
REMARK                            x       y       z     vdW  Elec       q    Type
REMARK                         _______ _______ _______ _____ _____    ______ ____
ROOT
ATOM      1  C   UNL     1       7.938   1.151   4.049  0.00  0.00    +0.100 C 
ATOM      2  C   UNL     1       7.569   2.280   5.037  0.00  0.00    +0.121 C 
ATOM      3  N   UNL     1       8.775   2.446   5.882  0.00  0.00    -0.296 N 
ATOM      4  C   UNL     1       9.909   2.298   4.939  0.00  0.00    +0.115 C 
ATOM      5  C   UNL     1       9.474   1.167   3.986  0.00  0.00    -0.004 C 
ATOM      6  C   UNL     1       9.942   1.465   2.565  0.00  0.00    -0.010 C 
ATOM      7  C   UNL     1      11.472   1.418   2.516  0.00  0.00    -0.082 C 
ATOM      8  N   UNL     1      11.936   0.090   2.937  0.00  0.00    +0.379 N 
ATOM      9  C   UNL     1      11.562  -0.151   4.335  0.00  0.00    -0.082 C 
ATOM     10  C   UNL     1      10.036  -0.170   4.462  0.00  0.00    -0.010 C 
ATOM     11  C   UNL     1       8.829   2.679   7.209  0.00  0.00    +0.247 C 
ATOM     12  O   UNL     1       7.812   2.647   7.873  0.00  0.00    -0.270 OA
ATOM     13  H   UNL     1      11.513  -0.614   2.351  0.00  0.00    -0.086 HD
ATOM     14  H   UNL     1      12.940   0.042   2.845  0.00  0.00    -0.086 HD
ENDROOT
BRANCH  11  15
ATOM     15  C   UNL     1      10.126   2.973   7.856  0.00  0.00    +0.040 A 
ATOM     16  C   UNL     1      11.201   3.433   7.093  0.00  0.00    +0.033 A 
ATOM     17  C   UNL     1      12.409   3.705   7.703  0.00  0.00    +0.043 A 
ATOM     18  C   UNL     1      12.555   3.524   9.068  0.00  0.00    +0.040 A 
ATOM     19  C   UNL     1      11.493   3.068   9.829  0.00  0.00    +0.043 A 
ATOM     20  C   UNL     1      10.278   2.797   9.232  0.00  0.00    +0.033 A 
ATOM     21 CL   UNL     1      11.686   2.842  11.540  0.00  0.00    -0.083 Cl
ATOM     22 CL   UNL     1      13.748   4.277   6.757  0.00  0.00    -0.083 Cl
ENDBRANCH  11  15
BRANCH   1  24
ATOM     23  N   UNL     1       7.010   0.413   1.878  0.00  0.00    -0.315 N 
ATOM     24  C   UNL     1       7.354   1.433   2.688  0.00  0.00    +0.218 C 
ATOM     25  O   UNL     1       7.194   2.579   2.323  0.00  0.00    -0.275 OA
ATOM     26  H   UNL     1       7.138  -0.503   2.170  0.00  0.00    +0.149 HD
BRANCH  23  27
ATOM     27  C   UNL     1       6.443   0.688   0.555  0.00  0.00    +0.106 C 
BRANCH  27  28
ATOM     28  C   UNL     1       6.143  -0.633  -0.156  0.00  0.00    +0.040 C 
BRANCH  28  29
ATOM     29  C   UNL     1       5.551  -0.346  -1.537  0.00  0.00    +0.124 C 
BRANCH  29  32
ATOM     30  C   UNL     1       4.257  -3.410  -2.928  0.00  0.00    +0.101 A 
ATOM     31  C   UNL     1       4.091  -2.316  -2.161  0.00  0.00    +0.104 A 
ATOM     32  N   UNL     1       5.263  -1.611  -2.217  0.00  0.00    -0.338 N 
ATOM     33  C   UNL     1       6.105  -2.300  -3.018  0.00  0.00    +0.173 A 
ATOM     34  N   UNL     1       5.497  -3.375  -3.439  0.00  0.00    -0.352 N 
ATOM     35  H   UNL     1       5.881  -4.043  -4.028  0.00  0.00    +0.166 HD
ENDBRANCH  29  32
ENDBRANCH  28  29
ENDBRANCH  27  28
ENDBRANCH  23  27
ENDBRANCH   1  24
TORSDOF 6
