REMARK  Name = ZINC06889567
REMARK  4 active torsions:
REMARK  status: ('A' for Active; 'I' for Inactive)
REMARK    1  A    between atoms: C_4  and  O_27
REMARK    2  A    between atoms: C_5  and  C_7
REMARK    3  A    between atoms: C_10  and  C_20
REMARK    4  A    between atoms: C_13  and  C_15
REMARK                            x       y       z     vdW  Elec       q    Type
REMARK                         _______ _______ _______ _____ _____    ______ ____
ROOT
ATOM      1  C   UNL     1       4.823   0.548  -0.040  0.00  0.00    +0.141 C 
ATOM      2  C   UNL     1       3.838   1.734  -0.031  0.00  0.00    +0.087 C 
ATOM      3  C   UNL     1       2.476   1.077  -0.015  0.00  0.00    +0.069 C 
ATOM      4  N   UNL     1       2.616  -0.203  -0.024  0.00  0.00    -0.181 NA
ATOM      5  N   UNL     1       3.942  -0.631  -0.038  0.00  0.00    -0.181 N 
ATOM      6  C   UNL     1       4.352  -1.915  -0.049  0.00  0.00    +0.273 C 
ATOM      7  O   UNL     1       5.541  -2.175  -0.062  0.00  0.00    -0.268 OA
ENDROOT
BRANCH   3   8
ATOM      8  C   UNL     1       1.187   1.792   0.000  0.00  0.00    -0.002 A 
ATOM      9  C   UNL     1      -0.013   1.076   0.008  0.00  0.00    +0.011 A 
ATOM     10  C   UNL     1      -1.215   1.751   0.017  0.00  0.00    +0.020 A 
ATOM     11  C   UNL     1      -1.236   3.135   0.031  0.00  0.00    +0.041 A 
ATOM     12  C   UNL     1      -0.050   3.852   0.023  0.00  0.00    +0.020 A 
ATOM     13  C   UNL     1       1.159   3.189   0.008  0.00  0.00    +0.011 A 
ATOM     14 CL   UNL     1      -2.754   3.977   0.051  0.00  0.00    -0.084 Cl
ENDBRANCH   3   8
BRANCH   1  19
ATOM     15  C   UNL     1       6.147  -0.188   3.419  0.00  0.00    +0.001 A 
ATOM     16  C   UNL     1       7.292   0.586   3.450  0.00  0.00    +0.004 A 
ATOM     17  C   UNL     1       7.641   1.349   2.353  0.00  0.00    +0.046 A 
ATOM     18  C   UNL     1       6.842   1.339   1.219  0.00  0.00    +0.122 A 
ATOM     19  C   UNL     1       5.694   0.561   1.190  0.00  0.00    +0.017 A 
ATOM     20  C   UNL     1       5.346  -0.196   2.292  0.00  0.00    +0.009 A 
BRANCH  18  21
ATOM     21  O   UNL     1       7.183   2.089   0.138  0.00  0.00    -0.506 OA
ATOM     22  H   UNL     1       6.816   2.983   0.148  0.00  0.00    +0.292 HD
ENDBRANCH  18  21
ENDBRANCH   1  19
BRANCH   6  23
ATOM     23  C   UNL     1       3.365  -2.999  -0.046  0.00  0.00    +0.076 A 
ATOM     24  C   UNL     1       3.573  -4.370  -0.061  0.00  0.00    +0.021 A 
ATOM     25  C   UNL     1       2.458  -5.170  -0.051  0.00  0.00    +0.008 A 
ATOM     26  C   UNL     1       1.228  -4.595  -0.036  0.00  0.00    +0.046 A 
ATOM     27  S   UNL     1       1.584  -2.898  -0.029  0.00  0.00    -0.092 S 
ENDBRANCH   6  23
TORSDOF 4
