REMARK  Name = ZINC18190524
REMARK  9 active torsions:
REMARK  status: ('A' for Active; 'I' for Inactive)
REMARK    1  A    between atoms: C_3  and  S_28
REMARK    2  A    between atoms: C_6  and  C_7
REMARK    3  A    between atoms: C_7  and  C_8
REMARK    4  A    between atoms: C_8  and  N_48
REMARK    5  A    between atoms: C_9  and  N_48
REMARK    6  A    between atoms: N_14  and  C_17
REMARK    7  A    between atoms: C_20  and  O_23
REMARK    8  A    between atoms: O_23  and  C_24
REMARK    9  A    between atoms: S_28  and  N_31
REMARK                            x       y       z     vdW  Elec       q    Type
REMARK                         _______ _______ _______ _____ _____    ______ ____
ROOT
ATOM      1  C   UNL     1      -9.598  -2.054   0.029  0.00  0.00    +0.026 C 
ATOM      2  C   UNL     1     -10.619  -3.047  -0.563  0.00  0.00    +0.090 C 
ATOM      3  C   UNL     1     -11.579  -3.292   0.581  0.00  0.00    +0.225 C 
ATOM      4  O   UNL     1     -12.547  -4.022   0.541  0.00  0.00    -0.275 OA
ATOM      5  N   UNL     1     -11.191  -2.575   1.643  0.00  0.00    -0.212 N 
ATOM      6  C   UNL     1     -10.089  -1.842   1.445  0.00  0.00    +0.213 C 
ATOM      7  O   UNL     1      -9.566  -1.123   2.269  0.00  0.00    -0.277 OA
ENDROOT
BRANCH   5   8
ATOM      8  C   UNL     1     -11.884  -2.591   2.864  0.00  0.00    +0.044 A 
ATOM      9  C   UNL     1     -13.157  -2.045   2.947  0.00  0.00    +0.027 A 
ATOM     10  C   UNL     1     -13.840  -2.066   4.147  0.00  0.00    +0.048 A 
ATOM     11  C   UNL     1     -13.249  -2.623   5.272  0.00  0.00    +0.130 A 
ATOM     12  C   UNL     1     -11.974  -3.164   5.191  0.00  0.00    +0.048 A 
ATOM     13  C   UNL     1     -11.293  -3.148   3.990  0.00  0.00    +0.027 A 
BRANCH  11  14
ATOM     14  O   UNL     1     -13.920  -2.638   6.454  0.00  0.00    -0.406 OA
BRANCH  14  15
ATOM     15  C   UNL     1     -15.228  -2.064   6.466  0.00  0.00    +0.575 C 
ATOM     16  F   UNL     1     -16.046  -2.749   5.561  0.00  0.00    -0.133 F 
ATOM     17  F   UNL     1     -15.770  -2.163   7.752  0.00  0.00    -0.133 F 
ATOM     18  F   UNL     1     -15.150  -0.717   6.096  0.00  0.00    -0.133 F 
ENDBRANCH  14  15
ENDBRANCH  11  14
ENDBRANCH   5   8
BRANCH   1  19
ATOM     19  N   UNL     1      -8.248  -2.648   0.031  0.00  0.00    +0.387 N 
ATOM     20  H   UNL     1      -8.130  -3.218   0.877  0.00  0.00    -0.085 HD
ATOM     21  H   UNL     1      -8.138  -3.241  -0.800  0.00  0.00    -0.085 HD
BRANCH  19  22
ATOM     22  C   UNL     1      -7.222  -1.588   0.012  0.00  0.00    -0.077 C 
BRANCH  22  23
ATOM     23  C   UNL     1      -5.835  -2.233   0.014  0.00  0.00    +0.016 C 
BRANCH  23  29
ATOM     24  C   UNL     1      -4.291  -0.647   1.182  0.00  0.00    +0.005 A 
ATOM     25  C   UNL     1      -3.323   0.340   1.164  0.00  0.00    +0.029 A 
ATOM     26  C   UNL     1      -2.844   0.816  -0.042  0.00  0.00    +0.105 A 
ATOM     27  C   UNL     1      -3.337   0.310  -1.230  0.00  0.00    +0.029 A 
ATOM     28  C   UNL     1      -4.302  -0.680  -1.212  0.00  0.00    +0.005 A 
ATOM     29  C   UNL     1      -4.780  -1.157  -0.006  0.00  0.00    -0.049 A 
BRANCH  26  30
ATOM     30  S   UNL     1      -1.610   2.074  -0.065  0.00  0.00    +0.056 S 
ATOM     31  O   UNL     1      -1.714   2.767   1.171  0.00  0.00    -0.153 OA
ATOM     32  O   UNL     1      -1.724   2.731  -1.319  0.00  0.00    -0.153 OA
BRANCH  30  33
ATOM     33  N   UNL     1      -0.138   1.315  -0.060  0.00  0.00    -0.204 NA
ATOM     34  H   UNL     1      -0.091   0.346  -0.046  0.00  0.00    +0.144 HD
ATOM     35  H   UNL     1       0.678   1.840  -0.075  0.00  0.00    +0.144 HD
ENDBRANCH  30  33
ENDBRANCH  26  30
ENDBRANCH  23  29
ENDBRANCH  22  23
ENDBRANCH  19  22
ENDBRANCH   1  19
TORSDOF 9
