REMARK  Name = ZINC09530592
REMARK  9 active torsions:
REMARK  status: ('A' for Active; 'I' for Inactive)
REMARK    1  A    between atoms: C_5  and  C_7
REMARK    2  A    between atoms: C_7  and  C_9
REMARK    3  A    between atoms: C_7  and  N_59
REMARK    4  A    between atoms: C_9  and  N_10
REMARK    5  A    between atoms: C_11  and  C_13
REMARK    6  A    between atoms: C_16  and  S_19
REMARK    7  A    between atoms: S_19  and  N_22
REMARK    8  A    between atoms: N_22  and  C_23
REMARK    9  A    between atoms: C_23  and  C_24
REMARK                            x       y       z     vdW  Elec       q    Type
REMARK                         _______ _______ _______ _____ _____    ______ ____
ROOT
ATOM      1  N   UNL     1      -0.420   1.631   1.146  0.00  0.00    -0.313 N 
ATOM      2  C   UNL     1       0.318   1.577   2.272  0.00  0.00    +0.244 C 
ATOM      3  O   UNL     1       1.505   1.321   2.209  0.00  0.00    -0.270 OA
ATOM      4  H   UNL     1      -1.367   1.835   1.196  0.00  0.00    +0.149 HD
ENDROOT
BRANCH   2   5
ATOM      5  C   UNL     1      -0.315   1.828   3.584  0.00  0.00    +0.037 A 
ATOM      6  C   UNL     1      -1.676   2.128   3.659  0.00  0.00    +0.015 A 
ATOM      7  C   UNL     1      -2.262   2.358   4.887  0.00  0.00    +0.029 A 
ATOM      8  C   UNL     1      -1.501   2.301   6.042  0.00  0.00    +0.105 A 
ATOM      9  C   UNL     1      -0.150   2.009   5.973  0.00  0.00    +0.029 A 
ATOM     10  C   UNL     1       0.447   1.773   4.752  0.00  0.00    +0.015 A 
BRANCH   8  11
ATOM     11  S   UNL     1      -2.256   2.602   7.605  0.00  0.00    +0.059 S 
ATOM     12  O   UNL     1      -3.639   2.315   7.450  0.00  0.00    -0.153 OA
ATOM     13  O   UNL     1      -1.448   1.953   8.578  0.00  0.00    -0.153 OA
BRANCH  11  14
ATOM     14  N   UNL     1      -2.139   4.227   7.901  0.00  0.00    -0.183 NA
ATOM     15  H   UNL     1      -1.602   4.548   8.642  0.00  0.00    +0.148 HD
BRANCH  14  16
ATOM     16  C   UNL     1      -2.847   5.180   7.043  0.00  0.00    +0.180 C 
BRANCH  16  17
ATOM     17  C   UNL     1      -2.888   6.528   7.716  0.00  0.00    +0.120 A 
ATOM     18  C   UNL     1      -1.967   7.500   7.589  0.00  0.00    +0.046 A 
ATOM     19  C   UNL     1      -2.401   8.582   8.388  0.00  0.00    +0.041 A 
ATOM     20  C   UNL     1      -3.561   8.207   8.957  0.00  0.00    +0.195 A 
ATOM     21  O   UNL     1      -3.854   6.964   8.541  0.00  0.00    -0.466 OA
ENDBRANCH  16  17
ENDBRANCH  14  16
ENDBRANCH  11  14
ENDBRANCH   8  11
ENDBRANCH   2   5
BRANCH   1  22
ATOM     22  C   UNL     1       0.207   1.382  -0.154  0.00  0.00    +0.094 C 
BRANCH  22  23
ATOM     23  C   UNL     1      -0.802   1.663  -1.270  0.00  0.00    -0.019 C 
BRANCH  23  28
ATOM     24  C   UNL     1       1.052   1.972  -4.544  0.00  0.00    +0.000 A 
ATOM     25  C   UNL     1       0.942   0.689  -5.047  0.00  0.00    +0.001 A 
ATOM     26  C   UNL     1       0.268  -0.280  -4.328  0.00  0.00    +0.020 A 
ATOM     27  C   UNL     1      -0.297   0.035  -3.104  0.00  0.00    +0.043 A 
ATOM     28  C   UNL     1      -0.186   1.319  -2.602  0.00  0.00    -0.041 A 
ATOM     29  C   UNL     1       0.484   2.288  -3.324  0.00  0.00    +0.003 A 
ATOM     30 CL   UNL     1      -1.145  -1.181  -2.201  0.00  0.00    -0.083 Cl
ENDBRANCH  23  28
BRANCH  23  35
ATOM     31  C   UNL     1      -2.003   3.435  -2.430  0.00  0.00    -0.078 C 
ATOM     32  C   UNL     1      -2.706   4.743  -1.990  0.00  0.00    -0.020 C 
ATOM     33  C   UNL     1      -2.992   4.495  -0.491  0.00  0.00    -0.020 C 
ATOM     34  C   UNL     1      -1.990   3.406  -0.065  0.00  0.00    -0.078 C 
ATOM     35  N   UNL     1      -1.186   3.106  -1.251  0.00  0.00    +0.385 N 
ATOM     36  H   UNL     1      -0.335   3.681  -1.247  0.00  0.00    -0.081 HD
ENDBRANCH  23  35
ENDBRANCH  22  23
ENDBRANCH   1  22
TORSDOF 9
