REMARK  Name = ZINC17072885
REMARK  9 active torsions:
REMARK  status: ('A' for Active; 'I' for Inactive)
REMARK    1  A    between atoms: C_1  and  C_2
REMARK    2  A    between atoms: C_4  and  C_20
REMARK    3  A    between atoms: C_5  and  N_7
REMARK    4  A    between atoms: C_8  and  C_10
REMARK    5  A    between atoms: C_16  and  C_18
REMARK    6  A    between atoms: C_20  and  O_22
REMARK    7  A    between atoms: O_22  and  C_23
REMARK    8  A    between atoms: C_23  and  C_24
REMARK    9  A    between atoms: C_23  and  C_25
REMARK                            x       y       z     vdW  Elec       q    Type
REMARK                         _______ _______ _______ _____ _____    ______ ____
ROOT
ATOM      1  N   UNL     1       3.233  -0.938  -1.339  0.00  0.00    -0.279 N 
ATOM      2  C   UNL     1       2.305   0.019  -1.140  0.00  0.00    +0.222 C 
ATOM      3  O   UNL     1       1.343   0.092  -1.875  0.00  0.00    -0.275 OA
ATOM      4  H   UNL     1       4.003  -0.996  -0.751  0.00  0.00    +0.155 HD
ENDROOT
BRANCH   1   9
ATOM      5  C   UNL     1       1.738  -3.971  -5.700  0.00  0.00    +0.051 C 
ATOM      6  C   UNL     1       2.384  -3.329  -4.499  0.00  0.00    -0.011 A 
ATOM      7  C   UNL     1       3.531  -3.673  -3.886  0.00  0.00    +0.027 A 
ATOM      8  C   UNL     1       3.933  -2.881  -2.748  0.00  0.00    +0.088 A 
ATOM      9  C   UNL     1       3.088  -1.839  -2.382  0.00  0.00    +0.086 A 
ATOM     10  S   UNL     1       1.814  -1.934  -3.551  0.00  0.00    -0.078 S 
BRANCH   8  11
ATOM     11  C   UNL     1       5.167  -3.164  -2.012  0.00  0.00    +0.342 C 
ATOM     12  O   UNL     1       5.475  -2.480  -1.054  0.00  0.00    -0.245 OA
BRANCH  11  13
ATOM     13  O   UNL     1       5.962  -4.184  -2.396  0.00  0.00    -0.458 OA
BRANCH  13  14
ATOM     14  C   UNL     1       7.169  -4.407  -1.620  0.00  0.00    +0.171 C 
ATOM     15  C   UNL     1       7.528  -5.894  -1.651  0.00  0.00    +0.052 C 
ATOM     16  C   UNL     1       8.318  -3.592  -2.218  0.00  0.00    +0.052 C 
ENDBRANCH  13  14
ENDBRANCH  11  13
ENDBRANCH   8  11
ENDBRANCH   1   9
BRANCH   2  17
ATOM     17  C   UNL     1       2.463   0.998  -0.005  0.00  0.00    +0.093 C 
ATOM     18  C   UNL     1       3.752   1.800  -0.194  0.00  0.00    +0.040 C 
ATOM     19  C   UNL     1       3.792   2.949   0.770  0.00  0.00    -0.030 C 
ATOM     20  C   UNL     1       2.756   3.404   1.399  0.00  0.00    -0.030 C 
ATOM     21  C   UNL     1       1.370   2.843   1.258  0.00  0.00    +0.042 C 
ATOM     22  C   UNL     1       1.280   1.975   0.000  0.00  0.00    +0.118 C 
BRANCH  22  23
ATOM     23  C   UNL     1      -0.014   1.204   0.009  0.00  0.00    +0.360 C 
ATOM     24  O   UNL     1       0.002  -0.004   0.002  0.00  0.00    -0.246 OA
ATOM     25  O   UNL     1      -1.186   1.859   0.018  0.00  0.00    -0.246 OA
ENDBRANCH  22  23
ENDBRANCH   2  17
TORSDOF 6
