REMARK  Name = ZINC36501675
REMARK  20 active torsions:
REMARK  status: ('A' for Active; 'I' for Inactive)
REMARK    1  A    between atoms: C_1  and  C_2
REMARK    2  A    between atoms: C_2  and  C_4
REMARK    3  A    between atoms: C_2  and  C_36
REMARK    4  A    between atoms: C_4  and  C_5
REMARK    5  A    between atoms: N_7  and  C_8
REMARK    6  A    between atoms: N_7  and  C_14
REMARK    7  A    between atoms: C_8  and  C_9
REMARK    8  A    between atoms: C_14  and  C_16
REMARK    9  A    between atoms: C_14  and  C_25
REMARK   10  A    between atoms: C_17  and  O_24
REMARK   11  A    between atoms: C_19  and  O_23
REMARK   12  A    between atoms: C_21  and  O_22
REMARK   13  A    between atoms: N_27  and  C_28
REMARK   14  A    between atoms: C_28  and  C_29
REMARK   15  A    between atoms: C_28  and  C_30
REMARK   16  A    between atoms: C_28  and  C_31
REMARK   17  A    between atoms: C_31  and  C_32
REMARK   18  A    between atoms: C_32  and  C_33
REMARK   19  A    between atoms: C_32  and  C_34
REMARK   20  A    between atoms: C_32  and  C_35
REMARK                            x       y       z     vdW  Elec       q    Type
REMARK                         _______ _______ _______ _____ _____    ______ ____
ROOT
ATOM      1  C   UNL     1       5.982  -1.836  -3.862  0.00  0.00    +0.200 C 
ENDROOT
BRANCH   1   2
ATOM      2  C   UNL     1       7.278  -2.519  -4.217  0.00  0.00    +0.065 A 
ATOM      3  C   UNL     1       7.371  -3.271  -5.378  0.00  0.00    +0.129 A 
ATOM      4  C   UNL     1       8.564  -3.899  -5.704  0.00  0.00    +0.091 A 
ATOM      5  C   UNL     1       9.664  -3.774  -4.869  0.00  0.00    +0.124 A 
ATOM      6  C   UNL     1       9.571  -3.022  -3.708  0.00  0.00    +0.091 A 
ATOM      7  C   UNL     1       8.380  -2.390  -3.384  0.00  0.00    +0.129 A 
BRANCH   7   8
ATOM      8  O   UNL     1       8.290  -1.649  -2.249  0.00  0.00    -0.506 OA
ATOM      9  H   UNL     1       8.009  -2.151  -1.472  0.00  0.00    +0.292 HD
ENDBRANCH   7   8
BRANCH   5  10
ATOM     10  O   UNL     1      10.832  -4.391  -5.188  0.00  0.00    -0.507 OA
ATOM     11  H   UNL     1      11.428  -3.851  -5.726  0.00  0.00    +0.292 HD
ENDBRANCH   5  10
BRANCH   3  12
ATOM     12  O   UNL     1       6.293  -3.393  -6.197  0.00  0.00    -0.506 OA
ATOM     13  H   UNL     1       6.279  -2.758  -6.926  0.00  0.00    +0.292 HD
ENDBRANCH   3  12
ENDBRANCH   1   2
BRANCH   1  14
ATOM     14  C   UNL     1       5.752  -0.679  -4.800  0.00  0.00    +0.239 C 
ATOM     15  O   UNL     1       4.639  -0.461  -5.231  0.00  0.00    -0.273 OA
ATOM     16  N   UNL     1       6.781   0.114  -5.158  0.00  0.00    -0.308 N 
ATOM     17  H   UNL     1       7.682  -0.101  -4.868  0.00  0.00    +0.149 HD
BRANCH  16  18
ATOM     18  C   UNL     1       6.540   1.299  -5.984  0.00  0.00    +0.030 C 
ATOM     19  C   UNL     1       6.086   0.865  -7.379  0.00  0.00    +0.031 C 
ATOM     20  C   UNL     1       5.452   2.159  -5.338  0.00  0.00    +0.031 C 
BRANCH  18  21
ATOM     21  C   UNL     1       7.831   2.112  -6.098  0.00  0.00    +0.031 C 
BRANCH  21  22
ATOM     22  C   UNL     1       8.169   2.727  -4.739  0.00  0.00    -0.036 C 
ATOM     23  C   UNL     1       7.857   1.718  -3.631  0.00  0.00    +0.010 C 
ATOM     24  C   UNL     1       9.656   3.086  -4.697  0.00  0.00    +0.010 C 
ATOM     25  C   UNL     1       7.333   3.990  -4.528  0.00  0.00    +0.010 C 
ENDBRANCH  21  22
ENDBRANCH  18  21
ENDBRANCH  16  18
ENDBRANCH   1  14
BRANCH   1  28
ATOM     26  C   UNL     1       4.643  -3.680  -2.999  0.00  0.00    +0.217 C 
ATOM     27  O   UNL     1       5.346  -3.689  -2.011  0.00  0.00    -0.276 OA
ATOM     28  N   UNL     1       4.878  -2.791  -3.985  0.00  0.00    -0.278 N 
BRANCH  26  29
ATOM     29  C   UNL     1       3.507  -4.662  -3.125  0.00  0.00    +0.104 C 
BRANCH  29  31
ATOM     30  C   UNL     1       3.123  -4.696  -0.657  0.00  0.00    +0.013 C 
ATOM     31  C   UNL     1       3.460  -5.550  -1.880  0.00  0.00    +0.025 C 
BRANCH  31  32
ATOM     32  C   UNL     1       2.405  -6.611  -2.059  0.00  0.00    -0.044 A 
ATOM     33  C   UNL     1       1.087  -6.247  -2.265  0.00  0.00    +0.004 A 
ATOM     34  C   UNL     1       0.119  -7.220  -2.429  0.00  0.00    +0.000 A 
ATOM     35  C   UNL     1       0.469  -8.557  -2.388  0.00  0.00    +0.000 A 
ATOM     36  C   UNL     1       1.786  -8.921  -2.182  0.00  0.00    +0.000 A 
ATOM     37  C   UNL     1       2.755  -7.947  -2.022  0.00  0.00    +0.004 A 
ENDBRANCH  31  32
ENDBRANCH  29  31
ENDBRANCH  26  29
BRANCH  28  38
ATOM     38  C   UNL     1       4.029  -2.780  -5.179  0.00  0.00    +0.183 C 
BRANCH  38  39
ATOM     39  C   UNL     1       2.715  -2.117  -4.855  0.00  0.00    +0.122 A 
ATOM     40  C   UNL     1       2.350  -0.875  -5.221  0.00  0.00    +0.046 A 
ATOM     41  C   UNL     1       1.049  -0.663  -4.708  0.00  0.00    +0.041 A 
ATOM     42  C   UNL     1       0.698  -1.788  -4.061  0.00  0.00    +0.195 A 
ATOM     43  O   UNL     1       1.708  -2.668  -4.158  0.00  0.00    -0.466 OA
ENDBRANCH  38  39
ENDBRANCH  28  38
ENDBRANCH   1  28
TORSDOF 14
