REMARK  Name = ZINC65298116
REMARK  9 active torsions:
REMARK  status: ('A' for Active; 'I' for Inactive)
REMARK    1  A    between atoms: C_1  and  C_2
REMARK    2  A    between atoms: C_2  and  O_3
REMARK    3  A    between atoms: O_3  and  C_4
REMARK    4  A    between atoms: C_7  and  C_10
REMARK    5  A    between atoms: N_15  and  C_18
REMARK    6  A    between atoms: C_18  and  C_19
REMARK    7  A    between atoms: C_18  and  C_20
REMARK    8  A    between atoms: C_22  and  C_25
REMARK    9  A    between atoms: C_30  and  O_31
REMARK                            x       y       z     vdW  Elec       q    Type
REMARK                         _______ _______ _______ _____ _____    ______ ____
ROOT
ATOM      1  C   UNL     1       1.108  -6.011  -1.843  0.00  0.00    +0.047 C 
ATOM      2  N   UNL     1       0.601  -6.774  -0.949  0.00  0.00    -0.266 NA
ATOM      3  C   UNL     1       0.633  -8.231  -1.003  0.00  0.00    +0.109 C 
ATOM      4  C   UNL     1      -0.734  -8.758  -1.452  0.00  0.00    +0.027 C 
ATOM      5  C   UNL     1      -1.791  -8.357  -0.421  0.00  0.00    -0.075 C 
ATOM      6  N   UNL     1      -1.451  -8.935   0.884  0.00  0.00    +0.381 N 
ATOM      7  C   UNL     1      -0.173  -8.386   1.355  0.00  0.00    -0.075 C 
ATOM      8  C   UNL     1       0.945  -8.788   0.391  0.00  0.00    +0.027 C 
ATOM      9  N   UNL     1       1.661  -8.688  -1.947  0.00  0.00    -0.286 NA
ATOM     10  C   UNL     1       1.492  -8.016  -3.247  0.00  0.00    +0.095 C 
ATOM     11  C   UNL     1       1.812  -6.531  -3.066  0.00  0.00    +0.079 C 
ATOM     12  H   UNL     1       2.587  -8.532  -1.577  0.00  0.00    +0.125 HD
ATOM     13  H   UNL     1      -1.373  -9.937   0.797  0.00  0.00    -0.081 HD
ENDROOT
BRANCH  10  14
ATOM     14  C   UNL     1       2.431  -8.621  -4.258  0.00  0.00    +0.012 A 
ATOM     15  C   UNL     1       3.534  -9.338  -3.836  0.00  0.00    +0.024 A 
ATOM     16  C   UNL     1       4.396  -9.894  -4.764  0.00  0.00    +0.018 A 
ATOM     17  C   UNL     1       4.155  -9.733  -6.117  0.00  0.00    +0.019 A 
ATOM     18  C   UNL     1       3.054  -9.018  -6.544  0.00  0.00    +0.047 A 
ATOM     19  C   UNL     1       2.185  -8.464  -5.614  0.00  0.00    +0.122 A 
ATOM     20 BR   UNL     1       5.905 -10.874  -4.183  0.00  0.00    -0.050 Br
BRANCH  19  21
ATOM     21  O   UNL     1       1.097  -7.764  -6.032  0.00  0.00    -0.506 OA
ATOM     22  H   UNL     1       1.261  -6.819  -6.154  0.00  0.00    +0.292 HD
ENDBRANCH  19  21
ENDBRANCH  10  14
BRANCH   1  26
ATOM     23  C   UNL     1       0.777  -1.809  -1.336  0.00  0.00    +0.121 A 
ATOM     24  C   UNL     1       0.241  -2.666  -0.383  0.00  0.00    +0.046 A 
ATOM     25  C   UNL     1       0.346  -4.030  -0.543  0.00  0.00    +0.013 A 
ATOM     26  C   UNL     1       0.993  -4.551  -1.667  0.00  0.00    -0.004 A 
ATOM     27  C   UNL     1       1.530  -3.685  -2.623  0.00  0.00    +0.013 A 
ATOM     28  C   UNL     1       1.416  -2.323  -2.458  0.00  0.00    +0.046 A 
BRANCH  23  29
ATOM     29  O   UNL     1       0.671  -0.465  -1.174  0.00  0.00    -0.492 OA
BRANCH  29  31
ATOM     30  C   UNL     1      -0.019   1.526   0.010  0.00  0.00    +0.048 C 
ATOM     31  C   UNL     1       0.002  -0.004   0.002  0.00  0.00    +0.225 C 
ENDBRANCH  29  31
ENDBRANCH  23  29
ENDBRANCH   1  26
BRANCH   6  32
ATOM     32  C   UNL     1      -2.507  -8.610   1.852  0.00  0.00    -0.075 C 
ATOM     33  C   UNL     1      -3.838  -9.190   1.368  0.00  0.00    -0.014 C 
ATOM     34  C   UNL     1      -2.154  -9.212   3.214  0.00  0.00    -0.014 C 
ENDBRANCH   6  32
TORSDOF 6
