REMARK  Name = ZINC13417248
REMARK  7 active torsions:
REMARK  status: ('A' for Active; 'I' for Inactive)
REMARK    1  A    between atoms: C_1  and  C_2
REMARK    2  A    between atoms: C_8  and  C_16
REMARK    3  A    between atoms: C_12  and  C_13
REMARK    4  A    between atoms: C_16  and  S_17
REMARK    5  A    between atoms: S_17  and  C_18
REMARK    6  A    between atoms: C_21  and  C_23
REMARK    7  A    between atoms: C_23  and  C_24
REMARK                            x       y       z     vdW  Elec       q    Type
REMARK                         _______ _______ _______ _____ _____    ______ ____
ROOT
ATOM      1  C   UNL     1      -0.018   1.503   0.010  0.00  0.00    +0.046 C 
ATOM      2  C   UNL     1       0.002  -0.004   0.002  0.00  0.00    -0.015 A 
ATOM      3  C   UNL     1       0.005  -0.700  -1.207  0.00  0.00    +0.076 A 
ATOM      4  C   UNL     1      -0.009  -0.168  -2.590  0.00  0.00    +0.260 A 
ATOM      5  O   UNL     1      -0.026   1.032  -2.798  0.00  0.00    -0.267 OA
ATOM      6  N   UNL     1      -0.002  -1.047  -3.611  0.00  0.00    -0.310 N 
ATOM      7  H   UNL     1      -0.010  -0.716  -4.523  0.00  0.00    +0.170 HD
ATOM      8  C   UNL     1       0.018  -2.385  -3.391  0.00  0.00    +0.121 A 
ATOM      9  N   UNL     1       0.031  -2.886  -2.186  0.00  0.00    -0.226 NA
ATOM     10  C   UNL     1       0.026  -2.110  -1.109  0.00  0.00    +0.116 A 
ATOM     11  S   UNL     1       0.038  -2.402   0.641  0.00  0.00    -0.062 S 
ATOM     12  C   UNL     1       0.023  -0.703   1.188  0.00  0.00    +0.106 A 
ENDROOT
BRANCH  12  13
ATOM     13  C   UNL     1       0.029  -0.199   2.513  0.00  0.00    +0.393 C 
ATOM     14  O   UNL     1       0.015   1.010   2.709  0.00  0.00    -0.240 OA
ATOM     15  O   UNL     1       0.050  -0.973   3.463  0.00  0.00    -0.240 OA
ENDBRANCH  12  13
BRANCH   8  16
ATOM     16  C   UNL     1       0.025  -3.320  -4.573  0.00  0.00    +0.153 C 
BRANCH  16  17
ATOM     17  S   UNL     1       0.052  -5.036  -3.985  0.00  0.00    -0.058 S 
BRANCH  17  18
ATOM     18  C   UNL     1       0.057  -5.993  -5.464  0.00  0.00    +0.278 A 
ATOM     19  N   UNL     1       0.050  -5.529  -6.691  0.00  0.00    -0.101 NA
ATOM     20  N   UNL     1       0.057  -6.514  -7.518  0.00  0.00    -0.111 NA
ATOM     21  C   UNL     1       0.069  -7.636  -6.860  0.00  0.00    +0.222 A 
ATOM     22  O   UNL     1       0.075  -7.337  -5.546  0.00  0.00    -0.415 OA
BRANCH  21  23
ATOM     23  C   UNL     1       0.080  -9.019  -7.458  0.00  0.00    +0.132 C 
BRANCH  23  24
ATOM     24  C   UNL     1       1.504  -9.468  -7.661  0.00  0.00    -0.038 A 
ATOM     25  C   UNL     1       2.152  -9.194  -8.851  0.00  0.00    +0.004 A 
ATOM     26  C   UNL     1       3.459  -9.605  -9.037  0.00  0.00    +0.000 A 
ATOM     27  C   UNL     1       4.117 -10.290  -8.033  0.00  0.00    +0.000 A 
ATOM     28  C   UNL     1       3.469 -10.564  -6.843  0.00  0.00    +0.000 A 
ATOM     29  C   UNL     1       2.164 -10.149  -6.655  0.00  0.00    +0.004 A 
ENDBRANCH  23  24
ENDBRANCH  21  23
ENDBRANCH  17  18
ENDBRANCH  16  17
ENDBRANCH   8  16
TORSDOF 6
