REMARK  Name = ZINC64640448
REMARK  7 active torsions:
REMARK  status: ('A' for Active; 'I' for Inactive)
REMARK    1  A    between atoms: C_1  and  C_2
REMARK    2  A    between atoms: C_2  and  C_4
REMARK    3  A    between atoms: C_2  and  N_15
REMARK    4  A    between atoms: C_4  and  C_5
REMARK    5  A    between atoms: C_5  and  C_6
REMARK    6  A    between atoms: C_22  and  C_27
REMARK    7  A    between atoms: C_27  and  C_28
REMARK                            x       y       z     vdW  Elec       q    Type
REMARK                         _______ _______ _______ _____ _____    ______ ____
ROOT
ATOM      1  N   UNL     1       0.583  -0.743  -1.104  0.00  0.00    +0.382 N 
ATOM      2  C   UNL     1      -0.075  -0.310  -2.364  0.00  0.00    -0.076 C 
ATOM      3  C   UNL     1       0.140  -1.289  -3.496  0.00  0.00    +0.017 C 
ATOM      4  C   UNL     1       1.578  -1.801  -3.500  0.00  0.00    +0.138 C 
ATOM      5  N   UNL     1       2.031  -2.090  -4.879  0.00  0.00    -0.238 NA
ATOM      6  N   UNL     1       3.011  -3.171  -4.723  0.00  0.00    -0.238 NA
ATOM      7  C   UNL     1       2.693  -3.857  -3.452  0.00  0.00    +0.144 C 
ATOM      8  N   UNL     1       1.520  -3.163  -2.873  0.00  0.00    -0.271 NA
ATOM      9  C   UNL     1       1.553  -2.995  -1.446  0.00  0.00    +0.069 C 
ATOM     10  C   UNL     1       0.396  -2.173  -0.888  0.00  0.00    -0.063 C 
ATOM     11  H   UNL     1       1.259  -2.382  -5.459  0.00  0.00    +0.142 HD
ATOM     12  H   UNL     1       3.952  -2.808  -4.713  0.00  0.00    +0.142 HD
ATOM     13  H   UNL     1       1.571  -0.542  -1.160  0.00  0.00    -0.081 HD
ENDROOT
BRANCH   1  15
ATOM     14  C   UNL     1      -1.494  -0.307   0.117  0.00  0.00    -0.013 C 
ATOM     15  C   UNL     1       0.003  -0.003   0.024  0.00  0.00    -0.071 C 
BRANCH  15  16
ATOM     16  C   UNL     1       0.206   1.498  -0.191  0.00  0.00    -0.011 C 
BRANCH  16  17
ATOM     17  C   UNL     1       1.700   1.823  -0.142  0.00  0.00    +0.031 C 
BRANCH  17  18
ATOM     18  C   UNL     1       1.907   3.282  -0.455  0.00  0.00    -0.042 C 
ATOM     19  C   UNL     1       2.032   4.295   0.433  0.00  0.00    -0.001 A 
ATOM     20  C   UNL     1       2.010   4.339   1.900  0.00  0.00    +0.010 A 
ATOM     21  C   UNL     1       2.163   5.530   2.522  0.00  0.00    +0.001 A 
ATOM     22  C   UNL     1       2.341   6.720   1.803  0.00  0.00    +0.002 A 
ATOM     23  C   UNL     1       2.372   6.759   0.455  0.00  0.00    +0.026 A 
ATOM     24  C   UNL     1       2.221   5.565  -0.303  0.00  0.00    +0.043 A 
ATOM     25  N   UNL     1       2.214   5.346  -1.596  0.00  0.00    -0.380 N 
ATOM     26  C   UNL     1       2.025   3.910  -1.826  0.00  0.00    +0.144 C 
ATOM     27  H   UNL     1       2.320   6.021  -2.284  0.00  0.00    +0.160 HD
ENDBRANCH  17  18
ENDBRANCH  16  17
ENDBRANCH  15  16
ENDBRANCH   1  15
BRANCH   7  28
ATOM     28  C   UNL     1       2.367  -5.328  -3.716  0.00  0.00    +0.071 C 
BRANCH  28  29
ATOM     29  C   UNL     1       3.603  -6.036  -4.209  0.00  0.00    -0.045 A 
ATOM     30  C   UNL     1       3.876  -6.087  -5.564  0.00  0.00    +0.004 A 
ATOM     31  C   UNL     1       5.009  -6.736  -6.016  0.00  0.00    +0.000 A 
ATOM     32  C   UNL     1       5.870  -7.334  -5.114  0.00  0.00    +0.000 A 
ATOM     33  C   UNL     1       5.597  -7.282  -3.760  0.00  0.00    +0.000 A 
ATOM     34  C   UNL     1       4.466  -6.629  -3.307  0.00  0.00    +0.004 A 
ENDBRANCH  28  29
ENDBRANCH   7  28
TORSDOF 6
