REMARK  Name = ZINC33531837
REMARK  6 active torsions:
REMARK  status: ('A' for Active; 'I' for Inactive)
REMARK    1  A    between atoms: C_1  and  C_2
REMARK    2  A    between atoms: C_4  and  C_15
REMARK    3  A    between atoms: C_5  and  C_14
REMARK    4  A    between atoms: N_6  and  C_7
REMARK    5  A    between atoms: C_12  and  O_13
REMARK    6  A    between atoms: C_25  and  C_27
REMARK                            x       y       z     vdW  Elec       q    Type
REMARK                         _______ _______ _______ _____ _____    ______ ____
ROOT
ATOM      1  C   UNL     1      -7.047  -1.567  -0.982  0.00  0.00    +0.026 C 
ATOM      2  C   UNL     1      -6.379  -1.723   0.216  0.00  0.00    +0.081 C 
ATOM      3  C   UNL     1      -5.415  -0.704   0.715  0.00  0.00    +0.153 C 
ATOM      4  N   UNL     1      -5.546   0.578   0.491  0.00  0.00    -0.283 NA
ATOM      5  N   UNL     1      -4.345  -1.256   1.452  0.00  0.00    -0.152 N 
ATOM      6  C   UNL     1      -4.540  -2.494   2.026  0.00  0.00    +0.181 C 
ATOM      7  N   UNL     1      -5.585  -3.274   1.906  0.00  0.00    -0.152 NA
ATOM      8  C   UNL     1      -6.583  -2.914   1.075  0.00  0.00    +0.273 C 
ATOM      9  O   UNL     1      -7.624  -3.550   1.030  0.00  0.00    -0.268 OA
ATOM     10  S   UNL     1      -3.022  -2.743   2.908  0.00  0.00    -0.033 S 
ATOM     11  C   UNL     1      -2.219  -1.220   2.431  0.00  0.00    +0.131 C 
ATOM     12  N   UNL     1      -3.125  -0.653   1.672  0.00  0.00    -0.164 NA
ATOM     13  H   UNL     1      -4.800   1.284   0.886  0.00  0.00    +0.188 HD
ENDROOT
BRANCH   1  17
ATOM     14  C   UNL     1      -8.696  -6.195  -2.159  0.00  0.00    +0.064 C 
ATOM     15  C   UNL     1      -8.552  -4.701  -2.023  0.00  0.00    +0.022 A 
ATOM     16  C   UNL     1      -7.556  -4.070  -1.380  0.00  0.00    +0.031 A 
ATOM     17  C   UNL     1      -7.826  -2.631  -1.503  0.00  0.00    -0.003 A 
ATOM     18  C   UNL     1      -9.003  -2.527  -2.228  0.00  0.00    +0.028 A 
ATOM     19  N   UNL     1      -9.417  -3.773  -2.533  0.00  0.00    -0.314 N 
ATOM     20  C   UNL     1      -9.696  -1.245  -2.610  0.00  0.00    +0.064 C 
BRANCH  19  21
ATOM     21  C   UNL     1     -10.574  -4.074  -3.266  0.00  0.00    +0.088 A 
ATOM     22  C   UNL     1     -11.784  -4.256  -2.612  0.00  0.00    +0.030 A 
ATOM     23  C   UNL     1     -12.923  -4.552  -3.336  0.00  0.00    +0.002 A 
ATOM     24  C   UNL     1     -12.860  -4.668  -4.713  0.00  0.00    +0.004 A 
ATOM     25  C   UNL     1     -11.659  -4.489  -5.371  0.00  0.00    +0.047 A 
ATOM     26  C   UNL     1     -10.513  -4.187  -4.653  0.00  0.00    +0.141 A 
BRANCH  26  27
ATOM     27  O   UNL     1      -9.331  -4.005  -5.300  0.00  0.00    -0.505 OA
ATOM     28  H   UNL     1      -9.284  -4.094  -6.395  0.00  0.00    +0.292 HD
ENDBRANCH  26  27
ENDBRANCH  19  21
ENDBRANCH   1  17
BRANCH  11  29
ATOM     29  C   UNL     1      -0.872  -0.727   2.794  0.00  0.00    +0.027 A 
ATOM     30  C   UNL     1      -0.038  -1.483   3.625  0.00  0.00    +0.013 A 
ATOM     31  C   UNL     1       1.213  -0.977   3.934  0.00  0.00    +0.020 A 
ATOM     32  C   UNL     1       1.595   0.247   3.417  0.00  0.00    +0.111 A 
ATOM     33  N   UNL     1       0.788   0.938   2.635  0.00  0.00    -0.263 NA
ATOM     34  C   UNL     1      -0.412   0.499   2.313  0.00  0.00    +0.121 A 
ENDBRANCH  11  29
TORSDOF 4
