REMARK  Name = ZINC64739172
REMARK  3 active torsions:
REMARK  status: ('A' for Active; 'I' for Inactive)
REMARK    1  A    between atoms: C_1  and  C_2
REMARK    2  A    between atoms: C_4  and  C_14
REMARK    3  A    between atoms: C_14  and  C_16
REMARK                            x       y       z     vdW  Elec       q    Type
REMARK                         _______ _______ _______ _____ _____    ______ ____
ROOT
ATOM      1  C   UNL     1      -0.018   1.503   0.010  0.00  0.00    +0.067 C 
ATOM      2  C   UNL     1       0.002  -0.004   0.002  0.00  0.00    +0.064 C 
ATOM      3  C   UNL     1      -1.065  -0.770   0.003  0.00  0.00    +0.008 C 
ATOM      4  C   UNL     1      -2.528  -0.495   0.210  0.00  0.00    +0.100 C 
ATOM      5  C   UNL     1      -2.921  -1.241   1.496  0.00  0.00    +0.111 C 
ATOM      6  C   UNL     1      -2.203  -2.545   1.627  0.00  0.00    +0.216 C 
ATOM      7  O   UNL     1      -2.689  -3.345   2.397  0.00  0.00    -0.276 OA
ATOM      8  N   UNL     1      -1.092  -2.937   1.000  0.00  0.00    -0.289 N 
ATOM      9  C   UNL     1      -0.526  -2.190  -0.116  0.00  0.00    +0.243 C 
ATOM     10  N   UNL     1       0.919  -1.987  -0.035  0.00  0.00    -0.160 NA
ATOM     11  N   UNL     1       1.127  -0.766  -0.013  0.00  0.00    -0.157 NA
ATOM     12  H   UNL     1      -0.646  -3.745   1.297  0.00  0.00    +0.151 HD
ENDROOT
BRANCH   4  13
ATOM     13  C   UNL     1      -3.325  -1.014  -0.958  0.00  0.00    +0.171 C 
ATOM     14  O   UNL     1      -2.932  -1.979  -1.579  0.00  0.00    -0.291 OA
BRANCH  13  15
ATOM     15  C   UNL     1      -4.580  -0.352  -1.346  0.00  0.00    +0.018 A 
ATOM     16  C   UNL     1      -5.034   0.765  -0.635  0.00  0.00    +0.012 A 
ATOM     17  C   UNL     1      -6.210   1.381  -1.005  0.00  0.00    +0.016 A 
ATOM     18  C   UNL     1      -6.943   0.896  -2.076  0.00  0.00    +0.018 A 
ATOM     19  C   UNL     1      -6.499  -0.208  -2.784  0.00  0.00    +0.016 A 
ATOM     20  C   UNL     1      -5.322  -0.831  -2.430  0.00  0.00    +0.012 A 
ATOM     21 BR   UNL     1      -8.556   1.748  -2.574  0.00  0.00    -0.050 Br
ENDBRANCH  13  15
ENDBRANCH   4  13
TORSDOF 2
